@<TRIPOS>MOLECULE
3R8
117   119    1
SMALL
USER_CHARGES


@<TRIPOS>ATOM
      1 CA         13.0563  -23.1257  -42.6057 C.3       0 UNK        -0.2013 
      2 C          13.8388  -23.8413  -43.6968 C.2       0 UNK         0.4866 
      3 O          13.4883  -23.7341  -44.8727 O.2       0 UNK        -0.5176 
      4 N          14.8896  -24.5782  -43.3166 N.am      1 UNK        -0.4884 
      5 CA         15.7831  -25.2966  -44.2314 C.3       1 UNK         0.0853 
      6 C6         16.6781  -26.3099  -43.4800 C.3       10 UNK        -0.0849 
      7 S7         15.7324  -27.6399  -42.6633 S.3       10 UNK        -0.2776 
      8 C8         16.1821  -29.1007  -43.6632 C.3       10 UNK         0.0316 
      9 C9         17.6826  -29.3745  -43.6668 C.ar      10 UNK        -0.0863 
     10 C10        18.3505  -29.6701  -42.4756 C.ar      10 UNK        -0.1009 
     11 C11        19.7266  -29.9135  -42.4736 C.ar      10 UNK        -0.0712 
     12 C12        20.4398  -29.8558  -43.6758 C.ar      10 UNK        -0.0894 
     13 C13        19.7864  -29.5588  -44.8760 C.ar      10 UNK        -0.0745 
     14 C14        18.4048  -29.3324  -44.8639 C.ar      10 UNK        -0.0972 
     15 C15        20.5654  -29.5306  -46.1874 C.3       10 UNK         0.0209 
     16 S16        20.2341  -28.0410  -47.1890 S.3       10 UNK        -0.2568 
     17 C17        21.5072  -26.8466  -46.6354 C.3       10 UNK        -0.0983 
     18 CA         21.0226  -25.7343  -45.6578 C.3       3 UNK         0.0876 
     19 N          19.6962  -25.2195  -45.9818 N.am      3 UNK        -0.4424 
     20 C          19.4084  -24.3005  -46.9077 C.2       2 UNK         0.4918 
     21 O          20.2656  -23.7180  -47.5733 O.2       2 UNK        -0.4875 
     22 CA         17.9189  -23.9850  -47.1609 C.3       2 UNK         0.0481 
     23 CB         17.5421  -24.3115  -48.6163 C.3       2 UNK        -0.1831 
     24 N          17.0083  -24.7117  -46.2684 N.am      2 UNK        -0.4498 
     25 C          16.6692  -24.3199  -45.0330 C.2       1 UNK         0.5027 
     26 O          17.0682  -23.2756  -44.5106 O.2       1 UNK        -0.4969 
     27 C          21.0356  -26.1781  -44.1861 C.2       3 UNK         0.5005 
     28 O          19.9733  -26.3243  -43.5776 O.2       3 UNK        -0.5279 
     29 N          22.2439  -26.3651  -43.6436 N.am      4 UNK        -0.4463 
     30 CA         22.5203  -26.8211  -42.2821 C.3       4 UNK         0.0283 
     31 CB         22.1876  -25.7227  -41.2500 C.3       4 UNK        -0.1875 
     32 C          23.9887  -27.2656  -42.2332 C.2       4 UNK         0.4949 
     33 O          24.7916  -26.6840  -41.5030 O.2       4 UNK        -0.5039 
     34 N          24.3272  -28.2484  -43.0802 N.am      5 UNK        -0.4663 
     35 CA         25.6960  -28.7229  -43.3235 C.3       5 UNK         0.0242 
     36 CB         25.6801  -29.6905  -44.5187 C.3       5 UNK        -0.1982 
     37 C          26.3778  -29.3853  -42.1118 C.2       5 UNK         0.5017 
     38 O          27.6059  -29.3588  -42.0236 O.2       5 UNK        -0.5012 
     39 N          25.5786  -29.9651  -41.2122 N.am      6 UNK        -0.4439 
     40 CA         25.9902  -30.6271  -39.9797 C.3       6 UNK         0.0297 
     41 CB         26.5912  -32.0117  -40.2950 C.3       6 UNK        -0.2006 
     42 C          24.7499  -30.7663  -39.0932 C.2       6 UNK         0.4892 
     43 O          23.6310  -30.6758  -39.6041 O.2       6 UNK        -0.5089 
     44 N          24.9583  -31.0458  -37.7999 N.am      7 UNK        -0.4243 
     45 CA         23.8875  -31.3199  -36.8312 C.3       7 UNK         0.0196 
     46 CB         24.4845  -31.3937  -35.4166 C.3       7 UNK        -0.2007 
     47 C          23.0892  -32.5996  -37.1483 C.2       7 UNK         0.5020 
     48 O          21.8997  -32.6657  -36.8404 O.2       7 UNK        -0.5147 
     49 N          23.7528  -33.5782  -37.7792 N.am      8 UNK        -0.4734 
     50 CA         23.1440  -34.8052  -38.3028 C.3       8 UNK         0.0238 
     51 CB         24.2038  -35.9206  -38.2958 C.3       8 UNK        -0.1912 
     52 C          22.5525  -34.6310  -39.7167 C.2       8 UNK         0.5038 
     53 O          21.9180  -35.5627  -40.2125 O.2       8 UNK        -0.5046 
     54 N          22.7848  -33.4687  -40.3444 N.am      9 UNK        -0.4200 
     55 CA         22.3396  -33.0847  -41.6952 C.3       9 UNK         0.0839 
     56 C          22.9797  -33.8967  -42.8614 C.2       9 UNK         0.5513 
     57 N          24.0554  -34.6422  -42.6381 N.am      9 UNK        -0.7519 
     58 O          22.5194  -33.8221  -43.9976 O.2       9 UNK        -0.4960 
     59 C59        20.7932  -32.9671  -41.8208 C.3       10 UNK        -0.0876 
     60 S60        20.0429  -31.8937  -40.5463 S.3       10 UNK        -0.2414 
     61 C61        20.4395  -30.2278  -41.1672 C.3       10 UNK         0.0169 
     62 H62        13.4668  -23.3198  -41.6149 H         1 UNK         0.0903 
     63 H63        13.0750  -22.0494  -42.7755 H         1 UNK         0.0903 
     64 H64        12.0172  -23.4540  -42.6122 H         1 UNK         0.0903 
     65 H65        15.1379  -24.6274  -42.3388 H         1 UNK         0.3096 
     66 H66        15.1587  -25.8457  -44.9403 H         1 UNK         0.1121 
     67 H67        17.3959  -26.7590  -44.1667 H         1 UNK         0.0849 
     68 H68        17.2787  -25.8049  -42.7205 H         1 UNK         0.0849 
     69 H69        15.6640  -29.9741  -43.2650 H         1 UNK         0.0865 
     70 H70        15.8086  -28.9618  -44.6790 H         1 UNK         0.0865 
     71 H71        17.7985  -29.7071  -41.5462 H         1 UNK         0.1346 
     72 H72        21.5026  -30.0512  -43.6765 H         1 UNK         0.1412 
     73 H73        17.8941  -29.1144  -45.7918 H         1 UNK         0.1426 
     74 H74        20.2740  -30.4050  -46.7705 H         1 UNK         0.0716 
     75 H75        21.6382  -29.6264  -46.0146 H         1 UNK         0.0716 
     76 H76        22.3715  -27.3831  -46.2409 H         1 UNK         0.0695 
     77 H77        21.8731  -26.3612  -47.5414 H         1 UNK         0.0695 
     78 H78        21.7244  -24.8992  -45.7192 H         1 UNK         0.0983 
     79 H79        18.9589  -25.6177  -45.4179 H         1 UNK         0.3095 
     80 H80        17.7840  -22.9118  -47.0113 H         1 UNK         0.0454 
     81 H81        18.1579  -23.7464  -49.3174 H         1 UNK         0.0851 
     82 H82        17.6816  -25.3696  -48.8421 H         1 UNK         0.0851 
     83 H83        16.5032  -24.0560  -48.8255 H         1 UNK         0.0851 
     84 H84        16.6471  -25.5870  -46.6216 H         1 UNK         0.2976 
     85 H85        23.0653  -26.2061  -44.2128 H         1 UNK         0.3116 
     86 H86        21.9029  -27.6955  -42.0689 H         1 UNK         0.0646 
     87 H87        22.4341  -26.0503  -40.2393 H         1 UNK         0.0847 
     88 H88        21.1261  -25.4756  -41.2550 H         1 UNK         0.0847 
     89 H89        22.7458  -24.8060  -41.4432 H         1 UNK         0.0847 
     90 H90        23.6036  -28.6578  -43.6524 H         1 UNK         0.3040 
     91 H91        26.3028  -27.8555  -43.5933 H         1 UNK         0.1015 
     92 H92        25.2959  -29.2078  -45.4176 H         1 UNK         0.0786 
     93 H93        25.0663  -30.5700  -44.3189 H         1 UNK         0.0786 
     94 H94        26.6868  -30.0427  -44.7493 H         1 UNK         0.0786 
     95 H95        24.5738  -29.9031  -41.3247 H         1 UNK         0.3172 
     96 H96        26.7243  -30.0050  -39.4637 H         1 UNK         0.0595 
     97 H97        27.4829  -31.9274  -40.9163 H         1 UNK         0.0839 
     98 H98        25.8800  -32.6488  -40.8222 H         1 UNK         0.0839 
     99 H99        26.8882  -32.5332  -39.3845 H         1 UNK         0.0839 
    100 H100       25.9073  -31.1002  -37.4571 H         1 UNK         0.2998 
    101 H101       23.1860  -30.4832  -36.8642 H         1 UNK         0.0822 
    102 H102       24.9799  -30.4612  -35.1452 H         1 UNK         0.0787 
    103 H103       23.7056  -31.5723  -34.6738 H         1 UNK         0.0787 
    104 H104       25.2123  -32.2011  -35.3256 H         1 UNK         0.0787 
    105 H105       24.7362  -33.4438  -37.9643 H         1 UNK         0.3055 
    106 H106       22.3237  -35.1079  -37.6478 H         1 UNK         0.1106 
    107 H107       25.0475  -35.6836  -38.9450 H         1 UNK         0.0828 
    108 H108       24.5907  -36.0934  -37.2913 H         1 UNK         0.0828 
    109 H109       23.7815  -36.8649  -38.6428 H         1 UNK         0.0828 
    110 H110       23.2570  -32.7336  -39.8347 H         1 UNK         0.2931 
    111 H111       22.7420  -32.0819  -41.8373 H         1 UNK         0.0412 
    112 H112       24.4677  -35.1530  -43.4030 H         1 UNK         0.3472 
    113 H113       24.4440  -34.7174  -41.7128 H         1 UNK         0.3472 
    114 H114       20.3348  -33.9540  -41.7423 H         1 UNK         0.0970 
    115 H115       20.5094  -32.5907  -42.8044 H         1 UNK         0.0970 
    116 H116       21.5195  -30.1275  -41.2776 H         1 UNK         0.0612 
    117 H117       20.1450  -29.4953  -40.4145 H         1 UNK         0.0612 
@<TRIPOS>BOND
     1    1    2 1    
     2    1   62 1    
     3    1   63 1    
     4    1   64 1    
     5    2    3 2    
     6    2    4 am   BACKBONE|DICT|INTERRES
     7    4    5 1    
     8    4   65 1    
     9    5    6 1    
    10    5   25 1    
    11    5   66 1    
    12    6    7 1    
    13    6   67 1    
    14    6   68 1    
    15    7    8 1    
    16    8    9 1    
    17    8   69 1    
    18    8   70 1    
    19    9   10 ar   
    20    9   14 ar   
    21   10   11 ar   
    22   10   71 1    
    23   11   12 ar   
    24   11   61 1    
    25   12   13 ar   
    26   12   72 1    
    27   13   14 ar   
    28   13   15 1    
    29   14   73 1    
    30   15   16 1    
    31   15   74 1    
    32   15   75 1    
    33   16   17 1    
    34   17   18 1    
    35   17   76 1    
    36   17   77 1    
    37   18   19 1    
    38   18   27 1    
    39   18   78 1    
    40   19   20 am   BACKBONE|DICT|INTERRES
    41   19   79 1    
    42   20   21 2    
    43   20   22 1    
    44   22   23 1    
    45   22   24 1    
    46   22   80 1    
    47   23   81 1    
    48   23   82 1    
    49   23   83 1    
    50   24   25 am   BACKBONE|DICT|INTERRES
    51   24   84 1    
    52   25   26 2    
    53   27   28 2    
    54   27   29 am   BACKBONE|DICT|INTERRES
    55   29   30 1    
    56   29   85 1    
    57   30   31 1    
    58   30   32 1    
    59   30   86 1    
    60   31   87 1    
    61   31   88 1    
    62   31   89 1    
    63   32   33 2    
    64   32   34 am   BACKBONE|DICT|INTERRES
    65   34   35 1    
    66   34   90 1    
    67   35   36 1    
    68   35   37 1    
    69   35   91 1    
    70   36   92 1    
    71   36   93 1    
    72   36   94 1    
    73   37   38 2    
    74   37   39 am   BACKBONE|DICT|INTERRES
    75   39   40 1    
    76   39   95 1    
    77   40   41 1    
    78   40   42 1    
    79   40   96 1    
    80   41   97 1    
    81   41   98 1    
    82   41   99 1    
    83   42   43 2    
    84   42   44 am   BACKBONE|DICT|INTERRES
    85   44   45 1    
    86   44  100 1    
    87   45   46 1    
    88   45   47 1    
    89   45  101 1    
    90   46  102 1    
    91   46  103 1    
    92   46  104 1    
    93   47   48 2    
    94   47   49 am   BACKBONE|DICT|INTERRES
    95   49   50 1    
    96   49  105 1    
    97   50   51 1    
    98   50   52 1    
    99   50  106 1    
   100   51  107 1    
   101   51  108 1    
   102   51  109 1    
   103   52   53 2    
   104   52   54 am   BACKBONE|DICT|INTERRES
   105   54   55 1    
   106   54  110 1    
   107   55   56 1    
   108   55   59 1    
   109   55  111 1    
   110   56   57 am   BACKBONE|DICT|INTERRES
   111   56   58 2    
   112   57  112 1    
   113   57  113 1    
   114   59   60 1    
   115   59  114 1    
   116   59  115 1    
   117   60   61 1    
   118   61  116 1    
   119   61  117 1    
@<TRIPOS>SUBSTRUCTURE
     1 UNK         1 GROUP             0       ****    0 ROOT    
