@<TRIPOS>MOLECULE
3R8
117   119    1
SMALL
USER_CHARGES


@<TRIPOS>ATOM
      1 CA         14.1710  -24.5062  -42.1396 C.3       0 UNK        -0.2013 
      2 C          14.7499  -24.8229  -43.5105 C.2       0 UNK         0.4866 
      3 O          14.4130  -24.1528  -44.4875 O.2       0 UNK        -0.5176 
      4 N          15.6101  -25.8450  -43.5926 N.am      1 UNK        -0.4884 
      5 CA         16.2996  -26.2650  -44.8174 C.3       1 UNK         0.0853 
      6 C6         16.9684  -27.6539  -44.6537 C.3       10 UNK        -0.0849 
      7 S7         15.7893  -28.9770  -44.2199 S.3       10 UNK        -0.2776 
      8 C8         16.8378  -30.4616  -44.3811 C.3       10 UNK         0.0316 
      9 C9         18.0101  -30.4391  -43.4093 C.ar      10 UNK        -0.0863 
     10 C10        17.8097  -30.7340  -42.0592 C.ar      10 UNK        -0.1009 
     11 C11        18.8785  -30.6940  -41.1602 C.ar      10 UNK        -0.0712 
     12 C12        20.1506  -30.3337  -41.6180 C.ar      10 UNK        -0.0894 
     13 C13        20.3742  -30.0477  -42.9686 C.ar      10 UNK        -0.0745 
     14 C14        19.2945  -30.1214  -43.8607 C.ar      10 UNK        -0.0972 
     15 C15        21.7981  -29.6845  -43.4049 C.3       10 UNK         0.0209 
     16 S16        21.9761  -29.0063  -45.0947 S.3       10 UNK        -0.2568 
     17 C17        21.0135  -27.4629  -44.9576 C.3       10 UNK        -0.0983 
     18 CA         21.6845  -26.2446  -45.6484 C.3       3 UNK         0.0876 
     19 N          20.6825  -25.2491  -46.0162 N.am      3 UNK        -0.4424 
     20 C          19.9067  -25.3123  -47.1006 C.2       2 UNK         0.4918 
     21 O          20.0449  -26.1435  -47.9999 O.2       2 UNK        -0.4875 
     22 CA         18.7038  -24.3561  -47.1282 C.3       2 UNK         0.0481 
     23 CB         18.3544  -23.9029  -48.5568 C.3       2 UNK        -0.1831 
     24 N          17.5578  -25.0571  -46.5459 N.am      2 UNK        -0.4498 
     25 C          17.3671  -25.2308  -45.2306 C.2       1 UNK         0.5027 
     26 O          18.0389  -24.6658  -44.3626 O.2       1 UNK        -0.4969 
     27 C          22.7563  -25.5835  -44.7638 C.2       3 UNK         0.5005 
     28 O          22.6057  -24.4252  -44.3610 O.2       3 UNK        -0.5279 
     29 N          23.8190  -26.3439  -44.4783 N.am      4 UNK        -0.4463 
     30 CA         24.8949  -25.9926  -43.5520 C.3       4 UNK         0.0283 
     31 CB         26.0710  -26.9575  -43.7896 C.3       4 UNK        -0.1875 
     32 C          24.4359  -26.0553  -42.0832 C.2       4 UNK         0.4949 
     33 O          23.3679  -26.5915  -41.7821 O.2       4 UNK        -0.5039 
     34 N          25.2839  -25.5385  -41.1844 N.am      5 UNK        -0.4663 
     35 CA         25.0826  -25.5869  -39.7308 C.3       5 UNK         0.0242 
     36 CB         26.0480  -24.5967  -39.0583 C.3       5 UNK        -0.1982 
     37 C          25.2485  -26.9963  -39.1268 C.2       5 UNK         0.5017 
     38 O          24.7741  -27.2306  -38.0144 O.2       5 UNK        -0.5012 
     39 N          25.9236  -27.8987  -39.8532 N.am      6 UNK        -0.4439 
     40 CA         26.0966  -29.3074  -39.4988 C.3       6 UNK         0.0297 
     41 CB         27.1437  -29.9375  -40.4317 C.3       6 UNK        -0.2006 
     42 C          24.7688  -30.0755  -39.5935 C.2       6 UNK         0.4892 
     43 O          24.0095  -29.8726  -40.5441 O.2       6 UNK        -0.5089 
     44 N          24.5351  -30.9809  -38.6360 N.am      7 UNK        -0.4243 
     45 CA         23.3266  -31.8032  -38.5206 C.3       7 UNK         0.0196 
     46 CB         23.1683  -32.2553  -37.0568 C.3       7 UNK        -0.2007 
     47 C          23.2996  -32.9853  -39.5117 C.2       7 UNK         0.5020 
     48 O          23.0356  -34.1222  -39.1166 O.2       7 UNK        -0.5147 
     49 N          23.5412  -32.7037  -40.7967 N.am      8 UNK        -0.4734 
     50 CA         23.4447  -33.6513  -41.9109 C.3       8 UNK         0.0238 
     51 CB         24.4170  -33.2117  -43.0221 C.3       8 UNK        -0.1912 
     52 C          21.9868  -33.7693  -42.3989 C.2       8 UNK         0.5038 
     53 O          21.7091  -33.5500  -43.5789 O.2       8 UNK        -0.5046 
     54 N          21.0803  -34.0709  -41.4619 N.am      9 UNK        -0.4200 
     55 CA         19.6207  -34.0391  -41.6428 C.3       9 UNK         0.0839 
     56 C          19.0266  -35.2338  -42.4425 C.2       9 UNK         0.5513 
     57 N          19.7947  -36.2660  -42.7700 N.am      9 UNK        -0.7519 
     58 O          17.8437  -35.2232  -42.7729 O.2       9 UNK        -0.4960 
     59 C59        18.8693  -33.8379  -40.2941 C.3       10 UNK        -0.0876 
     60 S60        19.5856  -32.5453  -39.2131 S.3       10 UNK        -0.2414 
     61 C61        18.6595  -31.0543  -39.6982 C.3       10 UNK         0.0169 
     62 H62        14.5436  -25.1851  -41.3726 H         1 UNK         0.0903 
     63 H63        14.4325  -23.4893  -41.8481 H         1 UNK         0.0903 
     64 H64        13.0845  -24.5856  -42.1634 H         1 UNK         0.0903 
     65 H65        15.8563  -26.3600  -42.7594 H         1 UNK         0.3096 
     66 H66        15.5545  -26.3293  -45.6139 H         1 UNK         0.1121 
     67 H67        17.4733  -27.9443  -45.5774 H         1 UNK         0.0849 
     68 H68        17.7401  -27.6149  -43.8815 H         1 UNK         0.0849 
     69 H69        16.2292  -31.3478  -44.1949 H         1 UNK         0.0865 
     70 H70        17.1887  -30.5470  -45.4108 H         1 UNK         0.0865 
     71 H71        16.8195  -30.9956  -41.7116 H         1 UNK         0.1346 
     72 H72        20.9770  -30.2985  -40.9205 H         1 UNK         0.1412 
     73 H73        19.4386  -29.9221  -44.9121 H         1 UNK         0.1426 
     74 H74        22.4131  -30.5814  -43.3328 H         1 UNK         0.0716 
     75 H75        22.2209  -28.9667  -42.6997 H         1 UNK         0.0716 
     76 H76        20.7887  -27.2439  -43.9113 H         1 UNK         0.0695 
     77 H77        20.0494  -27.6706  -45.4229 H         1 UNK         0.0695 
     78 H78        22.1842  -26.5724  -46.5632 H         1 UNK         0.0983 
     79 H79        20.5351  -24.5241  -45.3248 H         1 UNK         0.3095 
     80 H80        18.9360  -23.4673  -46.5372 H         1 UNK         0.0454 
     81 H81        18.0842  -24.7418  -49.1995 H         1 UNK         0.0851 
     82 H82        19.2018  -23.3971  -49.0212 H         1 UNK         0.0851 
     83 H83        17.5202  -23.2013  -48.5557 H         1 UNK         0.0851 
     84 H84        16.9824  -25.5766  -47.1939 H         1 UNK         0.2976 
     85 H85        23.8050  -27.3013  -44.8034 H         1 UNK         0.3116 
     86 H86        25.2206  -24.9730  -43.7692 H         1 UNK         0.0646 
     87 H87        25.8029  -27.9876  -43.5492 H         1 UNK         0.0847 
     88 H88        26.9342  -26.6935  -43.1776 H         1 UNK         0.0847 
     89 H89        26.4009  -26.9322  -44.8285 H         1 UNK         0.0847 
     90 H90        26.1366  -25.1040  -41.5094 H         1 UNK         0.3040 
     91 H91        24.0600  -25.2666  -39.5180 H         1 UNK         0.1015 
     92 H92        25.8880  -23.5797  -39.4171 H         1 UNK         0.0786 
     93 H93        27.0905  -24.8596  -39.2424 H         1 UNK         0.0786 
     94 H94        25.9022  -24.5824  -37.9771 H         1 UNK         0.0786 
     95 H95        26.2428  -27.6174  -40.7672 H         1 UNK         0.3172 
     96 H96        26.4674  -29.3570  -38.4727 H         1 UNK         0.0595 
     97 H97        26.8265  -29.9063  -41.4752 H         1 UNK         0.0839 
     98 H98        27.3149  -30.9842  -40.1763 H         1 UNK         0.0839 
     99 H99        28.1037  -29.4264  -40.3562 H         1 UNK         0.0839 
    100 H100       25.2355  -31.1172  -37.9210 H         1 UNK         0.2998 
    101 H101       22.4643  -31.1775  -38.7624 H         1 UNK         0.0822 
    102 H102       23.1346  -31.4023  -36.3787 H         1 UNK         0.0787 
    103 H103       22.2394  -32.8107  -36.9180 H         1 UNK         0.0787 
    104 H104       23.9874  -32.9038  -36.7434 H         1 UNK         0.0787 
    105 H105       23.7082  -31.7286  -41.0306 H         1 UNK         0.3055 
    106 H106       23.7528  -34.6431  -41.5718 H         1 UNK         0.1106 
    107 H107       24.3965  -33.9112  -43.8588 H         1 UNK         0.0828 
    108 H108       24.1672  -32.2258  -43.4149 H         1 UNK         0.0828 
    109 H109       25.4437  -33.1754  -42.6577 H         1 UNK         0.0828 
    110 H110       21.4088  -34.2285  -40.5171 H         1 UNK         0.2931 
    111 H111       19.4104  -33.1645  -42.2589 H         1 UNK         0.0412 
    112 H112       20.7674  -36.2801  -42.5085 H         1 UNK         0.3472 
    113 H113       19.3986  -37.0332  -43.2904 H         1 UNK         0.3472 
    114 H114       17.8189  -33.6036  -40.4768 H         1 UNK         0.0970 
    115 H115       18.8719  -34.7692  -39.7248 H         1 UNK         0.0970 
    116 H116       17.6005  -31.2077  -39.4848 H         1 UNK         0.0612 
    117 H117       18.9829  -30.2205  -39.0738 H         1 UNK         0.0612 
@<TRIPOS>BOND
     1    1    2 1    
     2    1   62 1    
     3    1   63 1    
     4    1   64 1    
     5    2    3 2    
     6    2    4 am   BACKBONE|DICT|INTERRES
     7    4    5 1    
     8    4   65 1    
     9    5    6 1    
    10    5   25 1    
    11    5   66 1    
    12    6    7 1    
    13    6   67 1    
    14    6   68 1    
    15    7    8 1    
    16    8    9 1    
    17    8   69 1    
    18    8   70 1    
    19    9   10 ar   
    20    9   14 ar   
    21   10   11 ar   
    22   10   71 1    
    23   11   12 ar   
    24   11   61 1    
    25   12   13 ar   
    26   12   72 1    
    27   13   14 ar   
    28   13   15 1    
    29   14   73 1    
    30   15   16 1    
    31   15   74 1    
    32   15   75 1    
    33   16   17 1    
    34   17   18 1    
    35   17   76 1    
    36   17   77 1    
    37   18   19 1    
    38   18   27 1    
    39   18   78 1    
    40   19   20 am   BACKBONE|DICT|INTERRES
    41   19   79 1    
    42   20   21 2    
    43   20   22 1    
    44   22   23 1    
    45   22   24 1    
    46   22   80 1    
    47   23   81 1    
    48   23   82 1    
    49   23   83 1    
    50   24   25 am   BACKBONE|DICT|INTERRES
    51   24   84 1    
    52   25   26 2    
    53   27   28 2    
    54   27   29 am   BACKBONE|DICT|INTERRES
    55   29   30 1    
    56   29   85 1    
    57   30   31 1    
    58   30   32 1    
    59   30   86 1    
    60   31   87 1    
    61   31   88 1    
    62   31   89 1    
    63   32   33 2    
    64   32   34 am   BACKBONE|DICT|INTERRES
    65   34   35 1    
    66   34   90 1    
    67   35   36 1    
    68   35   37 1    
    69   35   91 1    
    70   36   92 1    
    71   36   93 1    
    72   36   94 1    
    73   37   38 2    
    74   37   39 am   BACKBONE|DICT|INTERRES
    75   39   40 1    
    76   39   95 1    
    77   40   41 1    
    78   40   42 1    
    79   40   96 1    
    80   41   97 1    
    81   41   98 1    
    82   41   99 1    
    83   42   43 2    
    84   42   44 am   BACKBONE|DICT|INTERRES
    85   44   45 1    
    86   44  100 1    
    87   45   46 1    
    88   45   47 1    
    89   45  101 1    
    90   46  102 1    
    91   46  103 1    
    92   46  104 1    
    93   47   48 2    
    94   47   49 am   BACKBONE|DICT|INTERRES
    95   49   50 1    
    96   49  105 1    
    97   50   51 1    
    98   50   52 1    
    99   50  106 1    
   100   51  107 1    
   101   51  108 1    
   102   51  109 1    
   103   52   53 2    
   104   52   54 am   BACKBONE|DICT|INTERRES
   105   54   55 1    
   106   54  110 1    
   107   55   56 1    
   108   55   59 1    
   109   55  111 1    
   110   56   57 am   BACKBONE|DICT|INTERRES
   111   56   58 2    
   112   57  112 1    
   113   57  113 1    
   114   59   60 1    
   115   59  114 1    
   116   59  115 1    
   117   60   61 1    
   118   61  116 1    
   119   61  117 1    
@<TRIPOS>SUBSTRUCTURE
     1 UNK         1 GROUP             0       ****    0 ROOT    
