@<TRIPOS>MOLECULE
3R8
117   119    1
SMALL
USER_CHARGES


@<TRIPOS>ATOM
      1 CA         14.3928  -22.6379  -46.5844 C.3       0 UNK        -0.2013 
      2 C          15.3916  -23.7112  -46.1797 C.2       0 UNK         0.4866 
      3 O          15.6321  -24.6467  -46.9445 O.2       0 UNK        -0.5176 
      4 N          15.9849  -23.5866  -44.9851 N.am      1 UNK        -0.4884 
      5 CA         16.9881  -24.5074  -44.4405 C.3       1 UNK         0.0853 
      6 C6         16.9764  -24.4910  -42.8891 C.3       10 UNK        -0.0849 
      7 S7         17.7917  -25.9596  -42.1781 S.3       10 UNK        -0.2776 
      8 C8         16.4167  -27.1501  -42.0947 C.3       10 UNK         0.0316 
      9 C9         16.8977  -28.5377  -42.4862 C.ar      10 UNK        -0.0863 
     10 C10        17.3163  -29.4496  -41.5116 C.ar      10 UNK        -0.1009 
     11 C11        17.7845  -30.7152  -41.8804 C.ar      10 UNK        -0.0712 
     12 C12        17.8388  -31.0606  -43.2339 C.ar      10 UNK        -0.0894 
     13 C13        17.4460  -30.1491  -44.2176 C.ar      10 UNK        -0.0745 
     14 C14        16.9498  -28.8990  -43.8354 C.ar      10 UNK        -0.0972 
     15 C15        17.6036  -30.5054  -45.6913 C.3       10 UNK         0.0209 
     16 S16        18.5972  -29.2866  -46.6231 S.3       10 UNK        -0.2568 
     17 C17        20.0446  -29.0283  -45.5340 C.3       10 UNK        -0.0983 
     18 CA         20.9884  -27.9008  -46.0281 C.3       3 UNK         0.0876 
     19 N          20.2455  -26.6695  -46.3116 N.am      3 UNK        -0.4424 
     20 C          20.7046  -25.5986  -46.9706 C.2       2 UNK         0.4918 
     21 O          21.8349  -25.5269  -47.4553 O.2       2 UNK        -0.4875 
     22 CA         19.7316  -24.4161  -47.1541 C.3       2 UNK         0.0481 
     23 CB         19.3466  -24.2628  -48.6349 C.3       2 UNK        -0.1831 
     24 N          18.5034  -24.5450  -46.3625 N.am      2 UNK        -0.4498 
     25 C          18.3754  -24.2299  -45.0667 C.2       1 UNK         0.5027 
     26 O          19.2761  -23.7200  -44.3984 O.2       1 UNK        -0.4969 
     27 C          22.1122  -27.6604  -44.9955 C.2       3 UNK         0.5005 
     28 O          22.1070  -26.6472  -44.2891 O.2       3 UNK        -0.5279 
     29 N          23.0345  -28.6265  -44.8795 N.am      4 UNK        -0.4463 
     30 CA         24.1407  -28.6386  -43.9147 C.3       4 UNK         0.0283 
     31 CB         25.2157  -29.6305  -44.3980 C.3       4 UNK        -0.1875 
     32 C          23.6705  -28.9420  -42.4759 C.2       4 UNK         0.4949 
     33 O          24.1274  -29.9071  -41.8647 O.2       4 UNK        -0.5039 
     34 N          22.7697  -28.1036  -41.9497 N.am      5 UNK        -0.4663 
     35 CA         22.1487  -28.2247  -40.6245 C.3       5 UNK         0.0242 
     36 CB         20.9492  -27.2683  -40.5471 C.3       5 UNK        -0.1982 
     37 C          23.1079  -28.0203  -39.4362 C.2       5 UNK         0.5017 
     38 O          22.7348  -28.3224  -38.3024 O.2       5 UNK        -0.5012 
     39 N          24.3261  -27.5329  -39.7094 N.am      6 UNK        -0.4439 
     40 CA         25.4460  -27.5003  -38.7658 C.3       6 UNK         0.0297 
     41 CB         26.5244  -26.5443  -39.3013 C.3       6 UNK        -0.2006 
     42 C          26.0486  -28.8957  -38.4986 C.2       6 UNK         0.4892 
     43 O          26.7214  -29.0682  -37.4812 O.2       6 UNK        -0.5089 
     44 N          25.8092  -29.8524  -39.4056 N.am      7 UNK        -0.4243 
     45 CA         26.2018  -31.2551  -39.2960 C.3       7 UNK         0.0196 
     46 CB         26.8969  -31.6640  -40.6094 C.3       7 UNK        -0.2007 
     47 C          24.9584  -32.1198  -39.0220 C.2       7 UNK         0.5020 
     48 O          23.8602  -31.5954  -38.8192 O.2       7 UNK        -0.5147 
     49 N          25.1451  -33.4454  -39.0196 N.am      8 UNK        -0.4734 
     50 CA         24.0802  -34.4419  -38.8777 C.3       8 UNK         0.0238 
     51 CB         24.7066  -35.7871  -38.4646 C.3       8 UNK        -0.1912 
     52 C          23.2516  -34.5534  -40.1727 C.2       8 UNK         0.5038 
     53 O          23.4491  -35.4880  -40.9517 O.2       8 UNK        -0.5046 
     54 N          22.3672  -33.5736  -40.3908 N.am      9 UNK        -0.4200 
     55 CA         21.4868  -33.4565  -41.5634 C.3       9 UNK         0.0839 
     56 C          20.3730  -34.5373  -41.6908 C.2       9 UNK         0.5513 
     57 N          20.0955  -35.3358  -40.6671 N.am      9 UNK        -0.7519 
     58 O          19.7518  -34.6523  -42.7441 O.2       9 UNK        -0.4960 
     59 C59        20.9222  -32.0183  -41.7064 C.3       10 UNK        -0.0876 
     60 S60        19.9388  -31.4484  -40.2705 S.3       10 UNK        -0.2414 
     61 C61        18.2208  -31.7143  -40.8181 C.3       10 UNK         0.0169 
     62 H62        13.4167  -23.0854  -46.7697 H         1 UNK         0.0903 
     63 H63        14.2760  -21.8769  -45.8130 H         1 UNK         0.0903 
     64 H64        14.7216  -22.1461  -47.4995 H         1 UNK         0.0903 
     65 H65        15.7759  -22.7798  -44.4130 H         1 UNK         0.3096 
     66 H66        16.7046  -25.5169  -44.7481 H         1 UNK         0.1121 
     67 H67        17.4565  -23.5917  -42.4984 H         1 UNK         0.0849 
     68 H68        15.9509  -24.4591  -42.5169 H         1 UNK         0.0849 
     69 H69        16.0018  -27.1545  -41.0856 H         1 UNK         0.0865 
     70 H70        15.6053  -26.8470  -42.7583 H         1 UNK         0.0865 
     71 H71        17.2863  -29.1732  -40.4663 H         1 UNK         0.1346 
     72 H72        18.2056  -32.0365  -43.5219 H         1 UNK         0.1412 
     73 H73        16.6454  -28.1913  -44.5942 H         1 UNK         0.1426 
     74 H74        16.6160  -30.5812  -46.1478 H         1 UNK         0.0716 
     75 H75        18.0711  -31.4849  -45.8031 H         1 UNK         0.0716 
     76 H76        20.5788  -29.9767  -45.4542 H         1 UNK         0.0695 
     77 H77        19.6929  -28.7902  -44.5286 H         1 UNK         0.0695 
     78 H78        21.4573  -28.2216  -46.9610 H         1 UNK         0.0983 
     79 H79        19.3053  -26.6357  -45.9509 H         1 UNK         0.3095 
     80 H80        20.2569  -23.5100  -46.8454 H         1 UNK         0.0454 
     81 H81        20.2311  -24.1215  -49.2575 H         1 UNK         0.0851 
     82 H82        18.7027  -23.3970  -48.7902 H         1 UNK         0.0851 
     83 H83        18.8221  -25.1430  -49.0089 H         1 UNK         0.0851 
     84 H84        17.6748  -24.8777  -46.8465 H         1 UNK         0.2976 
     85 H85        22.9535  -29.4434  -45.4684 H         1 UNK         0.3116 
     86 H86        24.5940  -27.6452  -43.8990 H         1 UNK         0.0646 
     87 H87        26.0756  -29.6329  -43.7264 H         1 UNK         0.0847 
     88 H88        25.5844  -29.3671  -45.3894 H         1 UNK         0.0847 
     89 H89        24.8348  -30.6517  -44.4399 H         1 UNK         0.0847 
     90 H90        22.4374  -27.3516  -42.5500 H         1 UNK         0.3040 
     91 H91        21.7737  -29.2440  -40.5322 H         1 UNK         0.1015 
     92 H92        20.4448  -27.3447  -39.5829 H         1 UNK         0.0786 
     93 H93        20.2115  -27.5081  -41.3132 H         1 UNK         0.0786 
     94 H94        21.2497  -26.2285  -40.6810 H         1 UNK         0.0786 
     95 H95        24.5257  -27.2887  -40.6684 H         1 UNK         0.3172 
     96 H96        25.0833  -27.1087  -37.8131 H         1 UNK         0.0595 
     97 H97        26.9275  -26.8824  -40.2568 H         1 UNK         0.0839 
     98 H98        27.3604  -26.4708  -38.6040 H         1 UNK         0.0839 
     99 H99        26.1309  -25.5369  -39.4384 H         1 UNK         0.0839 
    100 H100       25.1755  -29.6526  -40.1734 H         1 UNK         0.2998 
    101 H101       26.8985  -31.3955  -38.4671 H         1 UNK         0.0822 
    102 H102       27.7221  -30.9914  -40.8445 H         1 UNK         0.0787 
    103 H103       26.2058  -31.6481  -41.4535 H         1 UNK         0.0787 
    104 H104       27.3154  -32.6688  -40.5470 H         1 UNK         0.0787 
    105 H105       26.0699  -33.8031  -39.2118 H         1 UNK         0.3055 
    106 H106       23.4061  -34.1296  -38.0764 H         1 UNK         0.1106 
    107 H107       25.4229  -36.1476  -39.2041 H         1 UNK         0.0828 
    108 H108       25.2239  -35.7067  -37.5084 H         1 UNK         0.0828 
    109 H109       23.9402  -36.5553  -38.3526 H         1 UNK         0.0828 
    110 H110       22.3315  -32.8060  -39.7301 H         1 UNK         0.2931 
    111 H111       22.1297  -33.6167  -42.4311 H         1 UNK         0.0412 
    112 H112       20.5944  -35.2427  -39.7974 H         1 UNK         0.3472 
    113 H113       19.3750  -36.0338  -40.7651 H         1 UNK         0.3472 
    114 H114       21.7556  -31.3252  -41.8235 H         1 UNK         0.0970 
    115 H115       20.3492  -31.9195  -42.6270 H         1 UNK         0.0970 
    116 H116       17.5652  -31.6270  -39.9506 H         1 UNK         0.0612 
    117 H117       18.1026  -32.7360  -41.1806 H         1 UNK         0.0612 
@<TRIPOS>BOND
     1    1    2 1    
     2    1   62 1    
     3    1   63 1    
     4    1   64 1    
     5    2    3 2    
     6    2    4 am   BACKBONE|DICT|INTERRES
     7    4    5 1    
     8    4   65 1    
     9    5    6 1    
    10    5   25 1    
    11    5   66 1    
    12    6    7 1    
    13    6   67 1    
    14    6   68 1    
    15    7    8 1    
    16    8    9 1    
    17    8   69 1    
    18    8   70 1    
    19    9   10 ar   
    20    9   14 ar   
    21   10   11 ar   
    22   10   71 1    
    23   11   12 ar   
    24   11   61 1    
    25   12   13 ar   
    26   12   72 1    
    27   13   14 ar   
    28   13   15 1    
    29   14   73 1    
    30   15   16 1    
    31   15   74 1    
    32   15   75 1    
    33   16   17 1    
    34   17   18 1    
    35   17   76 1    
    36   17   77 1    
    37   18   19 1    
    38   18   27 1    
    39   18   78 1    
    40   19   20 am   BACKBONE|DICT|INTERRES
    41   19   79 1    
    42   20   21 2    
    43   20   22 1    
    44   22   23 1    
    45   22   24 1    
    46   22   80 1    
    47   23   81 1    
    48   23   82 1    
    49   23   83 1    
    50   24   25 am   BACKBONE|DICT|INTERRES
    51   24   84 1    
    52   25   26 2    
    53   27   28 2    
    54   27   29 am   BACKBONE|DICT|INTERRES
    55   29   30 1    
    56   29   85 1    
    57   30   31 1    
    58   30   32 1    
    59   30   86 1    
    60   31   87 1    
    61   31   88 1    
    62   31   89 1    
    63   32   33 2    
    64   32   34 am   BACKBONE|DICT|INTERRES
    65   34   35 1    
    66   34   90 1    
    67   35   36 1    
    68   35   37 1    
    69   35   91 1    
    70   36   92 1    
    71   36   93 1    
    72   36   94 1    
    73   37   38 2    
    74   37   39 am   BACKBONE|DICT|INTERRES
    75   39   40 1    
    76   39   95 1    
    77   40   41 1    
    78   40   42 1    
    79   40   96 1    
    80   41   97 1    
    81   41   98 1    
    82   41   99 1    
    83   42   43 2    
    84   42   44 am   BACKBONE|DICT|INTERRES
    85   44   45 1    
    86   44  100 1    
    87   45   46 1    
    88   45   47 1    
    89   45  101 1    
    90   46  102 1    
    91   46  103 1    
    92   46  104 1    
    93   47   48 2    
    94   47   49 am   BACKBONE|DICT|INTERRES
    95   49   50 1    
    96   49  105 1    
    97   50   51 1    
    98   50   52 1    
    99   50  106 1    
   100   51  107 1    
   101   51  108 1    
   102   51  109 1    
   103   52   53 2    
   104   52   54 am   BACKBONE|DICT|INTERRES
   105   54   55 1    
   106   54  110 1    
   107   55   56 1    
   108   55   59 1    
   109   55  111 1    
   110   56   57 am   BACKBONE|DICT|INTERRES
   111   56   58 2    
   112   57  112 1    
   113   57  113 1    
   114   59   60 1    
   115   59  114 1    
   116   59  115 1    
   117   60   61 1    
   118   61  116 1    
   119   61  117 1    
@<TRIPOS>SUBSTRUCTURE
     1 UNK         1 GROUP             0       ****    0 ROOT    
