@<TRIPOS>MOLECULE
3R8
117   119    1
SMALL
USER_CHARGES


@<TRIPOS>ATOM
      1 CA         14.1013  -26.5100  -42.6478 C.3       0 UNK        -0.2013 
      2 C          15.5101  -26.8915  -43.0758 C.2       0 UNK         0.4866 
      3 O          15.6793  -27.6005  -44.0690 O.2       0 UNK        -0.5176 
      4 N          16.5269  -26.4220  -42.3418 N.am      1 UNK        -0.4884 
      5 CA         17.9484  -26.6992  -42.5824 C.3       1 UNK         0.0853 
      6 C6         18.7983  -26.5440  -41.2953 C.3       10 UNK        -0.0849 
      7 S7         18.3007  -27.7232  -39.9981 S.3       10 UNK        -0.2776 
      8 C8         19.5441  -29.0376  -40.2215 C.3       10 UNK         0.0316 
      9 C9         19.4044  -29.7642  -41.5550 C.ar      10 UNK        -0.0863 
     10 C10        18.2206  -30.4403  -41.8682 C.ar      10 UNK        -0.1009 
     11 C11        18.1034  -31.1513  -43.0655 C.ar      10 UNK        -0.0712 
     12 C12        19.1876  -31.1963  -43.9464 C.ar      10 UNK        -0.0894 
     13 C13        20.3851  -30.5474  -43.6355 C.ar      10 UNK        -0.0745 
     14 C14        20.4798  -29.8119  -42.4501 C.ar      10 UNK        -0.0972 
     15 C15        21.5885  -30.7065  -44.5542 C.3       10 UNK         0.0209 
     16 S16        21.5180  -29.5909  -45.9890 S.3       10 UNK        -0.2568 
     17 C17        22.3570  -28.1177  -45.3238 C.3       10 UNK        -0.0983 
     18 CA         21.9612  -26.8162  -46.0635 C.3       3 UNK         0.0876 
     19 N          20.5178  -26.5817  -45.9987 N.am      3 UNK        -0.4424 
     20 C          19.8443  -25.5877  -46.5927 C.2       2 UNK         0.4918 
     21 O          20.3495  -24.7917  -47.3843 O.2       2 UNK        -0.4875 
     22 CA         18.3562  -25.4372  -46.2164 C.3       2 UNK         0.0481 
     23 CB         17.4620  -25.9739  -47.3449 C.3       2 UNK        -0.1831 
     24 N          17.9753  -26.0873  -44.9547 N.am      2 UNK        -0.4498 
     25 C          18.4972  -25.8454  -43.7434 C.2       1 UNK         0.5027 
     26 O          19.3859  -25.0149  -43.5386 O.2       1 UNK        -0.4969 
     27 C          22.7885  -25.6413  -45.4989 C.2       3 UNK         0.5005 
     28 O          23.8928  -25.4057  -45.9918 O.2       3 UNK        -0.5279 
     29 N          22.2543  -24.9499  -44.4741 N.am      4 UNK        -0.4463 
     30 CA         22.8890  -23.8654  -43.7106 C.3       4 UNK         0.0283 
     31 CB         22.9911  -22.5881  -44.5703 C.3       4 UNK        -0.1875 
     32 C          24.2404  -24.2905  -43.0973 C.2       4 UNK         0.4949 
     33 O          25.2370  -23.5772  -43.2288 O.2       4 UNK        -0.5039 
     34 N          24.2499  -25.4712  -42.4685 N.am      5 UNK        -0.4663 
     35 CA         25.4327  -26.1373  -41.9280 C.3       5 UNK         0.0242 
     36 CB         25.9624  -27.1297  -42.9818 C.3       5 UNK        -0.1982 
     37 C          25.0781  -26.8572  -40.6202 C.2       5 UNK         0.5017 
     38 O          23.8990  -26.9639  -40.2754 O.2       5 UNK        -0.5012 
     39 N          26.1120  -27.3609  -39.9320 N.am      6 UNK        -0.4439 
     40 CA         26.0079  -28.1314  -38.6859 C.3       6 UNK         0.0297 
     41 CB         27.3757  -28.1231  -37.9817 C.3       6 UNK        -0.2006 
     42 C          25.5063  -29.5788  -38.8758 C.2       6 UNK         0.4892 
     43 O          25.2117  -30.2436  -37.8810 O.2       6 UNK        -0.5089 
     44 N          25.4311  -30.0468  -40.1299 N.am      7 UNK        -0.4243 
     45 CA         24.8491  -31.3316  -40.5272 C.3       7 UNK         0.0196 
     46 CB         25.1974  -31.5863  -42.0046 C.3       7 UNK        -0.2007 
     47 C          23.3230  -31.3666  -40.3195 C.2       7 UNK         0.5020 
     48 O          22.6989  -30.3194  -40.1432 O.2       7 UNK        -0.5147 
     49 N          22.7412  -32.5682  -40.3792 N.am      8 UNK        -0.4734 
     50 CA         21.2996  -32.7912  -40.2982 C.3       8 UNK         0.0238 
     51 CB         20.8892  -33.0387  -38.8361 C.3       8 UNK        -0.1912 
     52 C          20.9132  -33.9731  -41.1910 C.2       8 UNK         0.5038 
     53 O          21.7230  -34.8857  -41.3747 O.2       8 UNK        -0.5046 
     54 N          19.6771  -33.9441  -41.7007 N.am      9 UNK        -0.4200 
     55 CA         19.0570  -35.0236  -42.4847 C.3       9 UNK         0.0839 
     56 C          18.5912  -36.2548  -41.6515 C.2       9 UNK         0.5513 
     57 N          18.5993  -36.2079  -40.3244 N.am      9 UNK        -0.7519 
     58 O          18.2292  -37.2797  -42.2238 O.2       9 UNK        -0.4960 
     59 C59        17.9319  -34.4879  -43.4132 C.3       10 UNK        -0.0876 
     60 S60        16.6694  -33.4795  -42.5521 S.3       10 UNK        -0.2414 
     61 C61        16.8068  -31.8729  -43.4028 C.3       10 UNK         0.0169 
     62 H62        13.6023  -25.9621  -43.4466 H         1 UNK         0.0903 
     63 H63        13.5197  -27.4064  -42.4341 H         1 UNK         0.0903 
     64 H64        14.1011  -25.8849  -41.7551 H         1 UNK         0.0903 
     65 H65        16.3310  -25.8363  -41.5422 H         1 UNK         0.3096 
     66 H66        18.0393  -27.7376  -42.9080 H         1 UNK         0.1121 
     67 H67        19.8594  -26.6887  -41.5094 H         1 UNK         0.0849 
     68 H68        18.7081  -25.5325  -40.8949 H         1 UNK         0.0849 
     69 H69        20.5420  -28.6094  -40.1106 H         1 UNK         0.0865 
     70 H70        19.4381  -29.7644  -39.4150 H         1 UNK         0.0865 
     71 H71        17.3886  -30.4133  -41.1773 H         1 UNK         0.1346 
     72 H72        19.1100  -31.7534  -44.8698 H         1 UNK         0.1412 
     73 H73        21.4081  -29.3162  -42.2005 H         1 UNK         0.1426 
     74 H74        21.6272  -31.7347  -44.9173 H         1 UNK         0.0716 
     75 H75        22.5185  -30.5506  -44.0049 H         1 UNK         0.0716 
     76 H76        23.4329  -28.2902  -45.3975 H         1 UNK         0.0695 
     77 H77        22.1324  -28.0317  -44.2589 H         1 UNK         0.0695 
     78 H78        22.2266  -26.9201  -47.1179 H         1 UNK         0.0983 
     79 H79        19.9985  -27.2175  -45.4127 H         1 UNK         0.3095 
     80 H80        18.1599  -24.3694  -46.1022 H         1 UNK         0.0454 
     81 H81        17.5945  -27.0470  -47.4882 H         1 UNK         0.0851 
     82 H82        17.6934  -25.4871  -48.2935 H         1 UNK         0.0851 
     83 H83        16.4075  -25.7903  -47.1382 H         1 UNK         0.0851 
     84 H84        17.2127  -26.7585  -44.9956 H         1 UNK         0.2976 
     85 H85        21.3141  -25.1901  -44.1740 H         1 UNK         0.3116 
     86 H86        22.2245  -23.6477  -42.8730 H         1 UNK         0.0646 
     87 H87        23.6698  -22.7204  -45.4135 H         1 UNK         0.0847 
     88 H88        23.3638  -21.7492  -43.9813 H         1 UNK         0.0847 
     89 H89        22.0177  -22.2988  -44.9663 H         1 UNK         0.0847 
     90 H90        23.3777  -25.9600  -42.3154 H         1 UNK         0.3040 
     91 H91        26.2040  -25.3976  -41.7004 H         1 UNK         0.1015 
     92 H92        26.1949  -26.6217  -43.9184 H         1 UNK         0.0786 
     93 H93        25.2329  -27.9103  -43.2025 H         1 UNK         0.0786 
     94 H94        26.8783  -27.6190  -42.6489 H         1 UNK         0.0786 
     95 H95        27.0457  -27.2217  -40.2929 H         1 UNK         0.3172 
     96 H96        25.2896  -27.6280  -38.0352 H         1 UNK         0.0595 
     97 H97        28.1430  -28.6134  -38.5823 H         1 UNK         0.0839 
     98 H98        27.3272  -28.6479  -37.0264 H         1 UNK         0.0839 
     99 H99        27.7096  -27.1069  -37.7714 H         1 UNK         0.0839 
    100 H100       25.6719  -29.4140  -40.8764 H         1 UNK         0.2998 
    101 H101       25.2968  -32.1156  -39.9127 H         1 UNK         0.0822 
    102 H102       26.2761  -31.5911  -42.1628 H         1 UNK         0.0787 
    103 H103       24.8208  -32.5535  -42.3400 H         1 UNK         0.0787 
    104 H104       24.7660  -30.8257  -42.6568 H         1 UNK         0.0787 
    105 H105       23.2888  -33.3936  -40.5898 H         1 UNK         0.3055 
    106 H106       20.7752  -31.9110  -40.6673 H         1 UNK         0.1106 
    107 H107       21.3799  -33.9214  -38.4240 H         1 UNK         0.0828 
    108 H108       21.1462  -32.1878  -38.2049 H         1 UNK         0.0828 
    109 H109       19.8126  -33.1893  -38.7495 H         1 UNK         0.0828 
    110 H110       19.0746  -33.1562  -41.5084 H         1 UNK         0.2931 
    111 H111       19.8333  -35.4150  -43.1453 H         1 UNK         0.0412 
    112 H112       18.8904  -35.3732  -39.8433 H         1 UNK         0.3472 
    113 H113       18.3005  -37.0155  -39.8003 H         1 UNK         0.3472 
    114 H114       18.3810  -33.9007  -44.2131 H         1 UNK         0.0970 
    115 H115       17.4262  -35.3089  -43.9250 H         1 UNK         0.0970 
    116 H116       15.9610  -31.2485  -43.1108 H         1 UNK         0.0612 
    117 H117       16.7151  -32.0218  -44.4799 H         1 UNK         0.0612 
@<TRIPOS>BOND
     1    1    2 1    
     2    1   62 1    
     3    1   63 1    
     4    1   64 1    
     5    2    3 2    
     6    2    4 am   BACKBONE|DICT|INTERRES
     7    4    5 1    
     8    4   65 1    
     9    5    6 1    
    10    5   25 1    
    11    5   66 1    
    12    6    7 1    
    13    6   67 1    
    14    6   68 1    
    15    7    8 1    
    16    8    9 1    
    17    8   69 1    
    18    8   70 1    
    19    9   10 ar   
    20    9   14 ar   
    21   10   11 ar   
    22   10   71 1    
    23   11   12 ar   
    24   11   61 1    
    25   12   13 ar   
    26   12   72 1    
    27   13   14 ar   
    28   13   15 1    
    29   14   73 1    
    30   15   16 1    
    31   15   74 1    
    32   15   75 1    
    33   16   17 1    
    34   17   18 1    
    35   17   76 1    
    36   17   77 1    
    37   18   19 1    
    38   18   27 1    
    39   18   78 1    
    40   19   20 am   BACKBONE|DICT|INTERRES
    41   19   79 1    
    42   20   21 2    
    43   20   22 1    
    44   22   23 1    
    45   22   24 1    
    46   22   80 1    
    47   23   81 1    
    48   23   82 1    
    49   23   83 1    
    50   24   25 am   BACKBONE|DICT|INTERRES
    51   24   84 1    
    52   25   26 2    
    53   27   28 2    
    54   27   29 am   BACKBONE|DICT|INTERRES
    55   29   30 1    
    56   29   85 1    
    57   30   31 1    
    58   30   32 1    
    59   30   86 1    
    60   31   87 1    
    61   31   88 1    
    62   31   89 1    
    63   32   33 2    
    64   32   34 am   BACKBONE|DICT|INTERRES
    65   34   35 1    
    66   34   90 1    
    67   35   36 1    
    68   35   37 1    
    69   35   91 1    
    70   36   92 1    
    71   36   93 1    
    72   36   94 1    
    73   37   38 2    
    74   37   39 am   BACKBONE|DICT|INTERRES
    75   39   40 1    
    76   39   95 1    
    77   40   41 1    
    78   40   42 1    
    79   40   96 1    
    80   41   97 1    
    81   41   98 1    
    82   41   99 1    
    83   42   43 2    
    84   42   44 am   BACKBONE|DICT|INTERRES
    85   44   45 1    
    86   44  100 1    
    87   45   46 1    
    88   45   47 1    
    89   45  101 1    
    90   46  102 1    
    91   46  103 1    
    92   46  104 1    
    93   47   48 2    
    94   47   49 am   BACKBONE|DICT|INTERRES
    95   49   50 1    
    96   49  105 1    
    97   50   51 1    
    98   50   52 1    
    99   50  106 1    
   100   51  107 1    
   101   51  108 1    
   102   51  109 1    
   103   52   53 2    
   104   52   54 am   BACKBONE|DICT|INTERRES
   105   54   55 1    
   106   54  110 1    
   107   55   56 1    
   108   55   59 1    
   109   55  111 1    
   110   56   57 am   BACKBONE|DICT|INTERRES
   111   56   58 2    
   112   57  112 1    
   113   57  113 1    
   114   59   60 1    
   115   59  114 1    
   116   59  115 1    
   117   60   61 1    
   118   61  116 1    
   119   61  117 1    
@<TRIPOS>SUBSTRUCTURE
     1 UNK         1 GROUP             0       ****    0 ROOT    
