@<TRIPOS>MOLECULE
3R8
117   119    1
SMALL
USER_CHARGES


@<TRIPOS>ATOM
      1 CA         19.0479  -25.3488  -39.5489 C.3       0 UNK        -0.2013 
      2 C          18.8861  -25.5985  -41.0409 C.2       0 UNK         0.4866 
      3 O          19.8775  -25.8272  -41.7329 O.2       0 UNK        -0.5176 
      4 N          17.6418  -25.5463  -41.5363 N.am      1 UNK        -0.4884 
      5 CA         17.2596  -25.6836  -42.9486 C.3       1 UNK         0.0853 
      6 C6         17.4645  -27.1160  -43.5163 C.3       10 UNK        -0.0849 
      7 S7         16.4929  -28.3891  -42.6360 S.3       10 UNK        -0.2776 
      8 C8         16.2265  -29.6416  -43.9377 C.3       10 UNK         0.0316 
      9 C9         17.5271  -30.3123  -44.3621 C.ar      10 UNK        -0.0863 
     10 C10        17.9357  -31.5197  -43.7824 C.ar      10 UNK        -0.1009 
     11 C11        19.1420  -32.1187  -44.1669 C.ar      10 UNK        -0.0712 
     12 C12        19.9448  -31.4919  -45.1261 C.ar      10 UNK        -0.0894 
     13 C13        19.5588  -30.2732  -45.6861 C.ar      10 UNK        -0.0745 
     14 C14        18.3339  -29.7099  -45.3306 C.ar      10 UNK        -0.0972 
     15 C15        20.4990  -29.5137  -46.6026 C.3       10 UNK         0.0209 
     16 S16        21.6318  -28.5245  -45.5828 S.3       10 UNK        -0.2568 
     17 C17        22.3293  -27.3560  -46.7956 C.3       10 UNK        -0.0983 
     18 CA         22.6241  -25.9521  -46.1954 C.3       3 UNK         0.0876 
     19 N          21.4280  -25.2779  -45.6889 N.am      3 UNK        -0.4424 
     20 C          20.5130  -24.6793  -46.4580 C.2       2 UNK         0.4918 
     21 O          20.5578  -24.6810  -47.6896 O.2       2 UNK        -0.4875 
     22 CA         19.3535  -23.9760  -45.7343 C.3       2 UNK         0.0481 
     23 CB         18.3383  -23.3378  -46.7077 C.3       2 UNK        -0.1831 
     24 N          18.6804  -24.9132  -44.8349 N.am      2 UNK        -0.4498 
     25 C          17.9128  -24.5616  -43.7930 C.2       1 UNK         0.5027 
     26 O          17.6962  -23.3884  -43.4787 O.2       1 UNK        -0.4969 
     27 C          23.6892  -25.9966  -45.0846 C.2       3 UNK         0.5005 
     28 O          23.3733  -25.7699  -43.9120 O.2       3 UNK        -0.5279 
     29 N          24.9286  -26.3306  -45.4714 N.am      4 UNK        -0.4463 
     30 CA         26.0949  -26.4478  -44.5879 C.3       4 UNK         0.0283 
     31 CB         27.3597  -26.6115  -45.4471 C.3       4 UNK        -0.1875 
     32 C          26.0054  -27.5807  -43.5464 C.2       4 UNK         0.4949 
     33 O          26.7607  -27.5544  -42.5746 O.2       4 UNK        -0.5039 
     34 N          25.0928  -28.5440  -43.7470 N.am      5 UNK        -0.4663 
     35 CA         24.8124  -29.6292  -42.8007 C.3       5 UNK         0.0242 
     36 CB         24.0070  -30.7322  -43.5067 C.3       5 UNK        -0.1982 
     37 C          24.0806  -29.1601  -41.5292 C.2       5 UNK         0.5017 
     38 O          24.0728  -29.9003  -40.5451 O.2       5 UNK        -0.5012 
     39 N          23.4690  -27.9632  -41.5692 N.am      6 UNK        -0.4439 
     40 CA         22.7975  -27.2718  -40.4585 C.3       6 UNK         0.0297 
     41 CB         23.8440  -26.7706  -39.4411 C.3       6 UNK        -0.2006 
     42 C          21.6730  -28.0899  -39.7870 C.2       6 UNK         0.4892 
     43 O          21.4294  -27.9258  -38.5903 O.2       6 UNK        -0.5089 
     44 N          21.0331  -28.9744  -40.5671 N.am      7 UNK        -0.4243 
     45 CA         20.0005  -29.9397  -40.1725 C.3       7 UNK         0.0196 
     46 CB         18.7172  -29.2171  -39.7157 C.3       7 UNK        -0.2007 
     47 C          20.4624  -30.9924  -39.1423 C.2       7 UNK         0.5020 
     48 O          19.6107  -31.6551  -38.5482 O.2       7 UNK        -0.5147 
     49 N          21.7809  -31.1834  -38.9621 N.am      8 UNK        -0.4734 
     50 CA         22.3544  -32.1984  -38.0613 C.3       8 UNK         0.0238 
     51 CB         23.8705  -31.9783  -37.9425 C.3       8 UNK        -0.1912 
     52 C          22.0492  -33.6419  -38.5061 C.2       8 UNK         0.5038 
     53 O          21.9966  -34.5480  -37.6741 O.2       8 UNK        -0.5046 
     54 N          21.8224  -33.8007  -39.8121 N.am      9 UNK        -0.4200 
     55 CA         21.2650  -34.9737  -40.4925 C.3       9 UNK         0.0839 
     56 C          19.7691  -35.2742  -40.1767 C.2       9 UNK         0.5513 
     57 N          19.0246  -34.4004  -39.5088 N.am      9 UNK        -0.7519 
     58 O          19.2743  -36.3369  -40.5431 O.2       9 UNK        -0.4960 
     59 C59        21.5221  -34.8851  -42.0236 C.3       10 UNK        -0.0876 
     60 S60        21.2134  -33.2207  -42.7207 S.3       10 UNK        -0.2414 
     61 C61        19.6000  -33.4259  -43.5337 C.3       10 UNK         0.0169 
     62 H62        19.2675  -26.2813  -39.0316 H         1 UNK         0.0903 
     63 H63        19.8725  -24.6593  -39.3703 H         1 UNK         0.0903 
     64 H64        18.1483  -24.9195  -39.1086 H         1 UNK         0.0903 
     65 H65        16.8763  -25.3381  -40.9104 H         1 UNK         0.3096 
     66 H66        16.1889  -25.4755  -42.9891 H         1 UNK         0.1121 
     67 H67        17.1505  -27.1322  -44.5604 H         1 UNK         0.0849 
     68 H68        18.5167  -27.4067  -43.4887 H         1 UNK         0.0849 
     69 H69        15.5272  -30.3912  -43.5643 H         1 UNK         0.0865 
     70 H70        15.7401  -29.1802  -44.7986 H         1 UNK         0.0865 
     71 H71        17.3187  -31.9875  -43.0273 H         1 UNK         0.1346 
     72 H72        20.8959  -31.9289  -45.3988 H         1 UNK         0.1412 
     73 H73        18.0345  -28.7750  -45.7805 H         1 UNK         0.1426 
     74 H74        19.9324  -28.8658  -47.2732 H         1 UNK         0.0716 
     75 H75        21.0691  -30.2011  -47.2293 H         1 UNK         0.0716 
     76 H76        23.2335  -27.7974  -47.2179 H         1 UNK         0.0695 
     77 H77        21.6388  -27.2537  -47.6337 H         1 UNK         0.0695 
     78 H78        23.0411  -25.3254  -46.9873 H         1 UNK         0.0983 
     79 H79        21.3736  -25.2281  -44.6782 H         1 UNK         0.3095 
     80 H80        19.8022  -23.1793  -45.1374 H         1 UNK         0.0454 
     81 H81        18.8315  -22.6424  -47.3880 H         1 UNK         0.0851 
     82 H82        17.8378  -24.0917  -47.3163 H         1 UNK         0.0851 
     83 H83        17.5718  -22.7727  -46.1780 H         1 UNK         0.0851 
     84 H84        18.8557  -25.8926  -45.0118 H         1 UNK         0.2976 
     85 H85        25.0952  -26.5134  -46.4512 H         1 UNK         0.3116 
     86 H86        26.1808  -25.5117  -44.0320 H         1 UNK         0.0646 
     87 H87        28.2527  -26.6643  -44.8224 H         1 UNK         0.0847 
     88 H88        27.4936  -25.7683  -46.1249 H         1 UNK         0.0847 
     89 H89        27.3275  -27.5236  -46.0443 H         1 UNK         0.0847 
     90 H90        24.5116  -28.4938  -44.5715 H         1 UNK         0.3040 
     91 H91        25.7664  -30.0559  -42.4827 H         1 UNK         0.1015 
     92 H92        24.5073  -31.0782  -44.4112 H         1 UNK         0.0786 
     93 H93        23.0070  -30.3960  -43.7808 H         1 UNK         0.0786 
     94 H94        23.8862  -31.5984  -42.8548 H         1 UNK         0.0786 
     95 H95        23.5132  -27.4387  -42.4367 H         1 UNK         0.3172 
     96 H96        22.3200  -26.3948  -40.8959 H         1 UNK         0.0595 
     97 H97        24.6209  -26.1817  -39.9287 H         1 UNK         0.0839 
     98 H98        24.3271  -27.5982  -38.9204 H         1 UNK         0.0839 
     99 H99        23.3836  -26.1336  -38.6849 H         1 UNK         0.0839 
    100 H100       21.3195  -29.0176  -41.5351 H         1 UNK         0.2998 
    101 H101       19.7565  -30.4967  -41.0790 H         1 UNK         0.0822 
    102 H102       18.4185  -28.4540  -40.4319 H         1 UNK         0.0787 
    103 H103       17.8848  -29.9160  -39.6258 H         1 UNK         0.0787 
    104 H104       18.8456  -28.7374  -38.7453 H         1 UNK         0.0787 
    105 H105       22.4392  -30.6119  -39.4838 H         1 UNK         0.3055 
    106 H106       21.9068  -32.0616  -37.0744 H         1 UNK         0.1106 
    107 H107       24.3741  -32.1150  -38.9003 H         1 UNK         0.0828 
    108 H108       24.0993  -30.9741  -37.5851 H         1 UNK         0.0828 
    109 H109       24.3134  -32.6830  -37.2373 H         1 UNK         0.0828 
    110 H110       21.8962  -32.9797  -40.3953 H         1 UNK         0.2931 
    111 H111       21.8158  -35.8398  -40.1211 H         1 UNK         0.0412 
    112 H112       18.0626  -34.6285  -39.3155 H         1 UNK         0.3472 
    113 H113       19.3992  -33.5127  -39.1915 H         1 UNK         0.3472 
    114 H114       20.9584  -35.6392  -42.5768 H         1 UNK         0.0970 
    115 H115       22.5704  -35.1175  -42.2162 H         1 UNK         0.0970 
    116 H116       18.8728  -33.7794  -42.8012 H         1 UNK         0.0612 
    117 H117       19.6753  -34.1935  -44.3050 H         1 UNK         0.0612 
@<TRIPOS>BOND
     1    1    2 1    
     2    1   62 1    
     3    1   63 1    
     4    1   64 1    
     5    2    3 2    
     6    2    4 am   BACKBONE|DICT|INTERRES
     7    4    5 1    
     8    4   65 1    
     9    5    6 1    
    10    5   25 1    
    11    5   66 1    
    12    6    7 1    
    13    6   67 1    
    14    6   68 1    
    15    7    8 1    
    16    8    9 1    
    17    8   69 1    
    18    8   70 1    
    19    9   10 ar   
    20    9   14 ar   
    21   10   11 ar   
    22   10   71 1    
    23   11   12 ar   
    24   11   61 1    
    25   12   13 ar   
    26   12   72 1    
    27   13   14 ar   
    28   13   15 1    
    29   14   73 1    
    30   15   16 1    
    31   15   74 1    
    32   15   75 1    
    33   16   17 1    
    34   17   18 1    
    35   17   76 1    
    36   17   77 1    
    37   18   19 1    
    38   18   27 1    
    39   18   78 1    
    40   19   20 am   BACKBONE|DICT|INTERRES
    41   19   79 1    
    42   20   21 2    
    43   20   22 1    
    44   22   23 1    
    45   22   24 1    
    46   22   80 1    
    47   23   81 1    
    48   23   82 1    
    49   23   83 1    
    50   24   25 am   BACKBONE|DICT|INTERRES
    51   24   84 1    
    52   25   26 2    
    53   27   28 2    
    54   27   29 am   BACKBONE|DICT|INTERRES
    55   29   30 1    
    56   29   85 1    
    57   30   31 1    
    58   30   32 1    
    59   30   86 1    
    60   31   87 1    
    61   31   88 1    
    62   31   89 1    
    63   32   33 2    
    64   32   34 am   BACKBONE|DICT|INTERRES
    65   34   35 1    
    66   34   90 1    
    67   35   36 1    
    68   35   37 1    
    69   35   91 1    
    70   36   92 1    
    71   36   93 1    
    72   36   94 1    
    73   37   38 2    
    74   37   39 am   BACKBONE|DICT|INTERRES
    75   39   40 1    
    76   39   95 1    
    77   40   41 1    
    78   40   42 1    
    79   40   96 1    
    80   41   97 1    
    81   41   98 1    
    82   41   99 1    
    83   42   43 2    
    84   42   44 am   BACKBONE|DICT|INTERRES
    85   44   45 1    
    86   44  100 1    
    87   45   46 1    
    88   45   47 1    
    89   45  101 1    
    90   46  102 1    
    91   46  103 1    
    92   46  104 1    
    93   47   48 2    
    94   47   49 am   BACKBONE|DICT|INTERRES
    95   49   50 1    
    96   49  105 1    
    97   50   51 1    
    98   50   52 1    
    99   50  106 1    
   100   51  107 1    
   101   51  108 1    
   102   51  109 1    
   103   52   53 2    
   104   52   54 am   BACKBONE|DICT|INTERRES
   105   54   55 1    
   106   54  110 1    
   107   55   56 1    
   108   55   59 1    
   109   55  111 1    
   110   56   57 am   BACKBONE|DICT|INTERRES
   111   56   58 2    
   112   57  112 1    
   113   57  113 1    
   114   59   60 1    
   115   59  114 1    
   116   59  115 1    
   117   60   61 1    
   118   61  116 1    
   119   61  117 1    
@<TRIPOS>SUBSTRUCTURE
     1 UNK         1 GROUP             0       ****    0 ROOT    
