@<TRIPOS>MOLECULE
3R8
117   119    1
SMALL
USER_CHARGES


@<TRIPOS>ATOM
      1 CA         15.4979  -25.8594  -45.0441 C.3       0 UNK        -0.2013 
      2 C          15.2059  -26.4949  -46.4022 C.2       0 UNK         0.4866 
      3 O          14.0667  -26.3942  -46.8540 O.2       0 UNK        -0.5176 
      4 N          16.1396  -27.1540  -47.1082 N.am      1 UNK        -0.4884 
      5 CA         17.5643  -27.4277  -46.8478 C.3       1 UNK         0.0853 
      6 C6         17.8427  -28.3068  -45.5925 C.3       10 UNK        -0.0849 
      7 S7         16.8457  -29.8302  -45.4579 S.3       10 UNK        -0.2776 
      8 C8         15.9294  -29.5787  -43.8967 C.3       10 UNK         0.0316 
      9 C9         16.8452  -29.2820  -42.7134 C.ar      10 UNK        -0.0863 
     10 C10        17.6264  -30.2914  -42.1452 C.ar      10 UNK        -0.1009 
     11 C11        18.4756  -30.0185  -41.0621 C.ar      10 UNK        -0.0712 
     12 C12        18.5674  -28.7064  -40.5836 C.ar      10 UNK        -0.0894 
     13 C13        17.8023  -27.6855  -41.1550 C.ar      10 UNK        -0.0745 
     14 C14        16.9208  -27.9879  -42.1939 C.ar      10 UNK        -0.0972 
     15 C15        17.9288  -26.2472  -40.6754 C.3       10 UNK         0.0209 
     16 S16        18.6916  -25.1865  -41.9490 S.3       10 UNK        -0.2568 
     17 C17        20.4541  -25.6375  -41.8175 C.3       10 UNK        -0.0983 
     18 CA         20.8940  -26.7162  -42.8436 C.3       3 UNK         0.0876 
     19 N          20.6440  -26.3880  -44.2540 N.am      3 UNK        -0.4424 
     20 C          21.0960  -25.3523  -44.9786 C.2       2 UNK         0.4918 
     21 O          21.7752  -24.4356  -44.5147 O.2       2 UNK        -0.4875 
     22 CA         20.7832  -25.3674  -46.4904 C.3       2 UNK         0.0481 
     23 CB         22.0665  -25.6497  -47.2897 C.3       2 UNK        -0.1831 
     24 N          19.7746  -26.3766  -46.8375 N.am      2 UNK        -0.4498 
     25 C          18.4516  -26.1595  -46.8231 C.2       1 UNK         0.5027 
     26 O          17.9525  -25.0356  -46.7393 O.2       1 UNK        -0.4969 
     27 C          22.3537  -27.1468  -42.6089 C.2       3 UNK         0.5005 
     28 O          22.5844  -28.2707  -42.1598 O.2       3 UNK        -0.5279 
     29 N          23.3035  -26.2532  -42.9247 N.am      4 UNK        -0.4463 
     30 CA         24.7592  -26.4227  -42.8384 C.3       4 UNK         0.0283 
     31 CB         25.2395  -27.4126  -43.9211 C.3       4 UNK        -0.1875 
     32 C          25.2315  -26.8070  -41.4229 C.2       4 UNK         0.4949 
     33 O          25.9998  -27.7540  -41.2660 O.2       4 UNK        -0.5039 
     34 N          24.7107  -26.1005  -40.4070 N.am      5 UNK        -0.4663 
     35 CA         24.8991  -26.3709  -38.9706 C.3       5 UNK         0.0242 
     36 CB         26.3572  -26.0950  -38.5439 C.3       5 UNK        -0.1982 
     37 C          24.4070  -27.7770  -38.5602 C.2       5 UNK         0.5017 
     38 O          25.0253  -28.4330  -37.7211 O.2       5 UNK        -0.5012 
     39 N          23.3051  -28.2038  -39.1935 N.am      6 UNK        -0.4439 
     40 CA         22.6348  -29.5043  -39.1077 C.3       6 UNK         0.0297 
     41 CB         22.2454  -29.8687  -37.6599 C.3       6 UNK        -0.2006 
     42 C          23.3666  -30.6514  -39.8308 C.2       6 UNK         0.4892 
     43 O          22.9065  -31.7903  -39.7371 O.2       6 UNK        -0.5089 
     44 N          24.4345  -30.3610  -40.5938 N.am      7 UNK        -0.4243 
     45 CA         25.1377  -31.3498  -41.4225 C.3       7 UNK         0.0196 
     46 CB         26.4598  -30.7719  -41.9476 C.3       7 UNK        -0.2007 
     47 C          24.2854  -31.8930  -42.5832 C.2       7 UNK         0.5020 
     48 O          24.5585  -32.9975  -43.0538 O.2       7 UNK        -0.5147 
     49 N          23.2324  -31.1606  -42.9832 N.am      8 UNK        -0.4734 
     50 CA         22.2034  -31.6227  -43.9255 C.3       8 UNK         0.0238 
     51 CB         21.2344  -30.4656  -44.2243 C.3       8 UNK        -0.1912 
     52 C          21.4219  -32.8628  -43.4401 C.2       8 UNK         0.5038 
     53 O          20.8509  -33.5728  -44.2684 O.2       8 UNK        -0.5046 
     54 N          21.4241  -33.1005  -42.1227 N.am      9 UNK        -0.4200 
     55 CA         20.8254  -34.2591  -41.4489 C.3       9 UNK         0.0839 
     56 C          21.8514  -35.3989  -41.1796 C.2       9 UNK         0.5513 
     57 N          23.1046  -35.2978  -41.6108 N.am      9 UNK        -0.7519 
     58 O          21.4984  -36.4121  -40.5815 O.2       9 UNK        -0.4960 
     59 C59        20.0864  -33.8245  -40.1529 C.3       10 UNK        -0.0876 
     60 S60        18.6329  -32.7806  -40.5077 S.3       10 UNK        -0.2414 
     61 C61        19.3460  -31.1006  -40.4255 C.3       10 UNK         0.0169 
     62 H62        14.8740  -26.3190  -44.2792 H         1 UNK         0.0903 
     63 H63        16.5332  -25.9284  -44.7275 H         1 UNK         0.0903 
     64 H64        15.2474  -24.7998  -45.0806 H         1 UNK         0.0903 
     65 H65        15.8329  -27.5194  -47.9990 H         1 UNK         0.3096 
     66 H66        17.8918  -27.9986  -47.7187 H         1 UNK         0.1121 
     67 H67        17.7505  -27.7198  -44.6836 H         1 UNK         0.0849 
     68 H68        18.8789  -28.6472  -45.6005 H         1 UNK         0.0849 
     69 H69        15.2040  -28.7765  -44.0356 H         1 UNK         0.0865 
     70 H70        15.3465  -30.4758  -43.6830 H         1 UNK         0.0865 
     71 H71        17.5721  -31.2883  -42.5598 H         1 UNK         0.1346 
     72 H72        19.2442  -28.4771  -39.7719 H         1 UNK         0.1412 
     73 H73        16.3233  -27.1968  -42.6223 H         1 UNK         0.1426 
     74 H74        18.4995  -26.1858  -39.7476 H         1 UNK         0.0716 
     75 H75        16.9343  -25.8609  -40.4476 H         1 UNK         0.0716 
     76 H76        20.6514  -25.9775  -40.7992 H         1 UNK         0.0695 
     77 H77        21.0365  -24.7234  -41.9428 H         1 UNK         0.0695 
     78 H78        20.2907  -27.6044  -42.6502 H         1 UNK         0.0983 
     79 H79        20.1123  -27.0828  -44.7502 H         1 UNK         0.3095 
     80 H80        20.4253  -24.3730  -46.7648 H         1 UNK         0.0454 
     81 H81        22.4959  -26.6212  -47.0415 H         1 UNK         0.0851 
     82 H82        22.8284  -24.8963  -47.0842 H         1 UNK         0.0851 
     83 H83        21.8774  -25.6298  -48.3631 H         1 UNK         0.0851 
     84 H84        20.1181  -27.3130  -47.0011 H         1 UNK         0.2976 
     85 H85        22.9807  -25.3760  -43.3263 H         1 UNK         0.3116 
     86 H86        25.2033  -25.4504  -43.0567 H         1 UNK         0.0646 
     87 H87        24.9519  -27.0780  -44.9176 H         1 UNK         0.0847 
     88 H88        26.3260  -27.5079  -43.9135 H         1 UNK         0.0847 
     89 H89        24.8226  -28.4090  -43.7720 H         1 UNK         0.0847 
     90 H90        24.0881  -25.3371  -40.6357 H         1 UNK         0.3040 
     91 H91        24.2629  -25.6642  -38.4351 H         1 UNK         0.1015 
     92 H92        27.0526  -26.8092  -38.9861 H         1 UNK         0.0786 
     93 H93        26.4673  -26.1646  -37.4610 H         1 UNK         0.0786 
     94 H94        26.6736  -25.0939  -38.8363 H         1 UNK         0.0786 
     95 H95        22.9434  -27.6019  -39.9205 H         1 UNK         0.3172 
     96 H96        21.7047  -29.3704  -39.6606 H         1 UNK         0.0595 
     97 H97        23.1177  -30.1073  -37.0512 H         1 UNK         0.0839 
     98 H98        21.5936  -30.7431  -37.6400 H         1 UNK         0.0839 
     99 H99        21.7071  -29.0546  -37.1750 H         1 UNK         0.0839 
    100 H100       24.7541  -29.4010  -40.6599 H         1 UNK         0.2998 
    101 H101       25.3791  -32.1984  -40.7786 H         1 UNK         0.0822 
    102 H102       27.0436  -31.5400  -42.4564 H         1 UNK         0.0787 
    103 H103       26.2935  -29.9678  -42.6636 H         1 UNK         0.0787 
    104 H104       27.0747  -30.3806  -41.1370 H         1 UNK         0.0787 
    105 H105       23.0877  -30.2470  -42.5622 H         1 UNK         0.3055 
    106 H106       22.7054  -31.9035  -44.8539 H         1 UNK         0.1106 
    107 H107       20.4690  -30.7704  -44.9395 H         1 UNK         0.0828 
    108 H108       20.7199  -30.1286  -43.3236 H         1 UNK         0.0828 
    109 H109       21.7581  -29.6116  -44.6537 H         1 UNK         0.0828 
    110 H110       21.9598  -32.4876  -41.5199 H         1 UNK         0.2931 
    111 H111       20.0800  -34.7019  -42.1120 H         1 UNK         0.0412 
    112 H112       23.7460  -36.0537  -41.4296 H         1 UNK         0.3472 
    113 H113       23.4209  -34.4845  -42.1247 H         1 UNK         0.3472 
    114 H114       19.7201  -34.6976  -39.6099 H         1 UNK         0.0970 
    115 H115       20.7596  -33.3077  -39.4673 H         1 UNK         0.0970 
    116 H116       19.5310  -30.8653  -39.3764 H         1 UNK         0.0612 
    117 H117       20.3138  -31.0775  -40.9220 H         1 UNK         0.0612 
@<TRIPOS>BOND
     1    1    2 1    
     2    1   62 1    
     3    1   63 1    
     4    1   64 1    
     5    2    3 2    
     6    2    4 am   BACKBONE|DICT|INTERRES
     7    4    5 1    
     8    4   65 1    
     9    5    6 1    
    10    5   25 1    
    11    5   66 1    
    12    6    7 1    
    13    6   67 1    
    14    6   68 1    
    15    7    8 1    
    16    8    9 1    
    17    8   69 1    
    18    8   70 1    
    19    9   10 ar   
    20    9   14 ar   
    21   10   11 ar   
    22   10   71 1    
    23   11   12 ar   
    24   11   61 1    
    25   12   13 ar   
    26   12   72 1    
    27   13   14 ar   
    28   13   15 1    
    29   14   73 1    
    30   15   16 1    
    31   15   74 1    
    32   15   75 1    
    33   16   17 1    
    34   17   18 1    
    35   17   76 1    
    36   17   77 1    
    37   18   19 1    
    38   18   27 1    
    39   18   78 1    
    40   19   20 am   BACKBONE|DICT|INTERRES
    41   19   79 1    
    42   20   21 2    
    43   20   22 1    
    44   22   23 1    
    45   22   24 1    
    46   22   80 1    
    47   23   81 1    
    48   23   82 1    
    49   23   83 1    
    50   24   25 am   BACKBONE|DICT|INTERRES
    51   24   84 1    
    52   25   26 2    
    53   27   28 2    
    54   27   29 am   BACKBONE|DICT|INTERRES
    55   29   30 1    
    56   29   85 1    
    57   30   31 1    
    58   30   32 1    
    59   30   86 1    
    60   31   87 1    
    61   31   88 1    
    62   31   89 1    
    63   32   33 2    
    64   32   34 am   BACKBONE|DICT|INTERRES
    65   34   35 1    
    66   34   90 1    
    67   35   36 1    
    68   35   37 1    
    69   35   91 1    
    70   36   92 1    
    71   36   93 1    
    72   36   94 1    
    73   37   38 2    
    74   37   39 am   BACKBONE|DICT|INTERRES
    75   39   40 1    
    76   39   95 1    
    77   40   41 1    
    78   40   42 1    
    79   40   96 1    
    80   41   97 1    
    81   41   98 1    
    82   41   99 1    
    83   42   43 2    
    84   42   44 am   BACKBONE|DICT|INTERRES
    85   44   45 1    
    86   44  100 1    
    87   45   46 1    
    88   45   47 1    
    89   45  101 1    
    90   46  102 1    
    91   46  103 1    
    92   46  104 1    
    93   47   48 2    
    94   47   49 am   BACKBONE|DICT|INTERRES
    95   49   50 1    
    96   49  105 1    
    97   50   51 1    
    98   50   52 1    
    99   50  106 1    
   100   51  107 1    
   101   51  108 1    
   102   51  109 1    
   103   52   53 2    
   104   52   54 am   BACKBONE|DICT|INTERRES
   105   54   55 1    
   106   54  110 1    
   107   55   56 1    
   108   55   59 1    
   109   55  111 1    
   110   56   57 am   BACKBONE|DICT|INTERRES
   111   56   58 2    
   112   57  112 1    
   113   57  113 1    
   114   59   60 1    
   115   59  114 1    
   116   59  115 1    
   117   60   61 1    
   118   61  116 1    
   119   61  117 1    
@<TRIPOS>SUBSTRUCTURE
     1 UNK         1 GROUP             0       ****    0 ROOT    
