@<TRIPOS>MOLECULE
3R8
117   119    1
SMALL
USER_CHARGES


@<TRIPOS>ATOM
      1 CA         13.0581  -22.9516  -45.1562 C.3       0 UNK        -0.2013 
      2 C          13.8994  -23.9200  -45.9742 C.2       0 UNK         0.4866 
      3 O          13.4303  -24.4314  -46.9916 O.2       0 UNK        -0.5176 
      4 N          15.1376  -24.1725  -45.5414 N.am      1 UNK        -0.4884 
      5 CA         16.0904  -25.0766  -46.1836 C.3       1 UNK         0.0853 
      6 C6         15.8425  -26.5777  -45.8581 C.3       10 UNK        -0.0849 
      7 S7         15.4691  -26.9485  -44.1032 S.3       10 UNK        -0.2776 
      8 C8         15.0160  -28.7142  -44.1823 C.3       10 UNK         0.0316 
      9 C9         16.2417  -29.5972  -44.0085 C.ar      10 UNK        -0.0863 
     10 C10        16.5756  -30.1024  -42.7461 C.ar      10 UNK        -0.1009 
     11 C11        17.7483  -30.8437  -42.5700 C.ar      10 UNK        -0.0712 
     12 C12        18.5833  -31.0823  -43.6629 C.ar      10 UNK        -0.0894 
     13 C13        18.2756  -30.5513  -44.9163 C.ar      10 UNK        -0.0745 
     14 C14        17.0810  -29.8513  -45.0968 C.ar      10 UNK        -0.0972 
     15 C15        19.3089  -30.5990  -46.0287 C.3       10 UNK         0.0209 
     16 S16        20.1269  -28.9762  -46.2433 S.3       10 UNK        -0.2568 
     17 C17        20.3106  -28.3677  -44.5239 C.3       10 UNK        -0.0983 
     18 CA         21.1149  -27.0509  -44.4110 C.3       3 UNK         0.0876 
     19 N          20.4178  -25.9434  -45.0650 N.am      3 UNK        -0.4424 
     20 C          20.7316  -25.3959  -46.2405 C.2       2 UNK         0.4918 
     21 O          21.6686  -25.7722  -46.9471 O.2       2 UNK        -0.4875 
     22 CA         19.8215  -24.2448  -46.7058 C.3       2 UNK         0.0481 
     23 CB         20.2591  -23.6549  -48.0600 C.3       2 UNK        -0.1831 
     24 N          18.4279  -24.6883  -46.8099 N.am      2 UNK        -0.4498 
     25 C          17.5132  -24.6080  -45.8339 C.2       1 UNK         0.5027 
     26 O          17.7542  -24.1735  -44.7043 O.2       1 UNK        -0.4969 
     27 C          21.3379  -26.6595  -42.9359 C.2       3 UNK         0.5005 
     28 O          20.7350  -25.6903  -42.4623 O.2       3 UNK        -0.5279 
     29 N          22.1984  -27.4034  -42.2292 N.am      4 UNK        -0.4463 
     30 CA         22.5648  -27.1443  -40.8370 C.3       4 UNK         0.0283 
     31 CB         23.7178  -26.1226  -40.7902 C.3       4 UNK        -0.1875 
     32 C          22.9565  -28.4474  -40.1313 C.2       4 UNK         0.4949 
     33 O          23.1736  -29.4702  -40.7891 O.2       4 UNK        -0.5039 
     34 N          23.0594  -28.3731  -38.7978 N.am      5 UNK        -0.4663 
     35 CA         23.5373  -29.4460  -37.9230 C.3       5 UNK         0.0242 
     36 CB         23.3738  -29.0190  -36.4563 C.3       5 UNK        -0.1982 
     37 C          24.9957  -29.8205  -38.2198 C.2       5 UNK         0.5017 
     38 O          25.8095  -28.9307  -38.4768 O.2       5 UNK        -0.5012 
     39 N          25.2845  -31.1285  -38.2131 N.am      6 UNK        -0.4439 
     40 CA         26.5541  -31.7902  -38.5514 C.3       6 UNK         0.0297 
     41 CB         27.7183  -31.3013  -37.6674 C.3       6 UNK        -0.2006 
     42 C          26.9169  -31.7253  -40.0473 C.2       6 UNK         0.4892 
     43 O          27.4683  -32.6958  -40.5671 O.2       6 UNK        -0.5089 
     44 N          26.5794  -30.6164  -40.7198 N.am      7 UNK        -0.4243 
     45 CA         26.6735  -30.4413  -42.1696 C.3       7 UNK         0.0196 
     46 CB         26.4167  -28.9683  -42.5264 C.3       7 UNK        -0.2007 
     47 C          25.7021  -31.3609  -42.9279 C.2       7 UNK         0.5020 
     48 O          26.0793  -31.9136  -43.9616 O.2       7 UNK        -0.5147 
     49 N          24.4860  -31.5261  -42.3915 N.am      8 UNK        -0.4734 
     50 CA         23.4726  -32.4418  -42.9111 C.3       8 UNK         0.0238 
     51 CB         22.6247  -31.7477  -43.9892 C.3       8 UNK        -0.1912 
     52 C          22.5890  -33.0069  -41.7928 C.2       8 UNK         0.5038 
     53 O          22.3766  -34.2199  -41.7644 O.2       8 UNK        -0.5046 
     54 N          22.0736  -32.1392  -40.9097 N.am      9 UNK        -0.4200 
     55 CA         21.1578  -32.5324  -39.8253 C.3       9 UNK         0.0839 
     56 C          21.9013  -33.2323  -38.6565 C.2       9 UNK         0.5513 
     57 N          21.2506  -34.1660  -37.9774 N.am      9 UNK        -0.7519 
     58 O          23.0409  -32.9028  -38.3303 O.2       9 UNK        -0.4960 
     59 C59        20.2779  -31.3608  -39.3010 C.3       10 UNK        -0.0876 
     60 S60        19.5723  -30.3052  -40.6077 S.3       10 UNK        -0.2414 
     61 C61        18.1794  -31.3184  -41.1934 C.3       10 UNK         0.0169 
     62 H62        13.5963  -22.5805  -44.2840 H         1 UNK         0.0903 
     63 H63        12.7697  -22.0961  -45.7665 H         1 UNK         0.0903 
     64 H64        12.1504  -23.4448  -44.8091 H         1 UNK         0.0903 
     65 H65        15.5009  -23.7216  -44.7104 H         1 UNK         0.3096 
     66 H66        15.9820  -24.9501  -47.2637 H         1 UNK         0.1121 
     67 H67        14.9965  -26.9257  -46.4528 H         1 UNK         0.0849 
     68 H68        16.6948  -27.1782  -46.1783 H         1 UNK         0.0849 
     69 H69        14.2900  -28.9254  -43.3956 H         1 UNK         0.0865 
     70 H70        14.5136  -28.9383  -45.1245 H         1 UNK         0.0865 
     71 H71        15.9448  -29.8853  -41.8948 H         1 UNK         0.1346 
     72 H72        19.5168  -31.6069  -43.5123 H         1 UNK         0.1412 
     73 H73        16.8510  -29.4356  -46.0674 H         1 UNK         0.1426 
     74 H74        18.8336  -30.8908  -46.9662 H         1 UNK         0.0716 
     75 H75        20.0676  -31.3540  -45.8189 H         1 UNK         0.0716 
     76 H76        20.7764  -29.1555  -43.9347 H         1 UNK         0.0695 
     77 H77        19.3165  -28.2182  -44.0977 H         1 UNK         0.0695 
     78 H78        22.1004  -27.1904  -44.8610 H         1 UNK         0.0983 
     79 H79        19.6832  -25.5194  -44.5106 H         1 UNK         0.3095 
     80 H80        19.9002  -23.4487  -45.9623 H         1 UNK         0.0454 
     81 H81        21.2837  -23.2838  -48.0116 H         1 UNK         0.0851 
     82 H82        19.6271  -22.8154  -48.3498 H         1 UNK         0.0851 
     83 H83        20.2186  -24.3969  -48.8584 H         1 UNK         0.0851 
     84 H84        18.1622  -25.0971  -47.6950 H         1 UNK         0.2976 
     85 H85        22.6122  -28.2367  -42.6272 H         1 UNK         0.3116 
     86 H86        21.7006  -26.7389  -40.3058 H         1 UNK         0.0646 
     87 H87        24.0146  -25.9015  -39.7644 H         1 UNK         0.0847 
     88 H88        23.4289  -25.1769  -41.2490 H         1 UNK         0.0847 
     89 H89        24.6023  -26.4895  -41.3117 H         1 UNK         0.0847 
     90 H90        22.8867  -27.4831  -38.3533 H         1 UNK         0.3040 
     91 H91        22.9187  -30.3226  -38.0981 H         1 UNK         0.1015 
     92 H92        23.6990  -29.8116  -35.7808 H         1 UNK         0.0786 
     93 H93        22.3323  -28.8008  -36.2193 H         1 UNK         0.0786 
     94 H94        23.9654  -28.1317  -36.2261 H         1 UNK         0.0786 
     95 H95        24.5086  -31.7746  -38.0693 H         1 UNK         0.3172 
     96 H96        26.3933  -32.8446  -38.3205 H         1 UNK         0.0595 
     97 H97        27.9832  -30.2637  -37.8716 H         1 UNK         0.0839 
     98 H98        28.6131  -31.9001  -37.8424 H         1 UNK         0.0839 
     99 H99        27.4751  -31.3845  -36.6083 H         1 UNK         0.0839 
    100 H100       26.1797  -29.8530  -40.1837 H         1 UNK         0.2998 
    101 H101       27.6896  -30.6996  -42.4753 H         1 UNK         0.0822 
    102 H102       27.1284  -28.3088  -42.0293 H         1 UNK         0.0787 
    103 H103       26.5177  -28.8048  -43.6001 H         1 UNK         0.0787 
    104 H104       25.4124  -28.6534  -42.2423 H         1 UNK         0.0787 
    105 H105       24.2410  -30.9930  -41.5632 H         1 UNK         0.3055 
    106 H106       23.9743  -33.2968  -43.3712 H         1 UNK         0.1106 
    107 H107       23.2353  -31.4228  -44.8316 H         1 UNK         0.0828 
    108 H108       21.8625  -32.4220  -44.3812 H         1 UNK         0.0828 
    109 H109       22.1178  -30.8742  -43.5849 H         1 UNK         0.0828 
    110 H110       22.3068  -31.1527  -40.9662 H         1 UNK         0.2931 
    111 H111       20.4709  -33.2668  -40.2511 H         1 UNK         0.0412 
    112 H112       20.3132  -34.4396  -38.2288 H         1 UNK         0.3472 
    113 H113       21.7130  -34.6186  -37.2042 H         1 UNK         0.3472 
    114 H114       19.4619  -31.7485  -38.6883 H         1 UNK         0.0970 
    115 H115       20.8458  -30.7050  -38.6439 H         1 UNK         0.0970 
    116 H116       17.3578  -31.2595  -40.4781 H         1 UNK         0.0612 
    117 H117       18.4759  -32.3663  -41.2521 H         1 UNK         0.0612 
@<TRIPOS>BOND
     1    1    2 1    
     2    1   62 1    
     3    1   63 1    
     4    1   64 1    
     5    2    3 2    
     6    2    4 am   BACKBONE|DICT|INTERRES
     7    4    5 1    
     8    4   65 1    
     9    5    6 1    
    10    5   25 1    
    11    5   66 1    
    12    6    7 1    
    13    6   67 1    
    14    6   68 1    
    15    7    8 1    
    16    8    9 1    
    17    8   69 1    
    18    8   70 1    
    19    9   10 ar   
    20    9   14 ar   
    21   10   11 ar   
    22   10   71 1    
    23   11   12 ar   
    24   11   61 1    
    25   12   13 ar   
    26   12   72 1    
    27   13   14 ar   
    28   13   15 1    
    29   14   73 1    
    30   15   16 1    
    31   15   74 1    
    32   15   75 1    
    33   16   17 1    
    34   17   18 1    
    35   17   76 1    
    36   17   77 1    
    37   18   19 1    
    38   18   27 1    
    39   18   78 1    
    40   19   20 am   BACKBONE|DICT|INTERRES
    41   19   79 1    
    42   20   21 2    
    43   20   22 1    
    44   22   23 1    
    45   22   24 1    
    46   22   80 1    
    47   23   81 1    
    48   23   82 1    
    49   23   83 1    
    50   24   25 am   BACKBONE|DICT|INTERRES
    51   24   84 1    
    52   25   26 2    
    53   27   28 2    
    54   27   29 am   BACKBONE|DICT|INTERRES
    55   29   30 1    
    56   29   85 1    
    57   30   31 1    
    58   30   32 1    
    59   30   86 1    
    60   31   87 1    
    61   31   88 1    
    62   31   89 1    
    63   32   33 2    
    64   32   34 am   BACKBONE|DICT|INTERRES
    65   34   35 1    
    66   34   90 1    
    67   35   36 1    
    68   35   37 1    
    69   35   91 1    
    70   36   92 1    
    71   36   93 1    
    72   36   94 1    
    73   37   38 2    
    74   37   39 am   BACKBONE|DICT|INTERRES
    75   39   40 1    
    76   39   95 1    
    77   40   41 1    
    78   40   42 1    
    79   40   96 1    
    80   41   97 1    
    81   41   98 1    
    82   41   99 1    
    83   42   43 2    
    84   42   44 am   BACKBONE|DICT|INTERRES
    85   44   45 1    
    86   44  100 1    
    87   45   46 1    
    88   45   47 1    
    89   45  101 1    
    90   46  102 1    
    91   46  103 1    
    92   46  104 1    
    93   47   48 2    
    94   47   49 am   BACKBONE|DICT|INTERRES
    95   49   50 1    
    96   49  105 1    
    97   50   51 1    
    98   50   52 1    
    99   50  106 1    
   100   51  107 1    
   101   51  108 1    
   102   51  109 1    
   103   52   53 2    
   104   52   54 am   BACKBONE|DICT|INTERRES
   105   54   55 1    
   106   54  110 1    
   107   55   56 1    
   108   55   59 1    
   109   55  111 1    
   110   56   57 am   BACKBONE|DICT|INTERRES
   111   56   58 2    
   112   57  112 1    
   113   57  113 1    
   114   59   60 1    
   115   59  114 1    
   116   59  115 1    
   117   60   61 1    
   118   61  116 1    
   119   61  117 1    
@<TRIPOS>SUBSTRUCTURE
     1 UNK         1 GROUP             0       ****    0 ROOT    
