@<TRIPOS>MOLECULE
3R8
117   119    1
SMALL
USER_CHARGES


@<TRIPOS>ATOM
      1 CA         15.3966  -28.3847  -41.2018 C.3       0 UNK        -0.2013 
      2 C          15.5102  -27.1136  -42.0295 C.2       0 UNK         0.4866 
      3 O          14.6469  -26.2414  -41.9284 O.2       0 UNK        -0.5176 
      4 N          16.5687  -26.9973  -42.8385 N.am      1 UNK        -0.4884 
      5 CA         16.8954  -25.8068  -43.6221 C.3       1 UNK         0.0853 
      6 C6         16.0038  -25.6108  -44.8875 C.3       10 UNK        -0.0849 
      7 S7         16.4362  -26.5348  -46.4042 S.3       10 UNK        -0.2776 
      8 C8         15.6391  -28.1537  -46.1533 C.3       10 UNK         0.0316 
      9 C9         16.6611  -29.2054  -45.7486 C.ar      10 UNK        -0.0863 
     10 C10        16.5877  -29.8309  -44.5004 C.ar      10 UNK        -0.1009 
     11 C11        17.5573  -30.7623  -44.1189 C.ar      10 UNK        -0.0712 
     12 C12        18.5774  -31.0996  -45.0108 C.ar      10 UNK        -0.0894 
     13 C13        18.6725  -30.4675  -46.2532 C.ar      10 UNK        -0.0745 
     14 C14        17.7008  -29.5361  -46.6242 C.ar      10 UNK        -0.0972 
     15 C15        19.8518  -30.7519  -47.1721 C.3       10 UNK         0.0209 
     16 S16        21.1026  -29.4237  -47.1016 S.3       10 UNK        -0.2568 
     17 C17        21.6804  -29.5425  -45.3719 C.3       10 UNK        -0.0983 
     18 CA         22.0646  -28.1929  -44.7183 C.3       3 UNK         0.0876 
     19 N          21.1177  -27.1078  -45.0106 N.am      3 UNK        -0.4424 
     20 C          21.3929  -25.8079  -44.8347 C.2       2 UNK         0.4918 
     21 O          22.4607  -25.3985  -44.3777 O.2       2 UNK        -0.4875 
     22 CA         20.2974  -24.7857  -45.1940 C.3       2 UNK         0.0481 
     23 CB         20.4180  -24.3857  -46.6728 C.3       2 UNK        -0.1831 
     24 N          18.9087  -25.1776  -44.9146 N.am      2 UNK        -0.4498 
     25 C          18.4266  -25.7160  -43.7857 C.2       1 UNK         0.5027 
     26 O          19.1425  -26.1107  -42.8636 O.2       1 UNK        -0.4969 
     27 C          22.3222  -28.3849  -43.2039 C.2       3 UNK         0.5005 
     28 O          23.3161  -29.0183  -42.8397 O.2       3 UNK        -0.5279 
     29 N          21.4669  -27.8179  -42.3351 N.am      4 UNK        -0.4463 
     30 CA         21.6427  -27.8118  -40.8781 C.3       4 UNK         0.0283 
     31 CB         20.3891  -27.2429  -40.1965 C.3       4 UNK        -0.1875 
     32 C          22.8948  -27.0432  -40.4196 C.2       4 UNK         0.4949 
     33 O          23.4151  -27.3412  -39.3459 O.2       4 UNK        -0.5039 
     34 N          23.4046  -26.1253  -41.2562 N.am      5 UNK        -0.4663 
     35 CA         24.6920  -25.4478  -41.0651 C.3       5 UNK         0.0242 
     36 CB         24.8304  -24.3224  -42.1022 C.3       5 UNK        -0.1982 
     37 C          25.9012  -26.4018  -41.1404 C.2       5 UNK         0.5017 
     38 O          26.9357  -26.1049  -40.5430 O.2       5 UNK        -0.5012 
     39 N          25.7416  -27.5335  -41.8420 N.am      6 UNK        -0.4439 
     40 CA         26.7031  -28.6366  -41.9051 C.3       6 UNK         0.0297 
     41 CB         26.7704  -29.1460  -43.3563 C.3       6 UNK        -0.2006 
     42 C          26.3320  -29.7806  -40.9390 C.2       6 UNK         0.4892 
     43 O          26.9949  -30.8181  -40.9657 O.2       6 UNK        -0.5089 
     44 N          25.2792  -29.5880  -40.1258 N.am      7 UNK        -0.4243 
     45 CA         24.6755  -30.5404  -39.1853 C.3       7 UNK         0.0196 
     46 CB         25.6553  -30.8840  -38.0433 C.3       7 UNK        -0.2007 
     47 C          24.0849  -31.7946  -39.8611 C.2       7 UNK         0.5020 
     48 O          23.9607  -32.8333  -39.2098 O.2       7 UNK        -0.5147 
     49 N          23.7081  -31.6871  -41.1449 N.am      8 UNK        -0.4734 
     50 CA         23.2092  -32.8062  -41.9541 C.3       8 UNK         0.0238 
     51 CB         23.1462  -32.3748  -43.4250 C.3       8 UNK        -0.1912 
     52 C          21.8377  -33.3388  -41.5058 C.2       8 UNK         0.5038 
     53 O          21.5386  -34.5087  -41.7482 O.2       8 UNK        -0.5046 
     54 N          21.0373  -32.4757  -40.8689 N.am      9 UNK        -0.4200 
     55 CA         19.7069  -32.7985  -40.3317 C.3       9 UNK         0.0839 
     56 C          19.7325  -33.6152  -39.0062 C.2       9 UNK         0.5513 
     57 N          20.8821  -33.8445  -38.3804 N.am      9 UNK        -0.7519 
     58 O          18.6851  -34.0545  -38.5388 O.2       9 UNK        -0.4960 
     59 C59        18.8073  -31.5389  -40.1965 C.3       10 UNK        -0.0876 
     60 S60        18.7849  -30.4977  -41.6939 S.3       10 UNK        -0.2414 
     61 C61        17.5576  -31.3598  -42.7229 C.3       10 UNK         0.0169 
     62 H62        14.6017  -29.0199  -41.5914 H         1 UNK         0.0903 
     63 H63        16.3251  -28.9527  -41.2040 H         1 UNK         0.0903 
     64 H64        15.1598  -28.1391  -40.1668 H         1 UNK         0.0903 
     65 H65        17.2836  -27.7135  -42.8508 H         1 UNK         0.3096 
     66 H66        16.6755  -24.9557  -42.9728 H         1 UNK         0.1121 
     67 H67        16.0210  -24.5541  -45.1600 H         1 UNK         0.0849 
     68 H68        14.9586  -25.8076  -44.6449 H         1 UNK         0.0849 
     69 H69        14.8386  -28.0736  -45.4164 H         1 UNK         0.0865 
     70 H70        15.1662  -28.4626  -47.0866 H         1 UNK         0.0865 
     71 H71        15.7918  -29.5747  -43.8166 H         1 UNK         0.1346 
     72 H72        19.3332  -31.8120  -44.7087 H         1 UNK         0.1412 
     73 H73        17.7746  -29.0389  -47.5821 H         1 UNK         0.1426 
     74 H74        20.3214  -31.7032  -46.9166 H         1 UNK         0.0716 
     75 H75        19.4975  -30.8511  -48.1991 H         1 UNK         0.0716 
     76 H76        22.5460  -30.2063  -45.3729 H         1 UNK         0.0695 
     77 H77        20.9246  -30.0358  -44.7657 H         1 UNK         0.0695 
     78 H78        23.0228  -27.8948  -45.1501 H         1 UNK         0.0983 
     79 H79        20.2220  -27.3782  -45.3907 H         1 UNK         0.3095 
     80 H80        20.4904  -23.8962  -44.5914 H         1 UNK         0.0454 
     81 H81        20.1735  -25.2169  -47.3356 H         1 UNK         0.0851 
     82 H82        19.7558  -23.5550  -46.9169 H         1 UNK         0.0851 
     83 H83        21.4336  -24.0663  -46.9116 H         1 UNK         0.0851 
     84 H84        18.2356  -24.9582  -45.6366 H         1 UNK         0.2976 
     85 H85        20.6705  -27.2956  -42.6924 H         1 UNK         0.3116 
     86 H86        21.7591  -28.8497  -40.5593 H         1 UNK         0.0646 
     87 H87        19.4896  -27.7784  -40.4996 H         1 UNK         0.0847 
     88 H88        20.4649  -27.3253  -39.1116 H         1 UNK         0.0847 
     89 H89        20.2458  -26.1878  -40.4323 H         1 UNK         0.0847 
     90 H90        22.9180  -25.9381  -42.1245 H         1 UNK         0.3040 
     91 H91        24.6914  -25.0008  -40.0684 H         1 UNK         0.1015 
     92 H92        24.8449  -24.7122  -43.1209 H         1 UNK         0.0786 
     93 H93        25.7566  -23.7657  -41.9530 H         1 UNK         0.0786 
     94 H94        24.0088  -23.6096  -42.0282 H         1 UNK         0.0786 
     95 H95        24.8434  -27.7145  -42.2780 H         1 UNK         0.3172 
     96 H96        27.6972  -28.2843  -41.6234 H         1 UNK         0.0595 
     97 H97        25.8201  -29.5710  -43.6816 H         1 UNK         0.0839 
     98 H98        27.5273  -29.9240  -43.4642 H         1 UNK         0.0839 
     99 H99        27.0332  -28.3444  -44.0466 H         1 UNK         0.0839 
    100 H100       24.8207  -28.6851  -40.1577 H         1 UNK         0.2998 
    101 H101       23.8264  -30.0212  -38.7387 H         1 UNK         0.0822 
    102 H102       25.1605  -31.4636  -37.2630 H         1 UNK         0.0787 
    103 H103       26.5006  -31.4744  -38.3981 H         1 UNK         0.0787 
    104 H104       26.0483  -29.9823  -37.5736 H         1 UNK         0.0787 
    105 H105       23.8131  -30.7945  -41.6152 H         1 UNK         0.3055 
    106 H106       23.9244  -33.6271  -41.8649 H         1 UNK         0.1106 
    107 H107       24.0995  -31.9745  -43.7708 H         1 UNK         0.0828 
    108 H108       22.8907  -33.2167  -44.0698 H         1 UNK         0.0828 
    109 H109       22.3833  -31.6119  -43.5692 H         1 UNK         0.0828 
    110 H110       21.3640  -31.5332  -40.7236 H         1 UNK         0.2931 
    111 H111       19.2232  -33.4506  -41.0611 H         1 UNK         0.0412 
    112 H112       20.8790  -34.3781  -37.5253 H         1 UNK         0.3472 
    113 H113       21.7558  -33.5044  -38.7581 H         1 UNK         0.3472 
    114 H114       17.7822  -31.8221  -39.9499 H         1 UNK         0.0970 
    115 H115       19.1539  -30.9161  -39.3697 H         1 UNK         0.0970 
    116 H116       17.8004  -32.4218  -42.7778 H         1 UNK         0.0612 
    117 H117       16.5710  -31.2836  -42.2635 H         1 UNK         0.0612 
@<TRIPOS>BOND
     1    1    2 1    
     2    1   62 1    
     3    1   63 1    
     4    1   64 1    
     5    2    3 2    
     6    2    4 am   BACKBONE|DICT|INTERRES
     7    4    5 1    
     8    4   65 1    
     9    5    6 1    
    10    5   25 1    
    11    5   66 1    
    12    6    7 1    
    13    6   67 1    
    14    6   68 1    
    15    7    8 1    
    16    8    9 1    
    17    8   69 1    
    18    8   70 1    
    19    9   10 ar   
    20    9   14 ar   
    21   10   11 ar   
    22   10   71 1    
    23   11   12 ar   
    24   11   61 1    
    25   12   13 ar   
    26   12   72 1    
    27   13   14 ar   
    28   13   15 1    
    29   14   73 1    
    30   15   16 1    
    31   15   74 1    
    32   15   75 1    
    33   16   17 1    
    34   17   18 1    
    35   17   76 1    
    36   17   77 1    
    37   18   19 1    
    38   18   27 1    
    39   18   78 1    
    40   19   20 am   BACKBONE|DICT|INTERRES
    41   19   79 1    
    42   20   21 2    
    43   20   22 1    
    44   22   23 1    
    45   22   24 1    
    46   22   80 1    
    47   23   81 1    
    48   23   82 1    
    49   23   83 1    
    50   24   25 am   BACKBONE|DICT|INTERRES
    51   24   84 1    
    52   25   26 2    
    53   27   28 2    
    54   27   29 am   BACKBONE|DICT|INTERRES
    55   29   30 1    
    56   29   85 1    
    57   30   31 1    
    58   30   32 1    
    59   30   86 1    
    60   31   87 1    
    61   31   88 1    
    62   31   89 1    
    63   32   33 2    
    64   32   34 am   BACKBONE|DICT|INTERRES
    65   34   35 1    
    66   34   90 1    
    67   35   36 1    
    68   35   37 1    
    69   35   91 1    
    70   36   92 1    
    71   36   93 1    
    72   36   94 1    
    73   37   38 2    
    74   37   39 am   BACKBONE|DICT|INTERRES
    75   39   40 1    
    76   39   95 1    
    77   40   41 1    
    78   40   42 1    
    79   40   96 1    
    80   41   97 1    
    81   41   98 1    
    82   41   99 1    
    83   42   43 2    
    84   42   44 am   BACKBONE|DICT|INTERRES
    85   44   45 1    
    86   44  100 1    
    87   45   46 1    
    88   45   47 1    
    89   45  101 1    
    90   46  102 1    
    91   46  103 1    
    92   46  104 1    
    93   47   48 2    
    94   47   49 am   BACKBONE|DICT|INTERRES
    95   49   50 1    
    96   49  105 1    
    97   50   51 1    
    98   50   52 1    
    99   50  106 1    
   100   51  107 1    
   101   51  108 1    
   102   51  109 1    
   103   52   53 2    
   104   52   54 am   BACKBONE|DICT|INTERRES
   105   54   55 1    
   106   54  110 1    
   107   55   56 1    
   108   55   59 1    
   109   55  111 1    
   110   56   57 am   BACKBONE|DICT|INTERRES
   111   56   58 2    
   112   57  112 1    
   113   57  113 1    
   114   59   60 1    
   115   59  114 1    
   116   59  115 1    
   117   60   61 1    
   118   61  116 1    
   119   61  117 1    
@<TRIPOS>SUBSTRUCTURE
     1 UNK         1 GROUP             0       ****    0 ROOT    
