@<TRIPOS>MOLECULE
3R8
117   119    1
SMALL
USER_CHARGES


@<TRIPOS>ATOM
      1 CA         12.8233  -23.6936  -45.8816 C.3       0 UNK        -0.2013 
      2 C          13.8748  -24.7421  -46.2134 C.2       0 UNK         0.4866 
      3 O          14.1119  -25.0209  -47.3894 O.2       0 UNK        -0.5176 
      4 N          14.4996  -25.3319  -45.1871 N.am      1 UNK        -0.4884 
      5 CA         15.5709  -26.3238  -45.3204 C.3       1 UNK         0.0853 
      6 C6         15.8815  -27.0154  -43.9730 C.3       10 UNK        -0.0849 
      7 S7         14.5588  -28.1358  -43.4148 S.3       10 UNK        -0.2776 
      8 C8         14.9627  -28.3195  -41.6429 C.3       10 UNK         0.0316 
      9 C9         16.4538  -28.5227  -41.3927 C.ar      10 UNK        -0.0863 
     10 C10        17.0913  -29.6955  -41.8119 C.ar      10 UNK        -0.1009 
     11 C11        18.4634  -29.8667  -41.6044 C.ar      10 UNK        -0.0712 
     12 C12        19.1887  -28.8693  -40.9503 C.ar      10 UNK        -0.0894 
     13 C13        18.5729  -27.6808  -40.5496 C.ar      10 UNK        -0.0745 
     14 C14        17.2013  -27.5190  -40.7660 C.ar      10 UNK        -0.0972 
     15 C15        19.3775  -26.5719  -39.8787 C.3       10 UNK         0.0209 
     16 S16        20.9501  -26.1982  -40.7292 S.3       10 UNK        -0.2568 
     17 C17        20.3778  -25.5673  -42.3430 C.3       10 UNK        -0.0983 
     18 CA         20.7009  -26.5206  -43.5222 C.3       3 UNK         0.0876 
     19 N          19.9438  -26.1353  -44.7173 N.am      3 UNK        -0.4424 
     20 C          19.9123  -26.8055  -45.8773 C.2       2 UNK         0.4918 
     21 O          20.4911  -27.8746  -46.0746 O.2       2 UNK        -0.4875 
     22 CA         19.0196  -26.2026  -46.9763 C.3       2 UNK         0.0481 
     23 CB         19.3184  -26.7872  -48.3693 C.3       2 UNK        -0.1831 
     24 N          17.6241  -26.4685  -46.6336 N.am      2 UNK        -0.4498 
     25 C          16.8701  -25.6883  -45.8497 C.2       1 UNK         0.5027 
     26 O          17.2110  -24.5662  -45.4647 O.2       1 UNK        -0.4969 
     27 C          22.2135  -26.5718  -43.8320 C.2       3 UNK         0.5005 
     28 O          22.7539  -25.5959  -44.3613 O.2       3 UNK        -0.5279 
     29 N          22.8604  -27.7011  -43.5218 N.am      4 UNK        -0.4463 
     30 CA         24.2577  -27.9827  -43.8397 C.3       4 UNK         0.0283 
     31 CB         24.3779  -28.3779  -45.3256 C.3       4 UNK        -0.1875 
     32 C          24.7758  -29.1077  -42.9371 C.2       4 UNK         0.4949 
     33 O          23.9824  -29.7592  -42.2523 O.2       4 UNK        -0.5039 
     34 N          26.0997  -29.3218  -42.9773 N.am      5 UNK        -0.4663 
     35 CA         26.8480  -30.4093  -42.3296 C.3       5 UNK         0.0242 
     36 CB         26.5444  -31.7489  -43.0333 C.3       5 UNK        -0.1982 
     37 C          26.6156  -30.4742  -40.8095 C.2       5 UNK         0.5017 
     38 O          26.1826  -31.5056  -40.2960 O.2       5 UNK        -0.5012 
     39 N          26.8473  -29.3416  -40.1278 N.am      6 UNK        -0.4439 
     40 CA         26.6185  -29.1258  -38.6891 C.3       6 UNK         0.0297 
     41 CB         27.6236  -29.9417  -37.8477 C.3       6 UNK        -0.2006 
     42 C          25.1523  -29.3681  -38.2675 C.2       6 UNK         0.4892 
     43 O          24.8977  -29.8642  -37.1692 O.2       6 UNK        -0.5089 
     44 N          24.2273  -29.0244  -39.1755 N.am      7 UNK        -0.4243 
     45 CA         22.7753  -29.2124  -39.1141 C.3       7 UNK         0.0196 
     46 CB         22.1552  -28.4738  -37.9086 C.3       7 UNK        -0.2007 
     47 C          22.3117  -30.6799  -39.2139 C.2       7 UNK         0.5020 
     48 O          21.1395  -30.9498  -38.9513 O.2       7 UNK        -0.5147 
     49 N          23.1978  -31.6038  -39.6128 N.am      8 UNK        -0.4734 
     50 CA         22.8487  -33.0075  -39.8517 C.3       8 UNK         0.0238 
     51 CB         24.0619  -33.8996  -39.5422 C.3       8 UNK        -0.1912 
     52 C          22.3550  -33.2590  -41.2864 C.2       8 UNK         0.5038 
     53 O          21.6785  -34.2638  -41.5079 O.2       8 UNK        -0.5046 
     54 N          22.7095  -32.3728  -42.2298 N.am      9 UNK        -0.4200 
     55 CA         22.4166  -32.4653  -43.6726 C.3       9 UNK         0.0839 
     56 C          23.0750  -33.6766  -44.4049 C.2       9 UNK         0.5513 
     57 N          24.0543  -34.3570  -43.8209 N.am      9 UNK        -0.7519 
     58 O          22.7201  -33.9871  -45.5392 O.2       9 UNK        -0.4960 
     59 C59        20.9016  -32.3195  -43.9955 C.3       10 UNK        -0.0876 
     60 S60        20.2467  -30.6844  -43.5257 S.3       10 UNK        -0.2414 
     61 C61        19.1820  -31.1061  -42.1122 C.3       10 UNK         0.0169 
     62 H62        12.7092  -23.5559  -44.8065 H         1 UNK         0.0903 
     63 H63        13.0996  -22.7343  -46.3187 H         1 UNK         0.0903 
     64 H64        11.8571  -23.9887  -46.2898 H         1 UNK         0.0903 
     65 H65        14.2720  -25.0595  -44.2416 H         1 UNK         0.3096 
     66 H66        15.2418  -27.0790  -46.0382 H         1 UNK         0.1121 
     67 H67        16.7902  -27.6184  -44.0459 H         1 UNK         0.0849 
     68 H68        16.0756  -26.2690  -43.1999 H         1 UNK         0.0849 
     69 H69        14.4091  -29.1678  -41.2378 H         1 UNK         0.0865 
     70 H70        14.6004  -27.4394  -41.1092 H         1 UNK         0.0865 
     71 H71        16.5216  -30.4614  -42.3204 H         1 UNK         0.1346 
     72 H72        20.2465  -29.0092  -40.7878 H         1 UNK         0.1412 
     73 H73        16.7152  -26.6047  -40.4536 H         1 UNK         0.1426 
     74 H74        19.5930  -26.8687  -38.8524 H         1 UNK         0.0716 
     75 H75        18.7923  -25.6532  -39.8141 H         1 UNK         0.0716 
     76 H76        20.8177  -24.5817  -42.5073 H         1 UNK         0.0695 
     77 H77        19.3004  -25.4031  -42.2846 H         1 UNK         0.0695 
     78 H78        20.3646  -27.5250  -43.2562 H         1 UNK         0.0983 
     79 H79        19.4260  -25.2695  -44.6574 H         1 UNK         0.3095 
     80 H80        19.2031  -25.1268  -47.0186 H         1 UNK         0.0454 
     81 H81        19.1403  -27.8625  -48.4089 H         1 UNK         0.0851 
     82 H82        20.3602  -26.6193  -48.6453 H         1 UNK         0.0851 
     83 H83        18.7011  -26.3179  -49.1354 H         1 UNK         0.0851 
     84 H84        17.2831  -27.3896  -46.8712 H         1 UNK         0.2976 
     85 H85        22.3819  -28.4582  -43.0483 H         1 UNK         0.3116 
     86 H86        24.8566  -27.0907  -43.6443 H         1 UNK         0.0646 
     87 H87        23.7846  -29.2652  -45.5516 H         1 UNK         0.0847 
     88 H88        25.4101  -28.5959  -45.6013 H         1 UNK         0.0847 
     89 H89        24.0364  -27.5767  -45.9811 H         1 UNK         0.0847 
     90 H90        26.6554  -28.7057  -43.5555 H         1 UNK         0.3040 
     91 H91        27.9094  -30.1971  -42.4695 H         1 UNK         0.1015 
     92 H92        25.4982  -32.0311  -42.9249 H         1 UNK         0.0786 
     93 H93        27.1450  -32.5577  -42.6149 H         1 UNK         0.0786 
     94 H94        26.7673  -31.6980  -44.0989 H         1 UNK         0.0786 
     95 H95        27.1774  -28.5390  -40.6471 H         1 UNK         0.3172 
     96 H96        26.8150  -28.0690  -38.5024 H         1 UNK         0.0595 
     97 H97        27.5471  -29.6862  -36.7901 H         1 UNK         0.0839 
     98 H98        28.6509  -29.7439  -38.1531 H         1 UNK         0.0839 
     99 H99        27.4479  -31.0145  -37.9349 H         1 UNK         0.0839 
    100 H100       24.5662  -28.6751  -40.0611 H         1 UNK         0.2998 
    101 H101       22.3969  -28.7337  -40.0169 H         1 UNK         0.0822 
    102 H102       21.0663  -28.5118  -37.9453 H         1 UNK         0.0787 
    103 H103       22.4572  -28.9157  -36.9592 H         1 UNK         0.0787 
    104 H104       22.4403  -27.4218  -37.8992 H         1 UNK         0.0787 
    105 H105       24.1548  -31.3291  -39.8112 H         1 UNK         0.3055 
    106 H106       22.0425  -33.2997  -39.1746 H         1 UNK         0.1106 
    107 H107       23.7901  -34.9547  -39.5947 H         1 UNK         0.0828 
    108 H108       24.8753  -33.7418  -40.2504 H         1 UNK         0.0828 
    109 H109       24.4483  -33.7136  -38.5399 H         1 UNK         0.0828 
    110 H110       23.2428  -31.5524  -41.9582 H         1 UNK         0.2931 
    111 H111       22.9163  -31.6004  -44.1104 H         1 UNK         0.0412 
    112 H112       24.3600  -34.1183  -42.8923 H         1 UNK         0.3472 
    113 H113       24.4779  -35.1290  -44.3111 H         1 UNK         0.3472 
    114 H114       20.7245  -32.4222  -45.0673 H         1 UNK         0.0970 
    115 H115       20.3228  -33.1140  -43.5225 H         1 UNK         0.0970 
    116 H116       19.7873  -31.5353  -41.3130 H         1 UNK         0.0612 
    117 H117       18.4650  -31.8716  -42.4125 H         1 UNK         0.0612 
@<TRIPOS>BOND
     1    1    2 1    
     2    1   62 1    
     3    1   63 1    
     4    1   64 1    
     5    2    3 2    
     6    2    4 am   BACKBONE|DICT|INTERRES
     7    4    5 1    
     8    4   65 1    
     9    5    6 1    
    10    5   25 1    
    11    5   66 1    
    12    6    7 1    
    13    6   67 1    
    14    6   68 1    
    15    7    8 1    
    16    8    9 1    
    17    8   69 1    
    18    8   70 1    
    19    9   10 ar   
    20    9   14 ar   
    21   10   11 ar   
    22   10   71 1    
    23   11   12 ar   
    24   11   61 1    
    25   12   13 ar   
    26   12   72 1    
    27   13   14 ar   
    28   13   15 1    
    29   14   73 1    
    30   15   16 1    
    31   15   74 1    
    32   15   75 1    
    33   16   17 1    
    34   17   18 1    
    35   17   76 1    
    36   17   77 1    
    37   18   19 1    
    38   18   27 1    
    39   18   78 1    
    40   19   20 am   BACKBONE|DICT|INTERRES
    41   19   79 1    
    42   20   21 2    
    43   20   22 1    
    44   22   23 1    
    45   22   24 1    
    46   22   80 1    
    47   23   81 1    
    48   23   82 1    
    49   23   83 1    
    50   24   25 am   BACKBONE|DICT|INTERRES
    51   24   84 1    
    52   25   26 2    
    53   27   28 2    
    54   27   29 am   BACKBONE|DICT|INTERRES
    55   29   30 1    
    56   29   85 1    
    57   30   31 1    
    58   30   32 1    
    59   30   86 1    
    60   31   87 1    
    61   31   88 1    
    62   31   89 1    
    63   32   33 2    
    64   32   34 am   BACKBONE|DICT|INTERRES
    65   34   35 1    
    66   34   90 1    
    67   35   36 1    
    68   35   37 1    
    69   35   91 1    
    70   36   92 1    
    71   36   93 1    
    72   36   94 1    
    73   37   38 2    
    74   37   39 am   BACKBONE|DICT|INTERRES
    75   39   40 1    
    76   39   95 1    
    77   40   41 1    
    78   40   42 1    
    79   40   96 1    
    80   41   97 1    
    81   41   98 1    
    82   41   99 1    
    83   42   43 2    
    84   42   44 am   BACKBONE|DICT|INTERRES
    85   44   45 1    
    86   44  100 1    
    87   45   46 1    
    88   45   47 1    
    89   45  101 1    
    90   46  102 1    
    91   46  103 1    
    92   46  104 1    
    93   47   48 2    
    94   47   49 am   BACKBONE|DICT|INTERRES
    95   49   50 1    
    96   49  105 1    
    97   50   51 1    
    98   50   52 1    
    99   50  106 1    
   100   51  107 1    
   101   51  108 1    
   102   51  109 1    
   103   52   53 2    
   104   52   54 am   BACKBONE|DICT|INTERRES
   105   54   55 1    
   106   54  110 1    
   107   55   56 1    
   108   55   59 1    
   109   55  111 1    
   110   56   57 am   BACKBONE|DICT|INTERRES
   111   56   58 2    
   112   57  112 1    
   113   57  113 1    
   114   59   60 1    
   115   59  114 1    
   116   59  115 1    
   117   60   61 1    
   118   61  116 1    
   119   61  117 1    
@<TRIPOS>SUBSTRUCTURE
     1 UNK         1 GROUP             0       ****    0 ROOT    
