@<TRIPOS>MOLECULE
3R8
117   119    1
SMALL
USER_CHARGES


@<TRIPOS>ATOM
      1 CA         22.7174  -29.3907  -45.1804 C.3       0 UNK        -0.2013 
      2 C          21.3610  -28.7152  -45.2901 C.2       0 UNK         0.4866 
      3 O          20.7893  -28.3132  -44.2769 O.2       0 UNK        -0.5176 
      4 N          20.8364  -28.5898  -46.5137 N.am      1 UNK        -0.4884 
      5 CA         19.5916  -27.8737  -46.8026 C.3       1 UNK         0.0853 
      6 C6         18.9476  -28.4036  -48.1108 C.3       10 UNK        -0.0849 
      7 S7         17.1581  -28.0624  -48.2278 S.3       10 UNK        -0.2776 
      8 C8         16.4250  -29.5868  -47.5452 C.3       10 UNK         0.0316 
      9 C9         16.7050  -29.7376  -46.0557 C.ar      10 UNK        -0.0863 
     10 C10        17.7248  -30.5849  -45.6138 C.ar      10 UNK        -0.1009 
     11 C11        18.0025  -30.7167  -44.2507 C.ar      10 UNK        -0.0712 
     12 C12        17.2351  -29.9979  -43.3282 C.ar      10 UNK        -0.0894 
     13 C13        16.2144  -29.1344  -43.7504 C.ar      10 UNK        -0.0745 
     14 C14        15.9518  -29.0221  -45.1197 C.ar      10 UNK        -0.0972 
     15 C15        15.3705  -28.3103  -42.7708 C.3       10 UNK         0.0209 
     16 S16        16.0472  -28.1525  -41.0775 S.3       10 UNK        -0.2568 
     17 C17        17.1628  -26.7090  -41.1759 C.3       10 UNK        -0.0983 
     18 CA         18.4616  -26.9882  -41.9898 C.3       3 UNK         0.0876 
     19 N          18.2688  -26.7869  -43.4305 N.am      3 UNK        -0.4424 
     20 C          18.0814  -25.6205  -44.0617 C.2       2 UNK         0.4918 
     21 O          18.1285  -24.5164  -43.5174 O.2       2 UNK        -0.4875 
     22 CA         17.7909  -25.7069  -45.5655 C.3       2 UNK         0.0481 
     23 CB         16.7351  -24.6739  -45.9959 C.3       2 UNK        -0.1831 
     24 N          19.0230  -25.4645  -46.3147 N.am      2 UNK        -0.4498 
     25 C          19.8744  -26.3509  -46.8535 C.2       1 UNK         0.5027 
     26 O          20.8992  -25.9691  -47.4212 O.2       1 UNK        -0.4969 
     27 C          19.7238  -26.2640  -41.4687 C.2       3 UNK         0.5005 
     28 O          19.6806  -25.5654  -40.4533 O.2       3 UNK        -0.5279 
     29 N          20.8431  -26.4660  -42.1765 N.am      4 UNK        -0.4463 
     30 CA         22.1799  -26.0694  -41.7458 C.3       4 UNK         0.0283 
     31 CB         23.1053  -25.9715  -42.9688 C.3       4 UNK        -0.1875 
     32 C          22.6822  -27.0962  -40.7206 C.2       4 UNK         0.4949 
     33 O          23.0105  -28.2255  -41.0936 O.2       4 UNK        -0.5039 
     34 N          22.6709  -26.6978  -39.4427 N.am      5 UNK        -0.4663 
     35 CA         22.9949  -27.5383  -38.2898 C.3       5 UNK         0.0242 
     36 CB         22.8183  -26.7219  -36.9989 C.3       5 UNK        -0.1982 
     37 C          24.4102  -28.1326  -38.3712 C.2       5 UNK         0.5017 
     38 O          25.3806  -27.3790  -38.4676 O.2       5 UNK        -0.5012 
     39 N          24.4797  -29.4690  -38.3416 N.am      6 UNK        -0.4439 
     40 CA         25.6717  -30.3209  -38.4124 C.3       6 UNK         0.0297 
     41 CB         26.6884  -29.9813  -37.3015 C.3       6 UNK        -0.2006 
     42 C          26.3308  -30.3953  -39.8034 C.2       6 UNK         0.4892 
     43 O          27.3283  -31.1055  -39.9401 O.2       6 UNK        -0.5089 
     44 N          25.7659  -29.7241  -40.8199 N.am      7 UNK        -0.4243 
     45 CA         26.1859  -29.8739  -42.2180 C.3       7 UNK         0.0196 
     46 CB         25.7666  -28.6375  -43.0253 C.3       7 UNK        -0.2007 
     47 C          25.6134  -31.1576  -42.8440 C.2       7 UNK         0.5020 
     48 O          26.2597  -31.7499  -43.7080 O.2       7 UNK        -0.5147 
     49 N          24.4329  -31.5776  -42.3721 N.am      8 UNK        -0.4734 
     50 CA         23.8033  -32.8619  -42.6760 C.3       8 UNK         0.0238 
     51 CB         23.1812  -32.8793  -44.0873 C.3       8 UNK        -0.1912 
     52 C          22.7598  -33.1710  -41.5996 C.2       8 UNK         0.5038 
     53 O          22.8500  -34.2096  -40.9445 O.2       8 UNK        -0.5046 
     54 N          21.8066  -32.2472  -41.4307 N.am      9 UNK        -0.4200 
     55 CA         20.7380  -32.3116  -40.4251 C.3       9 UNK         0.0839 
     56 C          21.1691  -31.6656  -39.0801 C.2       9 UNK         0.5513 
     57 N          20.4191  -31.9041  -38.0137 N.am      9 UNK        -0.7519 
     58 O          22.1621  -30.9462  -38.9878 O.2       9 UNK        -0.4960 
     59 C59        19.4225  -31.6954  -40.9717 C.3       10 UNK        -0.0876 
     60 S60        18.7609  -32.6672  -42.3729 S.3       10 UNK        -0.2414 
     61 C61        19.1599  -31.6061  -43.8017 C.3       10 UNK         0.0169 
     62 H62        23.5120  -28.6777  -45.3973 H         1 UNK         0.0903 
     63 H63        22.8683  -29.7710  -44.1710 H         1 UNK         0.0903 
     64 H64        22.8017  -30.2253  -45.8759 H         1 UNK         0.0903 
     65 H65        21.3690  -28.8910  -47.3177 H         1 UNK         0.3096 
     66 H66        18.9236  -28.0991  -45.9760 H         1 UNK         0.1121 
     67 H67        19.4439  -27.9868  -48.9895 H         1 UNK         0.0849 
     68 H68        19.0849  -29.4834  -48.1875 H         1 UNK         0.0849 
     69 H69        15.3467  -29.5625  -47.7096 H         1 UNK         0.0865 
     70 H70        16.7934  -30.4516  -48.0996 H         1 UNK         0.0865 
     71 H71        18.3167  -31.1303  -46.3362 H         1 UNK         0.1346 
     72 H72        17.4446  -30.1134  -42.2763 H         1 UNK         0.1412 
     73 H73        15.1647  -28.3637  -45.4630 H         1 UNK         0.1426 
     74 H74        14.3895  -28.7812  -42.6971 H         1 UNK         0.0716 
     75 H75        15.2017  -27.3108  -43.1747 H         1 UNK         0.0716 
     76 H76        17.3888  -26.4619  -40.1377 H         1 UNK         0.0695 
     77 H77        16.6179  -25.8483  -41.5660 H         1 UNK         0.0695 
     78 H78        18.7093  -28.0428  -41.8642 H         1 UNK         0.0983 
     79 H79        18.2518  -27.6405  -43.9703 H         1 UNK         0.3095 
     80 H80        17.3645  -26.6822  -45.7817 H         1 UNK         0.0454 
     81 H81        17.0744  -23.6490  -45.8406 H         1 UNK         0.0851 
     82 H82        15.8121  -24.8014  -45.4288 H         1 UNK         0.0851 
     83 H83        16.4834  -24.7860  -47.0507 H         1 UNK         0.0851 
     84 H84        19.2911  -24.4921  -46.3637 H         1 UNK         0.2976 
     85 H85        20.8002  -27.1024  -42.9738 H         1 UNK         0.3116 
     86 H86        22.1354  -25.0824  -41.2801 H         1 UNK         0.0646 
     87 H87        23.1301  -26.9024  -43.5326 H         1 UNK         0.0847 
     88 H88        24.1281  -25.7410  -42.6686 H         1 UNK         0.0847 
     89 H89        22.7785  -25.1838  -43.6476 H         1 UNK         0.0847 
     90 H90        22.3659  -25.7567  -39.2390 H         1 UNK         0.3040 
     91 H91        22.2680  -28.3531  -38.2735 H         1 UNK         0.1015 
     92 H92        21.7955  -26.3590  -36.8941 H         1 UNK         0.0786 
     93 H93        23.4862  -25.8597  -36.9719 H         1 UNK         0.0786 
     94 H94        23.0365  -27.3306  -36.1202 H         1 UNK         0.0786 
     95 H95        23.5981  -29.9821  -38.3763 H         1 UNK         0.3172 
     96 H96        25.3061  -31.3293  -38.2132 H         1 UNK         0.0595 
     97 H97        27.1730  -29.0195  -37.4710 H         1 UNK         0.0839 
     98 H98        27.4778  -30.7324  -37.2532 H         1 UNK         0.0839 
     99 H99        26.2126  -29.9514  -36.3214 H         1 UNK         0.0839 
    100 H100       24.9436  -29.1573  -40.6440 H         1 UNK         0.2998 
    101 H101       27.2755  -29.9420  -42.2544 H         1 UNK         0.0822 
    102 H102       26.1658  -27.7216  -42.5894 H         1 UNK         0.0787 
    103 H103       26.1330  -28.6991  -44.0508 H         1 UNK         0.0787 
    104 H104       24.6840  -28.5438  -43.0727 H         1 UNK         0.0787 
    105 H105       24.0044  -31.0378  -41.6316 H         1 UNK         0.3055 
    106 H106       24.5696  -33.6391  -42.6253 H         1 UNK         0.1106 
    107 H107       23.9260  -32.6815  -44.8580 H         1 UNK         0.0828 
    108 H108       22.7482  -33.8566  -44.3042 H         1 UNK         0.0828 
    109 H109       22.3839  -32.1450  -44.1955 H         1 UNK         0.0828 
    110 H110       21.8345  -31.4075  -41.9877 H         1 UNK         0.2931 
    111 H111       20.5395  -33.3628  -40.2051 H         1 UNK         0.0412 
    112 H112       19.6081  -32.5008  -38.0667 H         1 UNK         0.3472 
    113 H113       20.6796  -31.4937  -37.1308 H         1 UNK         0.3472 
    114 H114       18.6514  -31.6824  -40.1994 H         1 UNK         0.0970 
    115 H115       19.5734  -30.6541  -41.2615 H         1 UNK         0.0970 
    116 H116       19.4648  -32.2617  -44.6187 H         1 UNK         0.0612 
    117 H117       20.0251  -30.9823  -43.5771 H         1 UNK         0.0612 
@<TRIPOS>BOND
     1    1    2 1    
     2    1   62 1    
     3    1   63 1    
     4    1   64 1    
     5    2    3 2    
     6    2    4 am   BACKBONE|DICT|INTERRES
     7    4    5 1    
     8    4   65 1    
     9    5    6 1    
    10    5   25 1    
    11    5   66 1    
    12    6    7 1    
    13    6   67 1    
    14    6   68 1    
    15    7    8 1    
    16    8    9 1    
    17    8   69 1    
    18    8   70 1    
    19    9   10 ar   
    20    9   14 ar   
    21   10   11 ar   
    22   10   71 1    
    23   11   12 ar   
    24   11   61 1    
    25   12   13 ar   
    26   12   72 1    
    27   13   14 ar   
    28   13   15 1    
    29   14   73 1    
    30   15   16 1    
    31   15   74 1    
    32   15   75 1    
    33   16   17 1    
    34   17   18 1    
    35   17   76 1    
    36   17   77 1    
    37   18   19 1    
    38   18   27 1    
    39   18   78 1    
    40   19   20 am   BACKBONE|DICT|INTERRES
    41   19   79 1    
    42   20   21 2    
    43   20   22 1    
    44   22   23 1    
    45   22   24 1    
    46   22   80 1    
    47   23   81 1    
    48   23   82 1    
    49   23   83 1    
    50   24   25 am   BACKBONE|DICT|INTERRES
    51   24   84 1    
    52   25   26 2    
    53   27   28 2    
    54   27   29 am   BACKBONE|DICT|INTERRES
    55   29   30 1    
    56   29   85 1    
    57   30   31 1    
    58   30   32 1    
    59   30   86 1    
    60   31   87 1    
    61   31   88 1    
    62   31   89 1    
    63   32   33 2    
    64   32   34 am   BACKBONE|DICT|INTERRES
    65   34   35 1    
    66   34   90 1    
    67   35   36 1    
    68   35   37 1    
    69   35   91 1    
    70   36   92 1    
    71   36   93 1    
    72   36   94 1    
    73   37   38 2    
    74   37   39 am   BACKBONE|DICT|INTERRES
    75   39   40 1    
    76   39   95 1    
    77   40   41 1    
    78   40   42 1    
    79   40   96 1    
    80   41   97 1    
    81   41   98 1    
    82   41   99 1    
    83   42   43 2    
    84   42   44 am   BACKBONE|DICT|INTERRES
    85   44   45 1    
    86   44  100 1    
    87   45   46 1    
    88   45   47 1    
    89   45  101 1    
    90   46  102 1    
    91   46  103 1    
    92   46  104 1    
    93   47   48 2    
    94   47   49 am   BACKBONE|DICT|INTERRES
    95   49   50 1    
    96   49  105 1    
    97   50   51 1    
    98   50   52 1    
    99   50  106 1    
   100   51  107 1    
   101   51  108 1    
   102   51  109 1    
   103   52   53 2    
   104   52   54 am   BACKBONE|DICT|INTERRES
   105   54   55 1    
   106   54  110 1    
   107   55   56 1    
   108   55   59 1    
   109   55  111 1    
   110   56   57 am   BACKBONE|DICT|INTERRES
   111   56   58 2    
   112   57  112 1    
   113   57  113 1    
   114   59   60 1    
   115   59  114 1    
   116   59  115 1    
   117   60   61 1    
   118   61  116 1    
   119   61  117 1    
@<TRIPOS>SUBSTRUCTURE
     1 UNK         1 GROUP             0       ****    0 ROOT    
