@<TRIPOS>MOLECULE
3R8
117   119    1
SMALL
USER_CHARGES


@<TRIPOS>ATOM
      1 CA         14.2210  -22.3093  -42.0183 C.3       0 UNK        -0.2013 
      2 C          14.3656  -23.5796  -42.8429 C.2       0 UNK         0.4866 
      3 O          13.6836  -23.7322  -43.8564 O.2       0 UNK        -0.5176 
      4 N          15.2496  -24.4930  -42.4179 N.am      1 UNK        -0.4884 
      5 CA         15.5173  -25.7720  -43.0922 C.3       1 UNK         0.0853 
      6 C6         16.1852  -26.7850  -42.1229 C.3       10 UNK        -0.0849 
      7 S7         15.7969  -28.5148  -42.5519 S.3       10 UNK        -0.2776 
      8 C8         16.8799  -29.4310  -41.4113 C.3       10 UNK         0.0316 
      9 C9         18.3388  -29.4080  -41.8476 C.ar      10 UNK        -0.0863 
     10 C10        18.7595  -30.1866  -42.9307 C.ar      10 UNK        -0.1009 
     11 C11        20.1051  -30.2192  -43.3101 C.ar      10 UNK        -0.0712 
     12 C12        21.0353  -29.4765  -42.5744 C.ar      10 UNK        -0.0894 
     13 C13        20.6268  -28.6772  -41.5015 C.ar      10 UNK        -0.0745 
     14 C14        19.2746  -28.6399  -41.1486 C.ar      10 UNK        -0.0972 
     15 C15        21.6458  -27.8709  -40.7075 C.3       10 UNK         0.0209 
     16 S16        22.7147  -26.8499  -41.7696 S.3       10 UNK        -0.2568 
     17 C17        21.5261  -25.6627  -42.4802 C.3       10 UNK        -0.0983 
     18 CA         21.0079  -26.0526  -43.8886 C.3       3 UNK         0.0876 
     19 N          19.9401  -25.1424  -44.3070 N.am      3 UNK        -0.4424 
     20 C          19.2453  -25.1879  -45.4524 C.2       2 UNK         0.4918 
     21 O          19.4413  -25.9971  -46.3606 O.2       2 UNK        -0.4875 
     22 CA         18.0811  -24.1838  -45.5370 C.3       2 UNK         0.0481 
     23 CB         17.4504  -24.0915  -46.9431 C.3       2 UNK        -0.1831 
     24 N          17.0758  -24.4848  -44.5085 N.am      2 UNK        -0.4498 
     25 C          16.3446  -25.6077  -44.3888 C.2       1 UNK         0.5027 
     26 O          16.3113  -26.4996  -45.2372 O.2       1 UNK        -0.4969 
     27 C          22.1427  -26.1440  -44.9332 C.2       3 UNK         0.5005 
     28 O          22.7592  -25.1255  -45.2569 O.2       3 UNK        -0.5279 
     29 N          22.3807  -27.3620  -45.4369 N.am      4 UNK        -0.4463 
     30 CA         23.3711  -27.6644  -46.4728 C.3       4 UNK         0.0283 
     31 CB         22.7667  -28.7057  -47.4309 C.3       4 UNK        -0.1875 
     32 C          24.7052  -28.1817  -45.9057 C.2       4 UNK         0.4949 
     33 O          25.6552  -28.3348  -46.6746 O.2       4 UNK        -0.5039 
     34 N          24.7627  -28.4666  -44.5992 N.am      5 UNK        -0.4663 
     35 CA         25.9191  -29.0503  -43.9234 C.3       5 UNK         0.0242 
     36 CB         25.9591  -30.5781  -44.1597 C.3       5 UNK        -0.1982 
     37 C          25.8851  -28.6388  -42.4462 C.2       5 UNK         0.5017 
     38 O          26.1554  -27.4765  -42.1428 O.2       5 UNK        -0.5012 
     39 N          25.5509  -29.5846  -41.5636 N.am      6 UNK        -0.4439 
     40 CA         25.4180  -29.4392  -40.1182 C.3       6 UNK         0.0297 
     41 CB         26.8076  -29.3061  -39.4631 C.3       6 UNK        -0.2006 
     42 C          24.6787  -30.6772  -39.5923 C.2       6 UNK         0.4892 
     43 O          24.5003  -31.6402  -40.3443 O.2       6 UNK        -0.5089 
     44 N          24.2720  -30.6310  -38.3142 N.am      7 UNK        -0.4243 
     45 CA         23.6795  -31.7311  -37.5336 C.3       7 UNK         0.0196 
     46 CB         24.7646  -32.7745  -37.1914 C.3       7 UNK        -0.2007 
     47 C          22.4378  -32.3691  -38.1907 C.2       7 UNK         0.5020 
     48 O          22.2975  -33.5937  -38.1933 O.2       7 UNK        -0.5147 
     49 N          21.5838  -31.5207  -38.7832 N.am      8 UNK        -0.4734 
     50 CA         20.3819  -31.8713  -39.5565 C.3       8 UNK         0.0238 
     51 CB         19.2923  -32.4543  -38.6316 C.3       8 UNK        -0.1912 
     52 C          20.6578  -32.7694  -40.7828 C.2       8 UNK         0.5038 
     53 O          19.7518  -33.4771  -41.2271 O.2       8 UNK        -0.5046 
     54 N          21.9010  -32.7439  -41.2882 N.am      9 UNK        -0.4200 
     55 CA         22.4350  -33.6398  -42.3251 C.3       9 UNK         0.0839 
     56 C          22.5080  -35.1372  -41.8894 C.2       9 UNK         0.5513 
     57 N          22.4866  -35.4564  -40.5993 N.am      9 UNK        -0.7519 
     58 O          22.6201  -36.0283  -42.7278 O.2       9 UNK        -0.4960 
     59 C59        21.7727  -33.4301  -43.7181 C.3       10 UNK        -0.0876 
     60 S60        22.1583  -31.7979  -44.4404 S.3       10 UNK        -0.2414 
     61 C61        20.5173  -31.0070  -44.5518 C.3       10 UNK         0.0169 
     62 H62        13.1955  -22.2075  -41.6639 H         1 UNK         0.0903 
     63 H63        14.8806  -22.3074  -41.1507 H         1 UNK         0.0903 
     64 H64        14.4589  -21.4375  -42.6271 H         1 UNK         0.0903 
     65 H65        15.7752  -24.3181  -41.5724 H         1 UNK         0.3096 
     66 H66        14.5481  -26.1773  -43.3939 H         1 UNK         0.1121 
     67 H67        17.2673  -26.6443  -42.0802 H         1 UNK         0.0849 
     68 H68        15.8225  -26.6291  -41.1054 H         1 UNK         0.0849 
     69 H69        16.7663  -29.0334  -40.4014 H         1 UNK         0.0865 
     70 H70        16.5414  -30.4672  -41.3651 H         1 UNK         0.0865 
     71 H71        18.0305  -30.7630  -43.4842 H         1 UNK         0.1346 
     72 H72        22.0811  -29.5015  -42.8454 H         1 UNK         0.1412 
     73 H73        18.9533  -28.0342  -40.3120 H         1 UNK         0.1426 
     74 H74        21.1560  -27.2275  -39.9748 H         1 UNK         0.0716 
     75 H75        22.2721  -28.5612  -40.1425 H         1 UNK         0.0716 
     76 H76        22.0078  -24.6836  -42.5117 H         1 UNK         0.0695 
     77 H77        20.6882  -25.5597  -41.7887 H         1 UNK         0.0695 
     78 H78        20.5342  -27.0323  -43.8130 H         1 UNK         0.0983 
     79 H79        19.6986  -24.4241  -43.6411 H         1 UNK         0.3095 
     80 H80        18.4888  -23.2001  -45.2986 H         1 UNK         0.0454 
     81 H81        18.1910  -23.7725  -47.6772 H         1 UNK         0.0851 
     82 H82        16.6373  -23.3663  -46.9655 H         1 UNK         0.0851 
     83 H83        17.0545  -25.0485  -47.2834 H         1 UNK         0.0851 
     84 H84        17.0004  -23.8119  -43.7586 H         1 UNK         0.2976 
     85 H85        21.8107  -28.1358  -45.1273 H         1 UNK         0.3116 
     86 H86        23.5897  -26.7630  -47.0493 H         1 UNK         0.0646 
     87 H87        21.8324  -28.3502  -47.8661 H         1 UNK         0.0847 
     88 H88        23.4462  -28.9174  -48.2577 H         1 UNK         0.0847 
     89 H89        22.5657  -29.6519  -46.9268 H         1 UNK         0.0847 
     90 H90        23.9752  -28.2305  -44.0117 H         1 UNK         0.3040 
     91 H91        26.8320  -28.6166  -44.3384 H         1 UNK         0.1015 
     92 H92        26.0937  -30.8075  -45.2169 H         1 UNK         0.0786 
     93 H93        25.0416  -31.0696  -43.8351 H         1 UNK         0.0786 
     94 H94        26.7932  -31.0387  -43.6283 H         1 UNK         0.0786 
     95 H95        25.3094  -30.5136  -41.8904 H         1 UNK         0.3172 
     96 H96        24.8172  -28.5534  -39.9032 H         1 UNK         0.0595 
     97 H97        27.4314  -30.1776  -39.6661 H         1 UNK         0.0839 
     98 H98        26.7293  -29.2066  -38.3800 H         1 UNK         0.0839 
     99 H99        27.3387  -28.4253  -39.8240 H         1 UNK         0.0839 
    100 H100       24.4440  -29.7800  -37.7958 H         1 UNK         0.2998 
    101 H101       23.3327  -31.2958  -36.5951 H         1 UNK         0.0822 
    102 H102       25.6177  -32.3123  -36.6948 H         1 UNK         0.0787 
    103 H103       24.3762  -33.5402  -36.5185 H         1 UNK         0.0787 
    104 H104       25.1312  -33.2813  -38.0851 H         1 UNK         0.0787 
    105 H105       21.8008  -30.5353  -38.7343 H         1 UNK         0.3055 
    106 H106       19.9934  -30.9394  -39.9597 H         1 UNK         0.1106 
    107 H107       19.0982  -31.7981  -37.7834 H         1 UNK         0.0828 
    108 H108       18.3489  -32.5757  -39.1656 H         1 UNK         0.0828 
    109 H109       19.5734  -33.4334  -38.2426 H         1 UNK         0.0828 
    110 H110       22.6000  -32.1697  -40.8310 H         1 UNK         0.2931 
    111 H111       23.4820  -33.3522  -42.4279 H         1 UNK         0.0412 
    112 H112       22.4085  -34.7410  -39.8841 H         1 UNK         0.3472 
    113 H113       22.5466  -36.4259  -40.3319 H         1 UNK         0.3472 
    114 H114       20.6947  -33.5839  -43.6651 H         1 UNK         0.0970 
    115 H115       22.1390  -34.1693  -44.4322 H         1 UNK         0.0970 
    116 H116       19.7691  -31.7614  -44.7991 H         1 UNK         0.0612 
    117 H117       20.5344  -30.3140  -45.3935 H         1 UNK         0.0612 
@<TRIPOS>BOND
     1    1    2 1    
     2    1   62 1    
     3    1   63 1    
     4    1   64 1    
     5    2    3 2    
     6    2    4 am   BACKBONE|DICT|INTERRES
     7    4    5 1    
     8    4   65 1    
     9    5    6 1    
    10    5   25 1    
    11    5   66 1    
    12    6    7 1    
    13    6   67 1    
    14    6   68 1    
    15    7    8 1    
    16    8    9 1    
    17    8   69 1    
    18    8   70 1    
    19    9   10 ar   
    20    9   14 ar   
    21   10   11 ar   
    22   10   71 1    
    23   11   12 ar   
    24   11   61 1    
    25   12   13 ar   
    26   12   72 1    
    27   13   14 ar   
    28   13   15 1    
    29   14   73 1    
    30   15   16 1    
    31   15   74 1    
    32   15   75 1    
    33   16   17 1    
    34   17   18 1    
    35   17   76 1    
    36   17   77 1    
    37   18   19 1    
    38   18   27 1    
    39   18   78 1    
    40   19   20 am   BACKBONE|DICT|INTERRES
    41   19   79 1    
    42   20   21 2    
    43   20   22 1    
    44   22   23 1    
    45   22   24 1    
    46   22   80 1    
    47   23   81 1    
    48   23   82 1    
    49   23   83 1    
    50   24   25 am   BACKBONE|DICT|INTERRES
    51   24   84 1    
    52   25   26 2    
    53   27   28 2    
    54   27   29 am   BACKBONE|DICT|INTERRES
    55   29   30 1    
    56   29   85 1    
    57   30   31 1    
    58   30   32 1    
    59   30   86 1    
    60   31   87 1    
    61   31   88 1    
    62   31   89 1    
    63   32   33 2    
    64   32   34 am   BACKBONE|DICT|INTERRES
    65   34   35 1    
    66   34   90 1    
    67   35   36 1    
    68   35   37 1    
    69   35   91 1    
    70   36   92 1    
    71   36   93 1    
    72   36   94 1    
    73   37   38 2    
    74   37   39 am   BACKBONE|DICT|INTERRES
    75   39   40 1    
    76   39   95 1    
    77   40   41 1    
    78   40   42 1    
    79   40   96 1    
    80   41   97 1    
    81   41   98 1    
    82   41   99 1    
    83   42   43 2    
    84   42   44 am   BACKBONE|DICT|INTERRES
    85   44   45 1    
    86   44  100 1    
    87   45   46 1    
    88   45   47 1    
    89   45  101 1    
    90   46  102 1    
    91   46  103 1    
    92   46  104 1    
    93   47   48 2    
    94   47   49 am   BACKBONE|DICT|INTERRES
    95   49   50 1    
    96   49  105 1    
    97   50   51 1    
    98   50   52 1    
    99   50  106 1    
   100   51  107 1    
   101   51  108 1    
   102   51  109 1    
   103   52   53 2    
   104   52   54 am   BACKBONE|DICT|INTERRES
   105   54   55 1    
   106   54  110 1    
   107   55   56 1    
   108   55   59 1    
   109   55  111 1    
   110   56   57 am   BACKBONE|DICT|INTERRES
   111   56   58 2    
   112   57  112 1    
   113   57  113 1    
   114   59   60 1    
   115   59  114 1    
   116   59  115 1    
   117   60   61 1    
   118   61  116 1    
   119   61  117 1    
@<TRIPOS>SUBSTRUCTURE
     1 UNK         1 GROUP             0       ****    0 ROOT    
