@<TRIPOS>MOLECULE
3R8
117   119    1
SMALL
USER_CHARGES


@<TRIPOS>ATOM
      1 CA         16.0719  -28.4300  -45.1091 C.3       0 UNK        -0.2013 
      2 C          15.4838  -27.0493  -45.3885 C.2       0 UNK         0.4866 
      3 O          14.4468  -26.9586  -46.0425 O.2       0 UNK        -0.5176 
      4 N          16.0948  -25.9477  -44.9311 N.am      1 UNK        -0.4884 
      5 CA         17.3440  -25.8758  -44.1615 C.3       1 UNK         0.0853 
      6 C6         17.1196  -25.4293  -42.6906 C.3       10 UNK        -0.0849 
      7 S7         16.1564  -26.6212  -41.6992 S.3       10 UNK        -0.2776 
      8 C8         17.4650  -27.5262  -40.8037 C.3       10 UNK         0.0316 
      9 C9         17.9963  -28.6923  -41.6246 C.ar      10 UNK        -0.0863 
     10 C10        17.3683  -29.9393  -41.5476 C.ar      10 UNK        -0.1009 
     11 C11        17.8175  -31.0117  -42.3233 C.ar      10 UNK        -0.0712 
     12 C12        18.8935  -30.8243  -43.1954 C.ar      10 UNK        -0.0894 
     13 C13        19.5473  -29.5920  -43.2599 C.ar      10 UNK        -0.0745 
     14 C14        19.1036  -28.5316  -42.4635 C.ar      10 UNK        -0.0972 
     15 C15        20.7168  -29.4009  -44.2089 C.3       10 UNK         0.0209 
     16 S16        20.1166  -28.8247  -45.8232 S.3       10 UNK        -0.2568 
     17 C17        21.6649  -28.2863  -46.6377 C.3       10 UNK        -0.0983 
     18 CA         21.9710  -26.7707  -46.4665 C.3       3 UNK         0.0876 
     19 N          20.7623  -25.9807  -46.6952 N.am      3 UNK        -0.4424 
     20 C          20.6723  -24.6850  -47.0076 C.2       2 UNK         0.4918 
     21 O          21.6408  -23.9603  -47.2328 O.2       2 UNK        -0.4875 
     22 CA         19.2420  -24.1016  -47.0468 C.3       2 UNK         0.0481 
     23 CB         18.7263  -24.0470  -48.4934 C.3       2 UNK        -0.1831 
     24 N          18.2746  -24.8375  -46.2125 N.am      2 UNK        -0.4498 
     25 C          18.3775  -24.9838  -44.8811 C.2       1 UNK         0.5027 
     26 O          19.2897  -24.4736  -44.2332 O.2       1 UNK        -0.4969 
     27 C          22.6587  -26.4983  -45.1071 C.2       3 UNK         0.5005 
     28 O          23.7601  -27.0118  -44.9027 O.2       3 UNK        -0.5279 
     29 N          22.0115  -25.7651  -44.1842 N.am      4 UNK        -0.4463 
     30 CA         22.5079  -25.5191  -42.8242 C.3       4 UNK         0.0283 
     31 CB         21.4216  -24.8001  -42.0062 C.3       4 UNK        -0.1875 
     32 C          23.8197  -24.7002  -42.7931 C.2       4 UNK         0.4949 
     33 O          24.0274  -23.8711  -43.6795 O.2       4 UNK        -0.5039 
     34 N          24.6779  -24.8566  -41.7735 N.am      5 UNK        -0.4663 
     35 CA         24.6005  -25.8290  -40.6785 C.3       5 UNK         0.0242 
     36 CB         25.4821  -25.3408  -39.5175 C.3       5 UNK        -0.1982 
     37 C          25.0541  -27.2239  -41.1391 C.2       5 UNK         0.5017 
     38 O          26.0232  -27.3304  -41.8937 O.2       5 UNK        -0.5012 
     39 N          24.3638  -28.2594  -40.6519 N.am      6 UNK        -0.4439 
     40 CA         24.6598  -29.6649  -40.9062 C.3       6 UNK         0.0297 
     41 CB         23.9313  -30.1356  -42.1786 C.3       6 UNK        -0.2006 
     42 C          24.2034  -30.4612  -39.6811 C.2       6 UNK         0.4892 
     43 O          23.0859  -30.2432  -39.2060 O.2       6 UNK        -0.5089 
     44 N          25.0646  -31.3590  -39.1897 N.am      7 UNK        -0.4243 
     45 CA         24.7620  -32.2559  -38.0745 C.3       7 UNK         0.0196 
     46 CB         26.0738  -32.7235  -37.4227 C.3       7 UNK        -0.2007 
     47 C          23.9502  -33.4546  -38.5813 C.2       7 UNK         0.5020 
     48 O          24.3506  -34.0725  -39.5703 O.2       7 UNK        -0.5147 
     49 N          22.8308  -33.7554  -37.9059 N.am      8 UNK        -0.4734 
     50 CA         21.8991  -34.8603  -38.1932 C.3       8 UNK         0.0238 
     51 CB         22.5366  -36.2087  -37.7925 C.3       8 UNK        -0.1912 
     52 C          21.3709  -34.8622  -39.6451 C.2       8 UNK         0.5038 
     53 O          21.2337  -35.9288  -40.2474 O.2       8 UNK        -0.5046 
     54 N          21.1195  -33.6587  -40.1795 N.am      9 UNK        -0.4200 
     55 CA         20.7481  -33.3756  -41.5768 C.3       9 UNK         0.0839 
     56 C          21.8854  -33.6090  -42.6186 C.2       9 UNK         0.5513 
     57 N          23.1253  -33.8726  -42.2237 N.am      9 UNK        -0.7519 
     58 O          21.6477  -33.5095  -43.8194 O.2       9 UNK        -0.4960 
     59 C59        19.4051  -34.0363  -42.0128 C.3       10 UNK        -0.0876 
     60 S60        17.9726  -33.4631  -41.0360 S.3       10 UNK        -0.2414 
     61 C61        17.1307  -32.3657  -42.2236 C.3       10 UNK         0.0169 
     62 H62        15.4068  -29.2113  -45.4760 H         1 UNK         0.0903 
     63 H63        17.0330  -28.5524  -45.6071 H         1 UNK         0.0903 
     64 H64        16.2059  -28.5903  -44.0400 H         1 UNK         0.0903 
     65 H65        15.6680  -25.0521  -45.1268 H         1 UNK         0.3096 
     66 H66        17.8260  -26.8510  -44.1372 H         1 UNK         0.1121 
     67 H67        18.0663  -25.2557  -42.1775 H         1 UNK         0.0849 
     68 H68        16.5970  -24.4715  -42.6678 H         1 UNK         0.0849 
     69 H69        18.2744  -26.8533  -40.5171 H         1 UNK         0.0865 
     70 H70        17.0479  -27.9012  -39.8677 H         1 UNK         0.0865 
     71 H71        16.5217  -30.0731  -40.8879 H         1 UNK         0.1346 
     72 H72        19.2324  -31.6390  -43.8198 H         1 UNK         0.1412 
     73 H73        19.6028  -27.5746  -42.5206 H         1 UNK         0.1426 
     74 H74        21.4197  -28.6840  -43.7851 H         1 UNK         0.0716 
     75 H75        21.2658  -30.3357  -44.3358 H         1 UNK         0.0716 
     76 H76        21.5501  -28.5009  -47.7012 H         1 UNK         0.0695 
     77 H77        22.4964  -28.9138  -46.3096 H         1 UNK         0.0695 
     78 H78        22.6993  -26.4872  -47.2294 H         1 UNK         0.0983 
     79 H79        19.9029  -26.4912  -46.5531 H         1 UNK         0.3095 
     80 H80        19.2974  -23.0798  -46.6659 H         1 UNK         0.0454 
     81 H81        18.6262  -25.0435  -48.9254 H         1 UNK         0.0851 
     82 H82        17.7550  -23.5554  -48.5513 H         1 UNK         0.0851 
     83 H83        19.4097  -23.4835  -49.1303 H         1 UNK         0.0851 
     84 H84        17.5005  -25.2814  -46.6870 H         1 UNK         0.2976 
     85 H85        21.1263  -25.3323  -44.4241 H         1 UNK         0.3116 
     86 H86        22.6716  -26.5032  -42.3869 H         1 UNK         0.0646 
     87 H87        20.5106  -25.3932  -41.9438 H         1 UNK         0.0847 
     88 H88        21.1663  -23.8342  -42.4438 H         1 UNK         0.0847 
     89 H89        21.7475  -24.6080  -40.9839 H         1 UNK         0.0847 
     90 H90        25.5288  -24.3140  -41.7998 H         1 UNK         0.3040 
     91 H91        23.5751  -25.8859  -40.3108 H         1 UNK         0.1015 
     92 H92        25.4336  -26.0293  -38.6726 H         1 UNK         0.0786 
     93 H93        25.1583  -24.3643  -39.1561 H         1 UNK         0.0786 
     94 H94        26.5298  -25.2594  -39.8106 H         1 UNK         0.0786 
     95 H95        23.6111  -28.1084  -39.9912 H         1 UNK         0.3172 
     96 H96        25.7365  -29.7955  -41.0366 H         1 UNK         0.0595 
     97 H97        22.8480  -30.0712  -42.0693 H         1 UNK         0.0839 
     98 H98        24.1753  -31.1741  -42.4043 H         1 UNK         0.0839 
     99 H99        24.2159  -29.5392  -43.0460 H         1 UNK         0.0839 
    100 H100       25.9431  -31.5111  -39.6648 H         1 UNK         0.2998 
    101 H101       24.1820  -31.7125  -37.3245 H         1 UNK         0.0822 
    102 H102       26.7015  -33.2748  -38.1246 H         1 UNK         0.0787 
    103 H103       26.6525  -31.8799  -37.0457 H         1 UNK         0.0787 
    104 H104       25.8744  -33.3832  -36.5770 H         1 UNK         0.0787 
    105 H105       22.5802  -33.1714  -37.1185 H         1 UNK         0.3055 
    106 H106       21.0242  -34.7074  -37.5585 H         1 UNK         0.1106 
    107 H107       22.8738  -36.1965  -36.7561 H         1 UNK         0.0828 
    108 H108       21.8205  -37.0262  -37.8875 H         1 UNK         0.0828 
    109 H109       23.3939  -36.4523  -38.4215 H         1 UNK         0.0828 
    110 H110       21.2864  -32.8447  -39.6057 H         1 UNK         0.2931 
    111 H111       20.5983  -32.2964  -41.5957 H         1 UNK         0.0412 
    112 H112       23.8373  -34.0112  -42.9223 H         1 UNK         0.3472 
    113 H113       23.3668  -33.9623  -41.2416 H         1 UNK         0.3472 
    114 H114       19.4642  -35.1217  -41.9302 H         1 UNK         0.0970 
    115 H115       19.2014  -33.8492  -43.0674 H         1 UNK         0.0970 
    116 H116       17.0772  -32.8408  -43.2043 H         1 UNK         0.0612 
    117 H117       16.0977  -32.2331  -41.8986 H         1 UNK         0.0612 
@<TRIPOS>BOND
     1    1    2 1    
     2    1   62 1    
     3    1   63 1    
     4    1   64 1    
     5    2    3 2    
     6    2    4 am   BACKBONE|DICT|INTERRES
     7    4    5 1    
     8    4   65 1    
     9    5    6 1    
    10    5   25 1    
    11    5   66 1    
    12    6    7 1    
    13    6   67 1    
    14    6   68 1    
    15    7    8 1    
    16    8    9 1    
    17    8   69 1    
    18    8   70 1    
    19    9   10 ar   
    20    9   14 ar   
    21   10   11 ar   
    22   10   71 1    
    23   11   12 ar   
    24   11   61 1    
    25   12   13 ar   
    26   12   72 1    
    27   13   14 ar   
    28   13   15 1    
    29   14   73 1    
    30   15   16 1    
    31   15   74 1    
    32   15   75 1    
    33   16   17 1    
    34   17   18 1    
    35   17   76 1    
    36   17   77 1    
    37   18   19 1    
    38   18   27 1    
    39   18   78 1    
    40   19   20 am   BACKBONE|DICT|INTERRES
    41   19   79 1    
    42   20   21 2    
    43   20   22 1    
    44   22   23 1    
    45   22   24 1    
    46   22   80 1    
    47   23   81 1    
    48   23   82 1    
    49   23   83 1    
    50   24   25 am   BACKBONE|DICT|INTERRES
    51   24   84 1    
    52   25   26 2    
    53   27   28 2    
    54   27   29 am   BACKBONE|DICT|INTERRES
    55   29   30 1    
    56   29   85 1    
    57   30   31 1    
    58   30   32 1    
    59   30   86 1    
    60   31   87 1    
    61   31   88 1    
    62   31   89 1    
    63   32   33 2    
    64   32   34 am   BACKBONE|DICT|INTERRES
    65   34   35 1    
    66   34   90 1    
    67   35   36 1    
    68   35   37 1    
    69   35   91 1    
    70   36   92 1    
    71   36   93 1    
    72   36   94 1    
    73   37   38 2    
    74   37   39 am   BACKBONE|DICT|INTERRES
    75   39   40 1    
    76   39   95 1    
    77   40   41 1    
    78   40   42 1    
    79   40   96 1    
    80   41   97 1    
    81   41   98 1    
    82   41   99 1    
    83   42   43 2    
    84   42   44 am   BACKBONE|DICT|INTERRES
    85   44   45 1    
    86   44  100 1    
    87   45   46 1    
    88   45   47 1    
    89   45  101 1    
    90   46  102 1    
    91   46  103 1    
    92   46  104 1    
    93   47   48 2    
    94   47   49 am   BACKBONE|DICT|INTERRES
    95   49   50 1    
    96   49  105 1    
    97   50   51 1    
    98   50   52 1    
    99   50  106 1    
   100   51  107 1    
   101   51  108 1    
   102   51  109 1    
   103   52   53 2    
   104   52   54 am   BACKBONE|DICT|INTERRES
   105   54   55 1    
   106   54  110 1    
   107   55   56 1    
   108   55   59 1    
   109   55  111 1    
   110   56   57 am   BACKBONE|DICT|INTERRES
   111   56   58 2    
   112   57  112 1    
   113   57  113 1    
   114   59   60 1    
   115   59  114 1    
   116   59  115 1    
   117   60   61 1    
   118   61  116 1    
   119   61  117 1    
@<TRIPOS>SUBSTRUCTURE
     1 UNK         1 GROUP             0       ****    0 ROOT    
