@<TRIPOS>MOLECULE
3R8
117   119    1
SMALL
USER_CHARGES


@<TRIPOS>ATOM
      1 CA         12.6352  -26.6805  -41.0906 C.3       0 UNK        -0.2013 
      2 C          13.8873  -26.2641  -41.8481 C.2       0 UNK         0.4866 
      3 O          14.1428  -25.0685  -41.9979 O.2       0 UNK        -0.5176 
      4 N          14.6634  -27.2399  -42.3351 N.am      1 UNK        -0.4884 
      5 CA         15.9301  -27.0254  -43.0439 C.3       1 UNK         0.0853 
      6 C6         16.3802  -28.2955  -43.8042 C.3       10 UNK        -0.0849 
      7 S7         15.2756  -28.6596  -45.2124 S.3       10 UNK        -0.2776 
      8 C8         15.7794  -30.3531  -45.6769 C.3       10 UNK         0.0316 
      9 C9         17.2907  -30.5162  -45.7955 C.ar      10 UNK        -0.0863 
     10 C10        17.9419  -31.5236  -45.0793 C.ar      10 UNK        -0.1009 
     11 C11        19.3345  -31.6418  -45.1212 C.ar      10 UNK        -0.0712 
     12 C12        20.0785  -30.7503  -45.9007 C.ar      10 UNK        -0.0894 
     13 C13        19.4362  -29.7476  -46.6346 C.ar      10 UNK        -0.0745 
     14 C14        18.0429  -29.6486  -46.5929 C.ar      10 UNK        -0.0972 
     15 C15        20.2353  -28.7538  -47.4628 C.3       10 UNK         0.0209 
     16 S16        20.3052  -27.1216  -46.6576 S.3       10 UNK        -0.2568 
     17 C17        21.6175  -27.3969  -45.4268 C.3       10 UNK        -0.0983 
     18 CA         21.7711  -26.1898  -44.4667 C.3       3 UNK         0.0876 
     19 N          20.6329  -26.0913  -43.5531 N.am      3 UNK        -0.4424 
     20 C          20.2585  -24.9866  -42.9012 C.2       2 UNK         0.4918 
     21 O          20.7590  -23.8758  -43.0869 O.2       2 UNK        -0.4875 
     22 CA         19.1025  -25.1645  -41.9059 C.3       2 UNK         0.0481 
     23 CB         18.7046  -23.8596  -41.1886 C.3       2 UNK        -0.1831 
     24 N          17.9504  -25.7202  -42.6128 N.am      2 UNK        -0.4498 
     25 C          17.0364  -26.5416  -42.0832 C.2       1 UNK         0.5027 
     26 O          17.0501  -26.9287  -40.9111 O.2       1 UNK        -0.4969 
     27 C          23.0867  -26.3026  -43.6711 C.2       3 UNK         0.5005 
     28 O          23.0760  -26.6744  -42.4944 O.2       3 UNK        -0.5279 
     29 N          24.2065  -26.0166  -44.3499 N.am      4 UNK        -0.4463 
     30 CA         25.5644  -26.2239  -43.8338 C.3       4 UNK         0.0283 
     31 CB         26.5389  -25.3220  -44.6096 C.3       4 UNK        -0.1875 
     32 C          26.0189  -27.6960  -43.9076 C.2       4 UNK         0.4949 
     33 O          27.0074  -28.0514  -43.2654 O.2       4 UNK        -0.5039 
     34 N          25.3137  -28.5165  -44.6999 N.am      5 UNK        -0.4663 
     35 CA         25.5316  -29.9571  -44.8388 C.3       5 UNK         0.0242 
     36 CB         24.6982  -30.4708  -46.0251 C.3       5 UNK        -0.1982 
     37 C          25.1565  -30.7174  -43.5550 C.2       5 UNK         0.5017 
     38 O          24.2106  -30.3224  -42.8708 O.2       5 UNK        -0.5012 
     39 N          25.8858  -31.8099  -43.2810 N.am      6 UNK        -0.4439 
     40 CA         25.7724  -32.6671  -42.0946 C.3       6 UNK         0.0297 
     41 CB         24.4499  -33.4680  -42.1159 C.3       6 UNK        -0.2006 
     42 C          26.0117  -31.8587  -40.8034 C.2       6 UNK         0.4892 
     43 O          27.1169  -31.3424  -40.6270 O.2       6 UNK        -0.5089 
     44 N          24.9944  -31.7537  -39.9410 N.am      7 UNK        -0.4243 
     45 CA         25.0104  -30.9339  -38.7328 C.3       7 UNK         0.0196 
     46 CB         25.7425  -31.6543  -37.5825 C.3       7 UNK        -0.2007 
     47 C          23.5802  -30.5450  -38.3504 C.2       7 UNK         0.5020 
     48 O          23.2455  -29.3612  -38.3717 O.2       7 UNK        -0.5147 
     49 N          22.7578  -31.5498  -38.0140 N.am      8 UNK        -0.4734 
     50 CA         21.4029  -31.3750  -37.4732 C.3       8 UNK         0.0238 
     51 CB         20.8597  -32.7386  -37.0151 C.3       8 UNK        -0.1912 
     52 C          20.4079  -30.6962  -38.4307 C.2       8 UNK         0.5038 
     53 O          19.5248  -29.9761  -37.9634 O.2       8 UNK        -0.5046 
     54 N          20.5696  -30.9388  -39.7359 N.am      9 UNK        -0.4200 
     55 CA         19.7694  -30.3402  -40.8135 C.3       9 UNK         0.0839 
     56 C          20.3997  -29.0612  -41.4385 C.2       9 UNK         0.5513 
     57 N          21.5116  -28.5464  -40.9263 N.am      9 UNK        -0.7519 
     58 O          19.8643  -28.5264  -42.4055 O.2       9 UNK        -0.4960 
     59 C59        19.3860  -31.4021  -41.8764 C.3       10 UNK        -0.0876 
     60 S60        20.8142  -32.0760  -42.8006 S.3       10 UNK        -0.2414 
     61 C61        20.0302  -32.7268  -44.3105 C.3       10 UNK         0.0169 
     62 H62        11.7496  -26.2696  -41.5746 H         1 UNK         0.0903 
     63 H63        12.5256  -27.7640  -41.0473 H         1 UNK         0.0903 
     64 H64        12.6721  -26.3025  -40.0692 H         1 UNK         0.0903 
     65 H65        14.4117  -28.2044  -42.1742 H         1 UNK         0.3096 
     66 H66        15.7648  -26.2303  -43.7753 H         1 UNK         0.1121 
     67 H67        16.4224  -29.1574  -43.1353 H         1 UNK         0.0849 
     68 H68        17.3907  -28.1686  -44.1995 H         1 UNK         0.0849 
     69 H69        15.3174  -30.6127  -46.6302 H         1 UNK         0.0865 
     70 H70        15.3728  -31.0473  -44.9397 H         1 UNK         0.0865 
     71 H71        17.3676  -32.2031  -44.4644 H         1 UNK         0.1346 
     72 H72        21.1564  -30.8303  -45.9208 H         1 UNK         0.1412 
     73 H73        17.5462  -28.8647  -47.1486 H         1 UNK         0.1426 
     74 H74        19.7660  -28.6432  -48.4415 H         1 UNK         0.0716 
     75 H75        21.2465  -29.1196  -47.6483 H         1 UNK         0.0716 
     76 H76        22.5372  -27.5829  -45.9839 H         1 UNK         0.0695 
     77 H77        21.4060  -28.3100  -44.8659 H         1 UNK         0.0695 
     78 H78        21.8216  -25.2721  -45.0574 H         1 UNK         0.0983 
     79 H79        20.2201  -26.9791  -43.2689 H         1 UNK         0.3095 
     80 H80        19.4474  -25.8782  -41.1545 H         1 UNK         0.0454 
     81 H81        18.3449  -23.1074  -41.8915 H         1 UNK         0.0851 
     82 H82        19.5547  -23.4318  -40.6560 H         1 UNK         0.0851 
     83 H83        17.9184  -24.0346  -40.4542 H         1 UNK         0.0851 
     84 H84        17.8895  -25.4811  -43.5937 H         1 UNK         0.2976 
     85 H85        24.1327  -25.6953  -45.3054 H         1 UNK         0.3116 
     86 H86        25.5903  -25.9264  -42.7831 H         1 UNK         0.0646 
     87 H87        26.5666  -25.5727  -45.6707 H         1 UNK         0.0847 
     88 H88        27.5549  -25.4247  -44.2254 H         1 UNK         0.0847 
     89 H89        26.2664  -24.2704  -44.5182 H         1 UNK         0.0847 
     90 H90        24.5021  -28.1394  -45.1618 H         1 UNK         0.3040 
     91 H91        26.5907  -30.1196  -45.0514 H         1 UNK         0.1015 
     92 H92        24.9733  -29.9687  -46.9529 H         1 UNK         0.0786 
     93 H93        23.6305  -30.3173  -45.8626 H         1 UNK         0.0786 
     94 H94        24.8529  -31.5398  -46.1785 H         1 UNK         0.0786 
     95 H95        26.6511  -32.0365  -43.9012 H         1 UNK         0.3172 
     96 H96        26.5893  -33.3878  -42.1559 H         1 UNK         0.0595 
     97 H97        23.5738  -32.8218  -42.0751 H         1 UNK         0.0839 
     98 H98        24.3938  -34.1615  -41.2758 H         1 UNK         0.0839 
     99 H99        24.3704  -34.0646  -43.0247 H         1 UNK         0.0839 
    100 H100       24.1070  -32.1614  -40.1982 H         1 UNK         0.2998 
    101 H101       25.5433  -30.0047  -38.9488 H         1 UNK         0.0822 
    102 H102       26.7995  -31.7902  -37.8119 H         1 UNK         0.0787 
    103 H103       25.6864  -31.0748  -36.6600 H         1 UNK         0.0787 
    104 H104       25.3195  -32.6384  -37.3791 H         1 UNK         0.0787 
    105 H105       23.1229  -32.4917  -38.0138 H         1 UNK         0.3055 
    106 H106       21.4840  -30.7303  -36.5948 H         1 UNK         0.1106 
    107 H107       19.8616  -32.6371  -36.5860 H         1 UNK         0.0828 
    108 H108       21.4942  -33.1828  -36.2480 H         1 UNK         0.0828 
    109 H109       20.7870  -33.4445  -37.8434 H         1 UNK         0.0828 
    110 H110       21.3330  -31.5275  -40.0319 H         1 UNK         0.2931 
    111 H111       18.8264  -29.9957  -40.3851 H         1 UNK         0.0412 
    112 H112       21.9541  -28.9593  -40.1172 H         1 UNK         0.3472 
    113 H113       21.9636  -27.7689  -41.3983 H         1 UNK         0.3472 
    114 H114       18.8597  -32.2316  -41.4021 H         1 UNK         0.0970 
    115 H115       18.6714  -30.9600  -42.5694 H         1 UNK         0.0970 
    116 H116       19.3270  -33.5142  -44.0348 H         1 UNK         0.0612 
    117 H117       20.7957  -33.2025  -44.9251 H         1 UNK         0.0612 
@<TRIPOS>BOND
     1    1    2 1    
     2    1   62 1    
     3    1   63 1    
     4    1   64 1    
     5    2    3 2    
     6    2    4 am   BACKBONE|DICT|INTERRES
     7    4    5 1    
     8    4   65 1    
     9    5    6 1    
    10    5   25 1    
    11    5   66 1    
    12    6    7 1    
    13    6   67 1    
    14    6   68 1    
    15    7    8 1    
    16    8    9 1    
    17    8   69 1    
    18    8   70 1    
    19    9   10 ar   
    20    9   14 ar   
    21   10   11 ar   
    22   10   71 1    
    23   11   12 ar   
    24   11   61 1    
    25   12   13 ar   
    26   12   72 1    
    27   13   14 ar   
    28   13   15 1    
    29   14   73 1    
    30   15   16 1    
    31   15   74 1    
    32   15   75 1    
    33   16   17 1    
    34   17   18 1    
    35   17   76 1    
    36   17   77 1    
    37   18   19 1    
    38   18   27 1    
    39   18   78 1    
    40   19   20 am   BACKBONE|DICT|INTERRES
    41   19   79 1    
    42   20   21 2    
    43   20   22 1    
    44   22   23 1    
    45   22   24 1    
    46   22   80 1    
    47   23   81 1    
    48   23   82 1    
    49   23   83 1    
    50   24   25 am   BACKBONE|DICT|INTERRES
    51   24   84 1    
    52   25   26 2    
    53   27   28 2    
    54   27   29 am   BACKBONE|DICT|INTERRES
    55   29   30 1    
    56   29   85 1    
    57   30   31 1    
    58   30   32 1    
    59   30   86 1    
    60   31   87 1    
    61   31   88 1    
    62   31   89 1    
    63   32   33 2    
    64   32   34 am   BACKBONE|DICT|INTERRES
    65   34   35 1    
    66   34   90 1    
    67   35   36 1    
    68   35   37 1    
    69   35   91 1    
    70   36   92 1    
    71   36   93 1    
    72   36   94 1    
    73   37   38 2    
    74   37   39 am   BACKBONE|DICT|INTERRES
    75   39   40 1    
    76   39   95 1    
    77   40   41 1    
    78   40   42 1    
    79   40   96 1    
    80   41   97 1    
    81   41   98 1    
    82   41   99 1    
    83   42   43 2    
    84   42   44 am   BACKBONE|DICT|INTERRES
    85   44   45 1    
    86   44  100 1    
    87   45   46 1    
    88   45   47 1    
    89   45  101 1    
    90   46  102 1    
    91   46  103 1    
    92   46  104 1    
    93   47   48 2    
    94   47   49 am   BACKBONE|DICT|INTERRES
    95   49   50 1    
    96   49  105 1    
    97   50   51 1    
    98   50   52 1    
    99   50  106 1    
   100   51  107 1    
   101   51  108 1    
   102   51  109 1    
   103   52   53 2    
   104   52   54 am   BACKBONE|DICT|INTERRES
   105   54   55 1    
   106   54  110 1    
   107   55   56 1    
   108   55   59 1    
   109   55  111 1    
   110   56   57 am   BACKBONE|DICT|INTERRES
   111   56   58 2    
   112   57  112 1    
   113   57  113 1    
   114   59   60 1    
   115   59  114 1    
   116   59  115 1    
   117   60   61 1    
   118   61  116 1    
   119   61  117 1    
@<TRIPOS>SUBSTRUCTURE
     1 UNK         1 GROUP             0       ****    0 ROOT    
