@<TRIPOS>MOLECULE
3R8
117   119    1
SMALL
USER_CHARGES


@<TRIPOS>ATOM
      1 CA         16.3777  -27.8243  -42.0836 C.3       0 UNK        -0.2013 
      2 C          16.3262  -26.8656  -43.2612 C.2       0 UNK         0.4866 
      3 O          15.8425  -25.7423  -43.1163 O.2       0 UNK        -0.5176 
      4 N          16.8147  -27.2936  -44.4322 N.am      1 UNK        -0.4884 
      5 CA         16.7140  -26.5770  -45.7124 C.3       1 UNK         0.0853 
      6 C6         16.7129  -27.5399  -46.9366 C.3       10 UNK        -0.0849 
      7 S7         15.6770  -29.0335  -46.6990 S.3       10 UNK        -0.2776 
      8 C8         16.8863  -30.4025  -46.7972 C.3       10 UNK         0.0316 
      9 C9         18.0776  -30.2147  -45.8644 C.ar      10 UNK        -0.0863 
     10 C10        17.9631  -30.4625  -44.4937 C.ar      10 UNK        -0.1009 
     11 C11        19.0486  -30.2479  -43.6350 C.ar      10 UNK        -0.0712 
     12 C12        20.2542  -29.7669  -44.1651 C.ar      10 UNK        -0.0894 
     13 C13        20.3863  -29.5357  -45.5381 C.ar      10 UNK        -0.0745 
     14 C14        19.3008  -29.7821  -46.3805 C.ar      10 UNK        -0.0972 
     15 C15        21.6894  -29.0171  -46.1313 C.3       10 UNK         0.0209 
     16 S16        21.4687  -27.3428  -46.8197 S.3       10 UNK        -0.2568 
     17 C17        22.6337  -26.3150  -45.8581 C.3       10 UNK        -0.0983 
     18 CA         22.0427  -25.6630  -44.5755 C.3       3 UNK         0.0876 
     19 N          20.7451  -25.0212  -44.8332 N.am      3 UNK        -0.4424 
     20 C          20.2099  -24.0003  -44.1540 C.2       2 UNK         0.4918 
     21 O          20.7599  -23.4786  -43.1847 O.2       2 UNK        -0.4875 
     22 CA         18.8126  -23.5076  -44.5734 C.3       2 UNK         0.0481 
     23 CB         18.8953  -22.5170  -45.7508 C.3       2 UNK        -0.1831 
     24 N          17.8466  -24.5884  -44.8182 N.am      2 UNK        -0.4498 
     25 C          17.7950  -25.4752  -45.8221 C.2       1 UNK         0.5027 
     26 O          18.5836  -25.4688  -46.7677 O.2       1 UNK        -0.4969 
     27 C          22.0386  -26.6132  -43.3517 C.2       3 UNK         0.5005 
     28 O          22.7835  -27.5927  -43.3344 O.2       3 UNK        -0.5279 
     29 N          21.2366  -26.3082  -42.3221 N.am      4 UNK        -0.4463 
     30 CA         21.0003  -27.1346  -41.1303 C.3       4 UNK         0.0283 
     31 CB         19.9593  -26.4347  -40.2422 C.3       4 UNK        -0.1875 
     32 C          22.2526  -27.4922  -40.3033 C.2       4 UNK         0.4949 
     33 O          22.2114  -28.4602  -39.5464 O.2       4 UNK        -0.5039 
     34 N          23.3325  -26.7143  -40.4516 N.am      5 UNK        -0.4663 
     35 CA         24.6278  -26.9529  -39.8118 C.3       5 UNK         0.0242 
     36 CB         25.2828  -25.5925  -39.5168 C.3       5 UNK        -0.1982 
     37 C          25.5759  -27.8306  -40.6530 C.2       5 UNK         0.5017 
     38 O          26.6063  -28.2522  -40.1261 O.2       5 UNK        -0.5012 
     39 N          25.2560  -28.0720  -41.9343 N.am      6 UNK        -0.4439 
     40 CA         26.1194  -28.7941  -42.8783 C.3       6 UNK         0.0297 
     41 CB         25.8493  -28.2827  -44.3030 C.3       6 UNK        -0.2006 
     42 C          25.9525  -30.3235  -42.8235 C.2       6 UNK         0.4892 
     43 O          26.7421  -31.0316  -43.4506 O.2       6 UNK        -0.5089 
     44 N          24.9403  -30.8092  -42.0992 N.am      7 UNK        -0.4243 
     45 CA         24.6258  -32.2216  -41.9074 C.3       7 UNK         0.0196 
     46 CB         23.5855  -32.6551  -42.9575 C.3       7 UNK        -0.2007 
     47 C          24.1231  -32.4286  -40.4725 C.2       7 UNK         0.5020 
     48 O          23.9554  -31.4548  -39.7350 O.2       7 UNK        -0.5147 
     49 N          23.9075  -33.6954  -40.0915 N.am      8 UNK        -0.4734 
     50 CA         23.4091  -34.0821  -38.7659 C.3       8 UNK         0.0238 
     51 CB         23.5162  -35.6065  -38.5933 C.3       8 UNK        -0.1912 
     52 C          21.9723  -33.5995  -38.5014 C.2       8 UNK         0.5038 
     53 O          21.7019  -33.0895  -37.4129 O.2       8 UNK        -0.5046 
     54 N          21.1037  -33.7447  -39.5136 N.am      9 UNK        -0.4200 
     55 CA         19.7081  -33.2735  -39.5417 C.3       9 UNK         0.0839 
     56 C          18.8308  -33.8540  -38.3873 C.2       9 UNK         0.5513 
     57 N          17.7732  -33.1736  -37.9631 N.am      9 UNK        -0.7519 
     58 O          19.0639  -34.9632  -37.9101 O.2       9 UNK        -0.4960 
     59 C59        19.6351  -31.7269  -39.7178 C.3       10 UNK        -0.0876 
     60 S60        20.3419  -31.2123  -41.3223 S.3       10 UNK        -0.2414 
     61 C61        18.8744  -30.5076  -42.1396 C.3       10 UNK         0.0169 
     62 H62        17.2477  -27.6177  -41.4632 H         1 UNK         0.0903 
     63 H63        15.4867  -27.7100  -41.4667 H         1 UNK         0.0903 
     64 H64        16.4178  -28.8607  -42.4154 H         1 UNK         0.0903 
     65 H65        17.2296  -28.2142  -44.4977 H         1 UNK         0.3096 
     66 H66        15.7519  -26.0593  -45.7255 H         1 UNK         0.1121 
     67 H67        17.7249  -27.8399  -47.2027 H         1 UNK         0.0849 
     68 H68        16.3378  -27.0105  -47.8142 H         1 UNK         0.0849 
     69 H69        16.3806  -31.3386  -46.5559 H         1 UNK         0.0865 
     70 H70        17.2228  -30.5015  -47.8305 H         1 UNK         0.0865 
     71 H71        17.0198  -30.8126  -44.0961 H         1 UNK         0.1346 
     72 H72        21.0937  -29.5781  -43.5108 H         1 UNK         0.1412 
     73 H73        19.4032  -29.5976  -47.4415 H         1 UNK         0.1426 
     74 H74        22.4925  -29.0375  -45.3959 H         1 UNK         0.0716 
     75 H75        22.0040  -29.6848  -46.9343 H         1 UNK         0.0716 
     76 H76        23.5458  -26.8763  -45.6546 H         1 UNK         0.0695 
     77 H77        22.9507  -25.5150  -46.5287 H         1 UNK         0.0695 
     78 H78        22.7380  -24.8692  -44.2937 H         1 UNK         0.0983 
     79 H79        20.2130  -25.4027  -45.6102 H         1 UNK         0.3095 
     80 H80        18.4098  -22.9577  -43.7214 H         1 UNK         0.0454 
     81 H81        19.3351  -22.9679  -46.6405 H         1 UNK         0.0851 
     82 H82        17.9100  -22.1363  -46.0192 H         1 UNK         0.0851 
     83 H83        19.5138  -21.6575  -45.4891 H         1 UNK         0.0851 
     84 H84        17.1625  -24.7315  -44.0783 H         1 UNK         0.2976 
     85 H85        20.7291  -25.4338  -42.3789 H         1 UNK         0.3116 
     86 H86        20.5739  -28.0760  -41.4792 H         1 UNK         0.0646 
     87 H87        20.3409  -25.4946  -39.8418 H         1 UNK         0.0847 
     88 H88        19.6853  -27.0631  -39.3935 H         1 UNK         0.0847 
     89 H89        19.0445  -26.2155  -40.7916 H         1 UNK         0.0847 
     90 H90        23.2727  -25.9334  -41.0886 H         1 UNK         0.3040 
     91 H91        24.4745  -27.4682  -38.8606 H         1 UNK         0.1015 
     92 H92        24.6510  -24.9793  -38.8739 H         1 UNK         0.0786 
     93 H93        25.4787  -25.0309  -40.4312 H         1 UNK         0.0786 
     94 H94        26.2364  -25.7200  -39.0023 H         1 UNK         0.0786 
     95 H95        24.3564  -27.7613  -42.2967 H         1 UNK         0.3172 
     96 H96        27.1621  -28.5725  -42.6407 H         1 UNK         0.0595 
     97 H97        25.9146  -27.1961  -44.3602 H         1 UNK         0.0839 
     98 H98        24.8624  -28.5833  -44.6545 H         1 UNK         0.0839 
     99 H99        26.5773  -28.6889  -45.0063 H         1 UNK         0.0839 
    100 H100       24.3852  -30.1725  -41.5411 H         1 UNK         0.2998 
    101 H101       25.5311  -32.8215  -42.0238 H         1 UNK         0.0822 
    102 H102       23.9776  -32.5405  -43.9682 H         1 UNK         0.0787 
    103 H103       23.3054  -33.7021  -42.8392 H         1 UNK         0.0787 
    104 H104       22.6744  -32.0608  -42.8895 H         1 UNK         0.0787 
    105 H105       24.0851  -34.4413  -40.7494 H         1 UNK         0.3055 
    106 H106       24.0515  -33.6106  -38.0182 H         1 UNK         0.1106 
    107 H107       23.1609  -35.9118  -37.6080 H         1 UNK         0.0828 
    108 H108       22.9217  -36.1434  -39.3334 H         1 UNK         0.0828 
    109 H109       24.5488  -35.9446  -38.6815 H         1 UNK         0.0828 
    110 H110       21.4315  -34.1845  -40.3598 H         1 UNK         0.2931 
    111 H111       19.2775  -33.7190  -40.4394 H         1 UNK         0.0412 
    112 H112       17.2009  -33.5713  -37.2342 H         1 UNK         0.3472 
    113 H113       17.5336  -32.2749  -38.3491 H         1 UNK         0.3472 
    114 H114       20.1764  -31.2204  -38.9167 H         1 UNK         0.0970 
    115 H115       18.6089  -31.3644  -39.6623 H         1 UNK         0.0970 
    116 H116       18.6250  -29.5715  -41.6423 H         1 UNK         0.0612 
    117 H117       18.0341  -31.1855  -41.9810 H         1 UNK         0.0612 
@<TRIPOS>BOND
     1    1    2 1    
     2    1   62 1    
     3    1   63 1    
     4    1   64 1    
     5    2    3 2    
     6    2    4 am   BACKBONE|DICT|INTERRES
     7    4    5 1    
     8    4   65 1    
     9    5    6 1    
    10    5   25 1    
    11    5   66 1    
    12    6    7 1    
    13    6   67 1    
    14    6   68 1    
    15    7    8 1    
    16    8    9 1    
    17    8   69 1    
    18    8   70 1    
    19    9   10 ar   
    20    9   14 ar   
    21   10   11 ar   
    22   10   71 1    
    23   11   12 ar   
    24   11   61 1    
    25   12   13 ar   
    26   12   72 1    
    27   13   14 ar   
    28   13   15 1    
    29   14   73 1    
    30   15   16 1    
    31   15   74 1    
    32   15   75 1    
    33   16   17 1    
    34   17   18 1    
    35   17   76 1    
    36   17   77 1    
    37   18   19 1    
    38   18   27 1    
    39   18   78 1    
    40   19   20 am   BACKBONE|DICT|INTERRES
    41   19   79 1    
    42   20   21 2    
    43   20   22 1    
    44   22   23 1    
    45   22   24 1    
    46   22   80 1    
    47   23   81 1    
    48   23   82 1    
    49   23   83 1    
    50   24   25 am   BACKBONE|DICT|INTERRES
    51   24   84 1    
    52   25   26 2    
    53   27   28 2    
    54   27   29 am   BACKBONE|DICT|INTERRES
    55   29   30 1    
    56   29   85 1    
    57   30   31 1    
    58   30   32 1    
    59   30   86 1    
    60   31   87 1    
    61   31   88 1    
    62   31   89 1    
    63   32   33 2    
    64   32   34 am   BACKBONE|DICT|INTERRES
    65   34   35 1    
    66   34   90 1    
    67   35   36 1    
    68   35   37 1    
    69   35   91 1    
    70   36   92 1    
    71   36   93 1    
    72   36   94 1    
    73   37   38 2    
    74   37   39 am   BACKBONE|DICT|INTERRES
    75   39   40 1    
    76   39   95 1    
    77   40   41 1    
    78   40   42 1    
    79   40   96 1    
    80   41   97 1    
    81   41   98 1    
    82   41   99 1    
    83   42   43 2    
    84   42   44 am   BACKBONE|DICT|INTERRES
    85   44   45 1    
    86   44  100 1    
    87   45   46 1    
    88   45   47 1    
    89   45  101 1    
    90   46  102 1    
    91   46  103 1    
    92   46  104 1    
    93   47   48 2    
    94   47   49 am   BACKBONE|DICT|INTERRES
    95   49   50 1    
    96   49  105 1    
    97   50   51 1    
    98   50   52 1    
    99   50  106 1    
   100   51  107 1    
   101   51  108 1    
   102   51  109 1    
   103   52   53 2    
   104   52   54 am   BACKBONE|DICT|INTERRES
   105   54   55 1    
   106   54  110 1    
   107   55   56 1    
   108   55   59 1    
   109   55  111 1    
   110   56   57 am   BACKBONE|DICT|INTERRES
   111   56   58 2    
   112   57  112 1    
   113   57  113 1    
   114   59   60 1    
   115   59  114 1    
   116   59  115 1    
   117   60   61 1    
   118   61  116 1    
   119   61  117 1    
@<TRIPOS>SUBSTRUCTURE
     1 UNK         1 GROUP             0       ****    0 ROOT    
