@<TRIPOS>MOLECULE
3R8
117   119    1
SMALL
USER_CHARGES


@<TRIPOS>ATOM
      1 CA         21.7671  -25.2639  -39.4551 C.3       0 UNK        -0.2013 
      2 C          20.6636  -25.4554  -40.4797 C.2       0 UNK         0.4866 
      3 O          20.0338  -24.4794  -40.8888 O.2       0 UNK        -0.5176 
      4 N          20.4172  -26.7033  -40.8977 N.am      1 UNK        -0.4884 
      5 CA         19.3254  -27.0941  -41.7989 C.3       1 UNK         0.0853 
      6 C6         18.9233  -28.5841  -41.5816 C.3       10 UNK        -0.0849 
      7 S7         17.1330  -28.8313  -41.3386 S.3       10 UNK        -0.2776 
      8 C8         16.4719  -28.8147  -43.0400 C.3       10 UNK         0.0316 
      9 C9         17.0450  -29.9068  -43.9366 C.ar      10 UNK        -0.0863 
     10 C10        17.0334  -31.2449  -43.5384 C.ar      10 UNK        -0.1009 
     11 C11        17.5751  -32.2334  -44.3633 C.ar      10 UNK        -0.0712 
     12 C12        18.1141  -31.8778  -45.6051 C.ar      10 UNK        -0.0894 
     13 C13        18.1226  -30.5444  -46.0303 C.ar      10 UNK        -0.0745 
     14 C14        17.5753  -29.5704  -45.1844 C.ar      10 UNK        -0.0972 
     15 C15        18.7625  -30.2043  -47.3827 C.3       10 UNK         0.0209 
     16 S16        18.4891  -28.4922  -47.9692 S.3       10 UNK        -0.2568 
     17 C17        20.1172  -28.0183  -48.6599 C.3       10 UNK        -0.0983 
     18 CA         21.1028  -27.3647  -47.6463 C.3       3 UNK         0.0876 
     19 N          20.4204  -26.4440  -46.7304 N.am      3 UNK        -0.4424 
     20 C          20.9900  -25.6210  -45.8398 C.2       2 UNK         0.4918 
     21 O          22.2064  -25.4789  -45.7222 O.2       2 UNK        -0.4875 
     22 CA         20.0380  -24.8487  -44.8991 C.3       2 UNK         0.0481 
     23 CB         18.6433  -24.6068  -45.5171 C.3       2 UNK        -0.1831 
     24 N          19.8837  -25.4609  -43.5698 N.am      2 UNK        -0.4498 
     25 C          19.6219  -26.7440  -43.2776 C.2       1 UNK         0.5027 
     26 O          19.6071  -27.6308  -44.1269 O.2       1 UNK        -0.4969 
     27 C          21.9712  -28.4308  -46.9406 C.2       3 UNK         0.5005 
     28 O          22.9211  -28.9207  -47.5538 O.2       3 UNK        -0.5279 
     29 N          21.6463  -28.7701  -45.6867 N.am      4 UNK        -0.4463 
     30 CA         22.3495  -29.7520  -44.8616 C.3       4 UNK         0.0283 
     31 CB         21.4495  -30.9839  -44.6817 C.3       4 UNK        -0.1875 
     32 C          22.8133  -29.1385  -43.5271 C.2       4 UNK         0.4949 
     33 O          22.9130  -29.8518  -42.5269 O.2       4 UNK        -0.5039 
     34 N          23.1141  -27.8315  -43.5464 N.am      5 UNK        -0.4663 
     35 CA         23.7872  -27.0814  -42.4801 C.3       5 UNK         0.0242 
     36 CB         23.7180  -25.5893  -42.8582 C.3       5 UNK        -0.1982 
     37 C          25.2570  -27.5338  -42.3088 C.2       5 UNK         0.5017 
     38 O          25.8209  -28.1009  -43.2457 O.2       5 UNK        -0.5012 
     39 N          25.9202  -27.2836  -41.1691 N.am      6 UNK        -0.4439 
     40 CA         25.4722  -26.5644  -39.9687 C.3       6 UNK         0.0297 
     41 CB         26.6931  -25.8762  -39.3337 C.3       6 UNK        -0.2006 
     42 C          24.7523  -27.4480  -38.9347 C.2       6 UNK         0.4892 
     43 O          24.3698  -26.9392  -37.8804 O.2       6 UNK        -0.5089 
     44 N          24.5774  -28.7383  -39.2361 N.am      7 UNK        -0.4243 
     45 CA         23.8363  -29.6844  -38.4058 C.3       7 UNK         0.0196 
     46 CB         24.3879  -31.0946  -38.6745 C.3       7 UNK        -0.2007 
     47 C          22.3232  -29.6160  -38.6780 C.2       7 UNK         0.5020 
     48 O          21.8763  -28.9825  -39.6400 O.2       7 UNK        -0.5147 
     49 N          21.5544  -30.3169  -37.8367 N.am      8 UNK        -0.4734 
     50 CA         20.1275  -30.5819  -38.0261 C.3       8 UNK         0.0238 
     51 CB         19.4785  -30.8388  -36.6531 C.3       8 UNK        -0.1912 
     52 C          19.9542  -31.7661  -38.9958 C.2       8 UNK         0.5038 
     53 O          19.6109  -32.8679  -38.5650 O.2       8 UNK        -0.5046 
     54 N          20.2556  -31.5139  -40.2748 N.am      9 UNK        -0.4200 
     55 CA         20.4049  -32.4912  -41.3583 C.3       9 UNK         0.0839 
     56 C          21.7516  -33.2497  -41.2186 C.2       9 UNK         0.5513 
     57 N          22.8578  -32.6119  -41.5772 N.am      9 UNK        -0.7519 
     58 O          21.8074  -34.3961  -40.7806 O.2       9 UNK        -0.4960 
     59 C59        19.1685  -33.4114  -41.5711 C.3       10 UNK        -0.0876 
     60 S60        19.1682  -34.1998  -43.2215 S.3       10 UNK        -0.2414 
     61 C61        17.5668  -33.6876  -43.9183 C.3       10 UNK         0.0169 
     62 H62        22.0807  -26.2152  -39.0288 H         1 UNK         0.0903 
     63 H63        22.6283  -24.7794  -39.9123 H         1 UNK         0.0903 
     64 H64        21.4162  -24.6336  -38.6385 H         1 UNK         0.0903 
     65 H65        20.9803  -27.4699  -40.5352 H         1 UNK         0.3096 
     66 H66        18.4652  -26.4779  -41.5272 H         1 UNK         0.1121 
     67 H67        19.2985  -29.2637  -42.3486 H         1 UNK         0.0849 
     68 H68        19.3742  -28.9470  -40.6613 H         1 UNK         0.0849 
     69 H69        15.3893  -28.9364  -42.9951 H         1 UNK         0.0865 
     70 H70        16.6486  -27.8278  -43.4697 H         1 UNK         0.0865 
     71 H71        16.6104  -31.5119  -42.5800 H         1 UNK         0.1346 
     72 H72        18.5395  -32.6445  -46.2382 H         1 UNK         0.1412 
     73 H73        17.5772  -28.5311  -45.4755 H         1 UNK         0.1426 
     74 H74        18.3779  -30.8855  -48.1430 H         1 UNK         0.0716 
     75 H75        19.8318  -30.3989  -47.3132 H         1 UNK         0.0716 
     76 H76        20.5636  -28.8741  -49.1711 H         1 UNK         0.0695 
     77 H77        19.9118  -27.2961  -49.4513 H         1 UNK         0.0695 
     78 H78        21.8055  -26.7574  -48.2209 H         1 UNK         0.0983 
     79 H79        19.4148  -26.5346  -46.7179 H         1 UNK         0.3095 
     80 H80        20.4979  -23.8732  -44.7359 H         1 UNK         0.0454 
     81 H81        18.7215  -24.1652  -46.5117 H         1 UNK         0.0851 
     82 H82        18.0626  -25.5258  -45.6045 H         1 UNK         0.0851 
     83 H83        18.0636  -23.9136  -44.9077 H         1 UNK         0.0851 
     84 H84        19.9335  -24.8249  -42.7777 H         1 UNK         0.2976 
     85 H85        20.8490  -28.3134  -45.2411 H         1 UNK         0.3116 
     86 H86        23.2626  -30.0811  -45.3612 H         1 UNK         0.0646 
     87 H87        20.5122  -30.7202  -44.1913 H         1 UNK         0.0847 
     88 H88        21.2060  -31.4376  -45.6416 H         1 UNK         0.0847 
     89 H89        21.9433  -31.7544  -44.0912 H         1 UNK         0.0847 
     90 H90        23.0034  -27.3422  -44.4247 H         1 UNK         0.3040 
     91 H91        23.2473  -27.2583  -41.5490 H         1 UNK         0.1015 
     92 H92        22.6860  -25.2462  -42.9221 H         1 UNK         0.0786 
     93 H93        24.1876  -25.4042  -43.8252 H         1 UNK         0.0786 
     94 H94        24.2227  -24.9446  -42.1417 H         1 UNK         0.0786 
     95 H95        26.8737  -27.6142  -41.1253 H         1 UNK         0.3172 
     96 H96        24.7698  -25.7812  -40.2411 H         1 UNK         0.0595 
     97 H97        27.4353  -26.6000  -38.9946 H         1 UNK         0.0839 
     98 H98        26.4037  -25.2785  -38.4679 H         1 UNK         0.0839 
     99 H99        27.1795  -25.2006  -40.0378 H         1 UNK         0.0839 
    100 H100       24.8791  -29.0704  -40.1404 H         1 UNK         0.2998 
    101 H101       23.9978  -29.4460  -37.3521 H         1 UNK         0.0822 
    102 H102       25.4385  -31.1656  -38.3926 H         1 UNK         0.0787 
    103 H103       23.8527  -31.8555  -38.1061 H         1 UNK         0.0787 
    104 H104       24.3118  -31.3581  -39.7279 H         1 UNK         0.0787 
    105 H105       22.0024  -30.8236  -37.0860 H         1 UNK         0.3055 
    106 H106       19.6426  -29.7060  -38.4622 H         1 UNK         0.1106 
    107 H107       19.9259  -31.6927  -36.1429 H         1 UNK         0.0828 
    108 H108       19.5758  -29.9707  -36.0010 H         1 UNK         0.0828 
    109 H109       18.4126  -31.0446  -36.7597 H         1 UNK         0.0828 
    110 H110       20.6301  -30.5957  -40.4804 H         1 UNK         0.2931 
    111 H111       20.4808  -31.8728  -42.2491 H         1 UNK         0.0412 
    112 H112       22.8298  -31.6508  -41.9093 H         1 UNK         0.3472 
    113 H113       23.7421  -33.0875  -41.4997 H         1 UNK         0.3472 
    114 H114       19.1248  -34.1937  -40.8116 H         1 UNK         0.0970 
    115 H115       18.2543  -32.8312  -41.4490 H         1 UNK         0.0970 
    116 H116       17.3398  -34.3251  -44.7739 H         1 UNK         0.0612 
    117 H117       16.7757  -33.8675  -43.1888 H         1 UNK         0.0612 
@<TRIPOS>BOND
     1    1    2 1    
     2    1   62 1    
     3    1   63 1    
     4    1   64 1    
     5    2    3 2    
     6    2    4 am   BACKBONE|DICT|INTERRES
     7    4    5 1    
     8    4   65 1    
     9    5    6 1    
    10    5   25 1    
    11    5   66 1    
    12    6    7 1    
    13    6   67 1    
    14    6   68 1    
    15    7    8 1    
    16    8    9 1    
    17    8   69 1    
    18    8   70 1    
    19    9   10 ar   
    20    9   14 ar   
    21   10   11 ar   
    22   10   71 1    
    23   11   12 ar   
    24   11   61 1    
    25   12   13 ar   
    26   12   72 1    
    27   13   14 ar   
    28   13   15 1    
    29   14   73 1    
    30   15   16 1    
    31   15   74 1    
    32   15   75 1    
    33   16   17 1    
    34   17   18 1    
    35   17   76 1    
    36   17   77 1    
    37   18   19 1    
    38   18   27 1    
    39   18   78 1    
    40   19   20 am   BACKBONE|DICT|INTERRES
    41   19   79 1    
    42   20   21 2    
    43   20   22 1    
    44   22   23 1    
    45   22   24 1    
    46   22   80 1    
    47   23   81 1    
    48   23   82 1    
    49   23   83 1    
    50   24   25 am   BACKBONE|DICT|INTERRES
    51   24   84 1    
    52   25   26 2    
    53   27   28 2    
    54   27   29 am   BACKBONE|DICT|INTERRES
    55   29   30 1    
    56   29   85 1    
    57   30   31 1    
    58   30   32 1    
    59   30   86 1    
    60   31   87 1    
    61   31   88 1    
    62   31   89 1    
    63   32   33 2    
    64   32   34 am   BACKBONE|DICT|INTERRES
    65   34   35 1    
    66   34   90 1    
    67   35   36 1    
    68   35   37 1    
    69   35   91 1    
    70   36   92 1    
    71   36   93 1    
    72   36   94 1    
    73   37   38 2    
    74   37   39 am   BACKBONE|DICT|INTERRES
    75   39   40 1    
    76   39   95 1    
    77   40   41 1    
    78   40   42 1    
    79   40   96 1    
    80   41   97 1    
    81   41   98 1    
    82   41   99 1    
    83   42   43 2    
    84   42   44 am   BACKBONE|DICT|INTERRES
    85   44   45 1    
    86   44  100 1    
    87   45   46 1    
    88   45   47 1    
    89   45  101 1    
    90   46  102 1    
    91   46  103 1    
    92   46  104 1    
    93   47   48 2    
    94   47   49 am   BACKBONE|DICT|INTERRES
    95   49   50 1    
    96   49  105 1    
    97   50   51 1    
    98   50   52 1    
    99   50  106 1    
   100   51  107 1    
   101   51  108 1    
   102   51  109 1    
   103   52   53 2    
   104   52   54 am   BACKBONE|DICT|INTERRES
   105   54   55 1    
   106   54  110 1    
   107   55   56 1    
   108   55   59 1    
   109   55  111 1    
   110   56   57 am   BACKBONE|DICT|INTERRES
   111   56   58 2    
   112   57  112 1    
   113   57  113 1    
   114   59   60 1    
   115   59  114 1    
   116   59  115 1    
   117   60   61 1    
   118   61  116 1    
   119   61  117 1    
@<TRIPOS>SUBSTRUCTURE
     1 UNK         1 GROUP             0       ****    0 ROOT    
