@<TRIPOS>MOLECULE
3R8
117   119    1
SMALL
USER_CHARGES


@<TRIPOS>ATOM
      1 CA         20.5511  -28.8685  -42.2434 C.3       0 UNK        -0.2013 
      2 C          19.1451  -28.4698  -41.8291 C.2       0 UNK         0.4866 
      3 O          18.9403  -28.0669  -40.6848 O.2       0 UNK        -0.5176 
      4 N          18.1747  -28.5582  -42.7513 N.am      1 UNK        -0.4884 
      5 CA         16.7829  -28.1296  -42.5331 C.3       1 UNK         0.0853 
      6 C6         15.8375  -28.5703  -43.6771 C.3       10 UNK        -0.0849 
      7 S7         15.7912  -30.3806  -43.8923 S.3       10 UNK        -0.2776 
      8 C8         16.3813  -30.5700  -45.6061 C.3       10 UNK         0.0316 
      9 C9         17.8729  -30.2939  -45.7376 C.ar      10 UNK        -0.0863 
     10 C10        18.7952  -31.1898  -45.1910 C.ar      10 UNK        -0.1009 
     11 C11        20.1741  -30.9753  -45.3244 C.ar      10 UNK        -0.0712 
     12 C12        20.6149  -29.8471  -46.0247 C.ar      10 UNK        -0.0894 
     13 C13        19.7038  -28.9478  -46.5868 C.ar      10 UNK        -0.0745 
     14 C14        18.3326  -29.1732  -46.4346 C.ar      10 UNK        -0.0972 
     15 C15        20.1978  -27.7606  -47.4027 C.3       10 UNK         0.0209 
     16 S16        19.9556  -26.1767  -46.5429 S.3       10 UNK        -0.2568 
     17 C17        21.2750  -26.2386  -45.2868 C.3       10 UNK        -0.0983 
     18 CA         21.2469  -25.0179  -44.3275 C.3       3 UNK         0.0876 
     19 N          19.9959  -24.9568  -43.5747 N.am      3 UNK        -0.4424 
     20 C          18.9862  -24.1065  -43.7949 C.2       2 UNK         0.4918 
     21 O          19.0372  -23.1665  -44.5897 O.2       2 UNK        -0.4875 
     22 CA         17.6792  -24.4202  -43.0482 C.3       2 UNK         0.0481 
     23 CB         16.4632  -23.6478  -43.5997 C.3       2 UNK        -0.1831 
     24 N          17.4551  -25.8623  -43.1277 N.am      2 UNK        -0.4498 
     25 C          16.6860  -26.6038  -42.3235 C.2       1 UNK         0.5027 
     26 O          15.9571  -26.1447  -41.4431 O.2       1 UNK        -0.4969 
     27 C          22.4064  -25.1110  -43.3249 C.2       3 UNK         0.5005 
     28 O          22.2123  -25.5946  -42.2070 O.2       3 UNK        -0.5279 
     29 N          23.6032  -24.6983  -43.7567 N.am      4 UNK        -0.4463 
     30 CA         24.8529  -24.8265  -43.0044 C.3       4 UNK         0.0283 
     31 CB         25.6735  -23.5330  -43.1704 C.3       4 UNK        -0.1875 
     32 C          25.6154  -26.0793  -43.4722 C.2       4 UNK         0.4949 
     33 O          26.7660  -25.9771  -43.9011 O.2       4 UNK        -0.5039 
     34 N          24.9502  -27.2387  -43.4152 N.am      5 UNK        -0.4663 
     35 CA         25.4836  -28.5306  -43.8380 C.3       5 UNK         0.0242 
     36 CB         25.1759  -28.7578  -45.3291 C.3       5 UNK        -0.1982 
     37 C          24.8573  -29.6329  -42.9801 C.2       5 UNK         0.5017 
     38 O          23.6427  -29.6158  -42.7793 O.2       5 UNK        -0.5012 
     39 N          25.6950  -30.5704  -42.5118 N.am      6 UNK        -0.4439 
     40 CA         25.3487  -31.7668  -41.7283 C.3       6 UNK         0.0297 
     41 CB         24.5683  -32.7729  -42.6008 C.3       6 UNK        -0.2006 
     42 C          24.6352  -31.4783  -40.3895 C.2       6 UNK         0.4892 
     43 O          23.8646  -32.3185  -39.9222 O.2       6 UNK        -0.5089 
     44 N          24.9055  -30.3076  -39.7912 N.am      7 UNK        -0.4243 
     45 CA         24.2875  -29.7760  -38.5704 C.3       7 UNK         0.0196 
     46 CB         24.7039  -30.6002  -37.3297 C.3       7 UNK        -0.2007 
     47 C          22.7639  -29.6195  -38.7396 C.2       7 UNK         0.5020 
     48 O          22.3339  -28.6684  -39.3888 O.2       7 UNK        -0.5147 
     49 N          21.9849  -30.5468  -38.1689 N.am      8 UNK        -0.4734 
     50 CA         20.5250  -30.6160  -38.2972 C.3       8 UNK         0.0238 
     51 CB         19.9366  -31.0512  -36.9434 C.3       8 UNK        -0.1912 
     52 C          20.0639  -31.5672  -39.4204 C.2       8 UNK         0.5038 
     53 O          18.8570  -31.6980  -39.6286 O.2       8 UNK        -0.5046 
     54 N          21.0092  -32.2185  -40.1125 N.am      9 UNK        -0.4200 
     55 CA         20.7917  -33.2646  -41.1213 C.3       9 UNK         0.0839 
     56 C          20.2707  -34.6041  -40.5180 C.2       9 UNK         0.5513 
     57 N          19.8728  -35.5540  -41.3533 N.am      9 UNK        -0.7519 
     58 O          20.2585  -34.8133  -39.3061 O.2       9 UNK        -0.4960 
     59 C59        19.9725  -32.7625  -42.3493 C.3       10 UNK        -0.0876 
     60 S60        20.6066  -33.4312  -43.9257 S.3       10 UNK        -0.2414 
     61 C61        21.2312  -31.9188  -44.7421 C.3       10 UNK         0.0169 
     62 H62        21.2360  -28.0355  -42.0939 H         1 UNK         0.0903 
     63 H63        20.9137  -29.6937  -41.6336 H         1 UNK         0.0903 
     64 H64        20.6066  -29.1629  -43.2880 H         1 UNK         0.0903 
     65 H65        18.3756  -28.9508  -43.6621 H         1 UNK         0.3096 
     66 H66        16.4376  -28.5997  -41.6091 H         1 UNK         0.1121 
     67 H67        16.1199  -28.0927  -44.6171 H         1 UNK         0.0849 
     68 H68        14.8163  -28.2430  -43.4705 H         1 UNK         0.0849 
     69 H69        16.1813  -31.5914  -45.9334 H         1 UNK         0.0865 
     70 H70        15.8006  -29.9241  -46.2668 H         1 UNK         0.0865 
     71 H71        18.4170  -32.0542  -44.6655 H         1 UNK         0.1346 
     72 H72        21.6764  -29.6752  -46.1416 H         1 UNK         0.1412 
     73 H73        17.6271  -28.4826  -46.8768 H         1 UNK         0.1426 
     74 H74        21.2513  -27.8744  -47.6633 H         1 UNK         0.0716 
     75 H75        19.6542  -27.7300  -48.3480 H         1 UNK         0.0716 
     76 H76        22.2312  -26.2960  -45.8107 H         1 UNK         0.0695 
     77 H77        21.1756  -27.1699  -44.7264 H         1 UNK         0.0695 
     78 H78        21.3787  -24.1009  -44.9065 H         1 UNK         0.0983 
     79 H79        19.9317  -25.6161  -42.8114 H         1 UNK         0.3095 
     80 H80        17.8296  -24.1430  -42.0030 H         1 UNK         0.0454 
     81 H81        15.5574  -23.8692  -43.0357 H         1 UNK         0.0851 
     82 H82        16.2749  -23.8920  -44.6457 H         1 UNK         0.0851 
     83 H83        16.6232  -22.5707  -43.5380 H         1 UNK         0.0851 
     84 H84        18.0104  -26.3419  -43.8241 H         1 UNK         0.2976 
     85 H85        23.6895  -24.3554  -44.7038 H         1 UNK         0.3116 
     86 H86        24.6472  -24.9518  -41.9391 H         1 UNK         0.0646 
     87 H87        25.1213  -22.6649  -42.8101 H         1 UNK         0.0847 
     88 H88        26.6017  -23.5832  -42.5994 H         1 UNK         0.0847 
     89 H89        25.9408  -23.3516  -44.2122 H         1 UNK         0.0847 
     90 H90        24.0212  -27.2647  -43.0107 H         1 UNK         0.3040 
     91 H91        26.5663  -28.5435  -43.6916 H         1 UNK         0.1015 
     92 H92        24.1033  -28.7317  -45.5262 H         1 UNK         0.0786 
     93 H93        25.5469  -29.7279  -45.6622 H         1 UNK         0.0786 
     94 H94        25.6488  -27.9983  -45.9520 H         1 UNK         0.0786 
     95 H95        26.6777  -30.4761  -42.7318 H         1 UNK         0.3172 
     96 H96        26.2970  -32.2352  -41.4609 H         1 UNK         0.0595 
     97 H97        23.5739  -32.4020  -42.8452 H         1 UNK         0.0839 
     98 H98        24.4405  -33.7258  -42.0858 H         1 UNK         0.0839 
     99 H99        25.0888  -32.9799  -43.5357 H         1 UNK         0.0839 
    100 H100       25.5314  -29.6773  -40.2717 H         1 UNK         0.2998 
    101 H101       24.6824  -28.7674  -38.4375 H         1 UNK         0.0822 
    102 H102       24.2525  -30.1965  -36.4222 H         1 UNK         0.0787 
    103 H103       24.4167  -31.6493  -37.4030 H         1 UNK         0.0787 
    104 H104       25.7843  -30.5686  -37.1887 H         1 UNK         0.0787 
    105 H105       22.4343  -31.3074  -37.6783 H         1 UNK         0.3055 
    106 H106       20.1281  -29.6269  -38.5396 H         1 UNK         0.1106 
    107 H107       20.2247  -30.3656  -36.1465 H         1 UNK         0.0828 
    108 H108       18.8462  -31.0650  -36.9762 H         1 UNK         0.0828 
    109 H109       20.2662  -32.0524  -36.6630 H         1 UNK         0.0828 
    110 H110       21.9836  -32.0788  -39.8592 H         1 UNK         0.2931 
    111 H111       21.8036  -33.4917  -41.4570 H         1 UNK         0.0412 
    112 H112       19.5468  -36.4341  -40.9853 H         1 UNK         0.3472 
    113 H113       19.9019  -35.3999  -42.3504 H         1 UNK         0.3472 
    114 H114       18.9137  -33.0089  -42.2486 H         1 UNK         0.0970 
    115 H115       19.9996  -31.6759  -42.4089 H         1 UNK         0.0970 
    116 H116       21.8968  -32.2302  -45.5482 H         1 UNK         0.0612 
    117 H117       21.8462  -31.3628  -44.0337 H         1 UNK         0.0612 
@<TRIPOS>BOND
     1    1    2 1    
     2    1   62 1    
     3    1   63 1    
     4    1   64 1    
     5    2    3 2    
     6    2    4 am   BACKBONE|DICT|INTERRES
     7    4    5 1    
     8    4   65 1    
     9    5    6 1    
    10    5   25 1    
    11    5   66 1    
    12    6    7 1    
    13    6   67 1    
    14    6   68 1    
    15    7    8 1    
    16    8    9 1    
    17    8   69 1    
    18    8   70 1    
    19    9   10 ar   
    20    9   14 ar   
    21   10   11 ar   
    22   10   71 1    
    23   11   12 ar   
    24   11   61 1    
    25   12   13 ar   
    26   12   72 1    
    27   13   14 ar   
    28   13   15 1    
    29   14   73 1    
    30   15   16 1    
    31   15   74 1    
    32   15   75 1    
    33   16   17 1    
    34   17   18 1    
    35   17   76 1    
    36   17   77 1    
    37   18   19 1    
    38   18   27 1    
    39   18   78 1    
    40   19   20 am   BACKBONE|DICT|INTERRES
    41   19   79 1    
    42   20   21 2    
    43   20   22 1    
    44   22   23 1    
    45   22   24 1    
    46   22   80 1    
    47   23   81 1    
    48   23   82 1    
    49   23   83 1    
    50   24   25 am   BACKBONE|DICT|INTERRES
    51   24   84 1    
    52   25   26 2    
    53   27   28 2    
    54   27   29 am   BACKBONE|DICT|INTERRES
    55   29   30 1    
    56   29   85 1    
    57   30   31 1    
    58   30   32 1    
    59   30   86 1    
    60   31   87 1    
    61   31   88 1    
    62   31   89 1    
    63   32   33 2    
    64   32   34 am   BACKBONE|DICT|INTERRES
    65   34   35 1    
    66   34   90 1    
    67   35   36 1    
    68   35   37 1    
    69   35   91 1    
    70   36   92 1    
    71   36   93 1    
    72   36   94 1    
    73   37   38 2    
    74   37   39 am   BACKBONE|DICT|INTERRES
    75   39   40 1    
    76   39   95 1    
    77   40   41 1    
    78   40   42 1    
    79   40   96 1    
    80   41   97 1    
    81   41   98 1    
    82   41   99 1    
    83   42   43 2    
    84   42   44 am   BACKBONE|DICT|INTERRES
    85   44   45 1    
    86   44  100 1    
    87   45   46 1    
    88   45   47 1    
    89   45  101 1    
    90   46  102 1    
    91   46  103 1    
    92   46  104 1    
    93   47   48 2    
    94   47   49 am   BACKBONE|DICT|INTERRES
    95   49   50 1    
    96   49  105 1    
    97   50   51 1    
    98   50   52 1    
    99   50  106 1    
   100   51  107 1    
   101   51  108 1    
   102   51  109 1    
   103   52   53 2    
   104   52   54 am   BACKBONE|DICT|INTERRES
   105   54   55 1    
   106   54  110 1    
   107   55   56 1    
   108   55   59 1    
   109   55  111 1    
   110   56   57 am   BACKBONE|DICT|INTERRES
   111   56   58 2    
   112   57  112 1    
   113   57  113 1    
   114   59   60 1    
   115   59  114 1    
   116   59  115 1    
   117   60   61 1    
   118   61  116 1    
   119   61  117 1    
@<TRIPOS>SUBSTRUCTURE
     1 UNK         1 GROUP             0       ****    0 ROOT    
