@<TRIPOS>MOLECULE
3R8
117   119    1
SMALL
USER_CHARGES


@<TRIPOS>ATOM
      1 CA         15.2835  -22.9329  -46.2719 C.3       0 UNK        -0.2013 
      2 C          15.3441  -24.2541  -45.5191 C.2       0 UNK         0.4866 
      3 O          14.5004  -24.4986  -44.6557 O.2       0 UNK        -0.5176 
      4 N          16.3331  -25.0973  -45.8489 N.am      1 UNK        -0.4884 
      5 CA         16.6169  -26.4122  -45.2495 C.3       1 UNK         0.0853 
      6 C6         15.4605  -27.4396  -45.4415 C.3       10 UNK        -0.0849 
      7 S7         15.2470  -27.8519  -47.2078 S.3       10 UNK        -0.2776 
      8 C8         15.8283  -29.5828  -47.2849 C.3       10 UNK         0.0316 
      9 C9         17.1886  -29.8016  -46.6280 C.ar      10 UNK        -0.0863 
     10 C10        17.3356  -30.7776  -45.6382 C.ar      10 UNK        -0.1009 
     11 C11        18.5754  -30.9961  -45.0310 C.ar      10 UNK        -0.0712 
     12 C12        19.6734  -30.2136  -45.4022 C.ar      10 UNK        -0.0894 
     13 C13        19.5377  -29.2286  -46.3863 C.ar      10 UNK        -0.0745 
     14 C14        18.2997  -29.0437  -47.0096 C.ar      10 UNK        -0.0972 
     15 C15        20.7233  -28.3681  -46.7957 C.3       10 UNK         0.0209 
     16 S16        20.8785  -26.8909  -45.7402 S.3       10 UNK        -0.2568 
     17 C17        22.0039  -27.4887  -44.4323 C.3       10 UNK        -0.0983 
     18 CA         21.5571  -27.1027  -42.9964 C.3       3 UNK         0.0876 
     19 N          20.1870  -27.5571  -42.7194 N.am      3 UNK        -0.4424 
     20 C          19.3692  -27.1077  -41.7581 C.2       2 UNK         0.4918 
     21 O          19.7131  -26.3071  -40.8863 O.2       2 UNK        -0.4875 
     22 CA         17.9218  -27.6327  -41.8085 C.3       2 UNK         0.0481 
     23 CB         17.0175  -27.0308  -40.7120 C.3       2 UNK        -0.1831 
     24 N          17.3282  -27.4638  -43.1421 N.am      2 UNK        -0.4498 
     25 C          17.1272  -26.3049  -43.7930 C.2       1 UNK         0.5027 
     26 O          17.3851  -25.1996  -43.3082 O.2       1 UNK        -0.4969 
     27 C          22.5926  -27.5676  -41.9405 C.2       3 UNK         0.5005 
     28 O          23.6866  -28.0005  -42.3079 O.2       3 UNK        -0.5279 
     29 N          22.2573  -27.4557  -40.6473 N.am      4 UNK        -0.4463 
     30 CA         23.0259  -27.9438  -39.4943 C.3       4 UNK         0.0283 
     31 CB         22.2376  -27.6605  -38.2063 C.3       4 UNK        -0.1875 
     32 C          24.4638  -27.4057  -39.3797 C.2       4 UNK         0.4949 
     33 O          25.3055  -28.0706  -38.7762 O.2       4 UNK        -0.5039 
     34 N          24.7296  -26.2365  -39.9783 N.am      5 UNK        -0.4663 
     35 CA         26.0679  -25.6564  -40.1171 C.3       5 UNK         0.0242 
     36 CB         25.9377  -24.1993  -40.5893 C.3       5 UNK        -0.1982 
     37 C          26.9842  -26.4515  -41.0685 C.2       5 UNK         0.5017 
     38 O          28.2037  -26.3886  -40.9079 O.2       5 UNK        -0.5012 
     39 N          26.3932  -27.1765  -42.0291 N.am      6 UNK        -0.4439 
     40 CA         27.0878  -28.0819  -42.9420 C.3       6 UNK         0.0297 
     41 CB         26.4768  -27.9766  -44.3507 C.3       6 UNK        -0.2006 
     42 C          27.0141  -29.5185  -42.4075 C.2       6 UNK         0.4892 
     43 O          28.0589  -30.1406  -42.2116 O.2       6 UNK        -0.5089 
     44 N          25.7924  -30.0081  -42.1586 N.am      7 UNK        -0.4243 
     45 CA         25.5050  -31.3286  -41.6034 C.3       7 UNK         0.0196 
     46 CB         25.7861  -32.4379  -42.6366 C.3       7 UNK        -0.2007 
     47 C          24.0385  -31.3648  -41.1664 C.2       7 UNK         0.5020 
     48 O          23.1668  -30.9608  -41.9375 O.2       7 UNK        -0.5147 
     49 N          23.7843  -31.8587  -39.9488 N.am      8 UNK        -0.4734 
     50 CA         22.4373  -32.0212  -39.3948 C.3       8 UNK         0.0238 
     51 CB         22.5413  -32.3472  -37.8963 C.3       8 UNK        -0.1912 
     52 C          21.6404  -33.1078  -40.1366 C.2       8 UNK         0.5038 
     53 O          22.2195  -34.1143  -40.5537 O.2       8 UNK        -0.5046 
     54 N          20.3281  -32.8855  -40.2672 N.am      9 UNK        -0.4200 
     55 CA         19.3985  -33.7632  -40.9964 C.3       9 UNK         0.0839 
     56 C          19.0564  -35.1023  -40.2794 C.2       9 UNK         0.5513 
     57 N          19.4098  -35.2927  -39.0139 N.am      9 UNK        -0.7519 
     58 O          18.4596  -35.9869  -40.8877 O.2       9 UNK        -0.4960 
     59 C59        18.1038  -33.0136  -41.4085 C.3       10 UNK        -0.0876 
     60 S60        18.4100  -31.4599  -42.3181 S.3       10 UNK        -0.2414 
     61 C61        18.7223  -32.0943  -43.9904 C.3       10 UNK         0.0169 
     62 H62        14.3276  -22.8382  -46.7865 H         1 UNK         0.0903 
     63 H63        15.3797  -22.1002  -45.5755 H         1 UNK         0.0903 
     64 H64        16.0772  -22.8475  -47.0139 H         1 UNK         0.0903 
     65 H65        16.9965  -24.8073  -46.5538 H         1 UNK         0.3096 
     66 H66        17.4849  -26.7820  -45.7946 H         1 UNK         0.1121 
     67 H67        14.5180  -27.0505  -45.0553 H         1 UNK         0.0849 
     68 H68        15.6316  -28.3651  -44.8921 H         1 UNK         0.0849 
     69 H69        15.0711  -30.2198  -46.8247 H         1 UNK         0.0865 
     70 H70        15.8878  -29.8885  -48.3302 H         1 UNK         0.0865 
     71 H71        16.4862  -31.3791  -45.3433 H         1 UNK         0.1346 
     72 H72        20.6319  -30.3790  -44.9295 H         1 UNK         0.1412 
     73 H73        18.1925  -28.2915  -47.7797 H         1 UNK         0.1426 
     74 H74        20.6009  -28.0406  -47.8293 H         1 UNK         0.0716 
     75 H75        21.6458  -28.9504  -46.7774 H         1 UNK         0.0716 
     76 H76        22.9886  -27.0700  -44.6496 H         1 UNK         0.0695 
     77 H77        22.1163  -28.5714  -44.5077 H         1 UNK         0.0695 
     78 H78        21.5498  -26.0119  -42.9431 H         1 UNK         0.0983 
     79 H79        19.8140  -28.2175  -43.3853 H         1 UNK         0.3095 
     80 H80        17.9768  -28.7045  -41.6251 H         1 UNK         0.0454 
     81 H81        17.4086  -27.2568  -39.7193 H         1 UNK         0.0851 
     82 H82        16.0083  -27.4388  -40.7623 H         1 UNK         0.0851 
     83 H83        16.9450  -25.9458  -40.7900 H         1 UNK         0.0851 
     84 H84        17.1203  -28.3247  -43.6294 H         1 UNK         0.2976 
     85 H85        21.3491  -27.0403  -40.4510 H         1 UNK         0.3116 
     86 H86        23.1093  -29.0242  -39.6060 H         1 UNK         0.0646 
     87 H87        22.0838  -26.5913  -38.0555 H         1 UNK         0.0847 
     88 H88        21.2596  -28.1417  -38.2243 H         1 UNK         0.0847 
     89 H89        22.7670  -28.0410  -37.3314 H         1 UNK         0.0847 
     90 H90        23.9705  -25.7553  -40.4381 H         1 UNK         0.3040 
     91 H91        26.5418  -25.6584  -39.1327 H         1 UNK         0.1015 
     92 H92        26.9181  -23.7284  -40.6756 H         1 UNK         0.0786 
     93 H93        25.3557  -23.6038  -39.8856 H         1 UNK         0.0786 
     94 H94        25.4573  -24.1322  -41.5664 H         1 UNK         0.0786 
     95 H95        25.3772  -27.2272  -42.0463 H         1 UNK         0.3172 
     96 H96        28.1407  -27.8018  -43.0176 H         1 UNK         0.0595 
     97 H97        25.4187  -28.2396  -44.3637 H         1 UNK         0.0839 
     98 H98        26.9863  -28.6457  -45.0454 H         1 UNK         0.0839 
     99 H99        26.5723  -26.9656  -44.7466 H         1 UNK         0.0839 
    100 H100       24.9736  -29.4212  -42.3165 H         1 UNK         0.2998 
    101 H101       26.1418  -31.4808  -40.7293 H         1 UNK         0.0822 
    102 H102       25.5142  -33.4172  -42.2402 H         1 UNK         0.0787 
    103 H103       25.2126  -32.2857  -43.5519 H         1 UNK         0.0787 
    104 H104       26.8412  -32.4821  -42.9058 H         1 UNK         0.0787 
    105 H105       24.5491  -32.2114  -39.3915 H         1 UNK         0.3055 
    106 H106       21.9101  -31.0714  -39.5084 H         1 UNK         0.1106 
    107 H107       23.0698  -31.5621  -37.3549 H         1 UNK         0.0828 
    108 H108       21.5524  -32.4382  -37.4450 H         1 UNK         0.0828 
    109 H109       23.0661  -33.2878  -37.7230 H         1 UNK         0.0828 
    110 H110       19.9260  -32.0413  -39.8881 H         1 UNK         0.2931 
    111 H111       19.9030  -34.0518  -41.9207 H         1 UNK         0.0412 
    112 H112       19.1842  -36.1662  -38.5638 H         1 UNK         0.3472 
    113 H113       19.9039  -34.5763  -38.5072 H         1 UNK         0.3472 
    114 H114       17.5165  -32.7674  -40.5220 H         1 UNK         0.0970 
    115 H115       17.4633  -33.6547  -42.0174 H         1 UNK         0.0970 
    116 H116       18.0288  -32.9063  -44.2142 H         1 UNK         0.0612 
    117 H117       19.7244  -32.5240  -44.0301 H         1 UNK         0.0612 
@<TRIPOS>BOND
     1    1    2 1    
     2    1   62 1    
     3    1   63 1    
     4    1   64 1    
     5    2    3 2    
     6    2    4 am   BACKBONE|DICT|INTERRES
     7    4    5 1    
     8    4   65 1    
     9    5    6 1    
    10    5   25 1    
    11    5   66 1    
    12    6    7 1    
    13    6   67 1    
    14    6   68 1    
    15    7    8 1    
    16    8    9 1    
    17    8   69 1    
    18    8   70 1    
    19    9   10 ar   
    20    9   14 ar   
    21   10   11 ar   
    22   10   71 1    
    23   11   12 ar   
    24   11   61 1    
    25   12   13 ar   
    26   12   72 1    
    27   13   14 ar   
    28   13   15 1    
    29   14   73 1    
    30   15   16 1    
    31   15   74 1    
    32   15   75 1    
    33   16   17 1    
    34   17   18 1    
    35   17   76 1    
    36   17   77 1    
    37   18   19 1    
    38   18   27 1    
    39   18   78 1    
    40   19   20 am   BACKBONE|DICT|INTERRES
    41   19   79 1    
    42   20   21 2    
    43   20   22 1    
    44   22   23 1    
    45   22   24 1    
    46   22   80 1    
    47   23   81 1    
    48   23   82 1    
    49   23   83 1    
    50   24   25 am   BACKBONE|DICT|INTERRES
    51   24   84 1    
    52   25   26 2    
    53   27   28 2    
    54   27   29 am   BACKBONE|DICT|INTERRES
    55   29   30 1    
    56   29   85 1    
    57   30   31 1    
    58   30   32 1    
    59   30   86 1    
    60   31   87 1    
    61   31   88 1    
    62   31   89 1    
    63   32   33 2    
    64   32   34 am   BACKBONE|DICT|INTERRES
    65   34   35 1    
    66   34   90 1    
    67   35   36 1    
    68   35   37 1    
    69   35   91 1    
    70   36   92 1    
    71   36   93 1    
    72   36   94 1    
    73   37   38 2    
    74   37   39 am   BACKBONE|DICT|INTERRES
    75   39   40 1    
    76   39   95 1    
    77   40   41 1    
    78   40   42 1    
    79   40   96 1    
    80   41   97 1    
    81   41   98 1    
    82   41   99 1    
    83   42   43 2    
    84   42   44 am   BACKBONE|DICT|INTERRES
    85   44   45 1    
    86   44  100 1    
    87   45   46 1    
    88   45   47 1    
    89   45  101 1    
    90   46  102 1    
    91   46  103 1    
    92   46  104 1    
    93   47   48 2    
    94   47   49 am   BACKBONE|DICT|INTERRES
    95   49   50 1    
    96   49  105 1    
    97   50   51 1    
    98   50   52 1    
    99   50  106 1    
   100   51  107 1    
   101   51  108 1    
   102   51  109 1    
   103   52   53 2    
   104   52   54 am   BACKBONE|DICT|INTERRES
   105   54   55 1    
   106   54  110 1    
   107   55   56 1    
   108   55   59 1    
   109   55  111 1    
   110   56   57 am   BACKBONE|DICT|INTERRES
   111   56   58 2    
   112   57  112 1    
   113   57  113 1    
   114   59   60 1    
   115   59  114 1    
   116   59  115 1    
   117   60   61 1    
   118   61  116 1    
   119   61  117 1    
@<TRIPOS>SUBSTRUCTURE
     1 UNK         1 GROUP             0       ****    0 ROOT    
