@<TRIPOS>MOLECULE
3R8
117   119    1
SMALL
USER_CHARGES


@<TRIPOS>ATOM
      1 CA         15.7514  -22.1835  -45.3412 C.3       0 UNK        -0.2013 
      2 C          16.2313  -23.2770  -44.3979 C.2       0 UNK         0.4866 
      3 O          16.4980  -22.9954  -43.2289 O.2       0 UNK        -0.5176 
      4 N          16.3358  -24.5145  -44.9030 N.am      1 UNK        -0.4884 
      5 CA         16.8009  -25.7207  -44.1983 C.3       1 UNK         0.0853 
      6 C6         15.8792  -26.1318  -43.0103 C.3       10 UNK        -0.0849 
      7 S7         14.2336  -26.6397  -43.6169 S.3       10 UNK        -0.2776 
      8 C8         14.2257  -28.4365  -43.2839 C.3       10 UNK         0.0316 
      9 C9         15.4613  -29.1645  -43.8077 C.ar      10 UNK        -0.0863 
     10 C10        16.2231  -29.9546  -42.9403 C.ar      10 UNK        -0.1009 
     11 C11        17.3476  -30.6400  -43.4074 C.ar      10 UNK        -0.0712 
     12 C12        17.7190  -30.5208  -44.7488 C.ar      10 UNK        -0.0894 
     13 C13        16.9797  -29.7196  -45.6237 C.ar      10 UNK        -0.0745 
     14 C14        15.8392  -29.0619  -45.1512 C.ar      10 UNK        -0.0972 
     15 C15        17.3959  -29.5775  -47.0818 C.3       10 UNK         0.0209 
     16 S16        18.6673  -28.2892  -47.3143 S.3       10 UNK        -0.2568 
     17 C17        20.2079  -29.2095  -46.9644 C.3       10 UNK        -0.0983 
     18 CA         21.1723  -28.4818  -45.9917 C.3       3 UNK         0.0876 
     19 N          20.5076  -28.0068  -44.7761 N.am      3 UNK        -0.4424 
     20 C          21.0596  -27.1855  -43.8710 C.2       2 UNK         0.4918 
     21 O          22.1885  -26.7025  -43.9854 O.2       2 UNK        -0.4875 
     22 CA         20.1831  -26.8297  -42.6526 C.3       2 UNK         0.0481 
     23 CB         20.7426  -25.6512  -41.8274 C.3       2 UNK        -0.1831 
     24 N          18.7778  -26.6035  -43.0201 N.am      2 UNK        -0.4498 
     25 C          18.3066  -25.6547  -43.8474 C.2       1 UNK         0.5027 
     26 O          19.0224  -24.7993  -44.3759 O.2       1 UNK        -0.4969 
     27 C          22.3423  -29.4057  -45.6023 C.2       3 UNK         0.5005 
     28 O          22.1223  -30.3373  -44.8300 O.2       3 UNK        -0.5279 
     29 N          23.5464  -29.1317  -46.1256 N.am      4 UNK        -0.4463 
     30 CA         24.8182  -29.7760  -45.7581 C.3       4 UNK         0.0283 
     31 CB         24.8120  -31.2869  -46.0822 C.3       4 UNK        -0.1875 
     32 C          25.2510  -29.4669  -44.3064 C.2       4 UNK         0.4949 
     33 O          25.8355  -30.3257  -43.6444 O.2       4 UNK        -0.5039 
     34 N          24.9881  -28.2213  -43.8802 N.am      5 UNK        -0.4663 
     35 CA         25.2823  -27.5889  -42.5872 C.3       5 UNK         0.0242 
     36 CB         26.7635  -27.7463  -42.1849 C.3       5 UNK        -0.1982 
     37 C          24.3431  -28.0341  -41.4538 C.2       5 UNK         0.5017 
     38 O          23.8500  -29.1630  -41.4432 O.2       5 UNK        -0.5012 
     39 N          24.1275  -27.1176  -40.5002 N.am      6 UNK        -0.4439 
     40 CA         23.2990  -27.3123  -39.3080 C.3       6 UNK         0.0297 
     41 CB         23.1560  -25.9686  -38.5740 C.3       6 UNK        -0.2006 
     42 C          23.8695  -28.3819  -38.3616 C.2       6 UNK         0.4892 
     43 O          25.0772  -28.6333  -38.3698 O.2       6 UNK        -0.5089 
     44 N          22.9781  -28.9907  -37.5675 N.am      7 UNK        -0.4243 
     45 CA         23.1953  -30.0908  -36.6138 C.3       7 UNK         0.0196 
     46 CB         24.2263  -29.7228  -35.5280 C.3       7 UNK        -0.2007 
     47 C          23.5343  -31.4379  -37.2782 C.2       7 UNK         0.5020 
     48 O          22.9773  -32.4585  -36.8740 O.2       7 UNK        -0.5147 
     49 N          24.4100  -31.4237  -38.2905 N.am      8 UNK        -0.4734 
     50 CA         24.7189  -32.5644  -39.1530 C.3       8 UNK         0.0238 
     51 CB         25.9929  -32.2689  -39.9648 C.3       8 UNK        -0.1912 
     52 C          23.5306  -32.8979  -40.0686 C.2       8 UNK         0.5038 
     53 O          22.9841  -33.9983  -39.9789 O.2       8 UNK        -0.5046 
     54 N          23.1363  -31.9185  -40.8924 N.am      9 UNK        -0.4200 
     55 CA         22.0222  -31.9638  -41.8462 C.3       9 UNK         0.0839 
     56 C          22.1439  -33.0737  -42.9372 C.2       9 UNK         0.5513 
     57 N          21.0849  -33.3351  -43.6913 N.am      9 UNK        -0.7519 
     58 O          23.1939  -33.6823  -43.1363 O.2       9 UNK        -0.4960 
     59 C59        20.6379  -31.8977  -41.1261 C.3       10 UNK        -0.0876 
     60 S60        19.5839  -30.5790  -41.8196 S.3       10 UNK        -0.2414 
     61 C61        18.1677  -31.5104  -42.4695 C.3       10 UNK         0.0169 
     62 H62        14.8408  -21.7272  -44.9538 H         1 UNK         0.0903 
     63 H63        15.5394  -22.5674  -46.3389 H         1 UNK         0.0903 
     64 H64        16.5104  -21.4067  -45.4312 H         1 UNK         0.0903 
     65 H65        16.1192  -24.6563  -45.8798 H         1 UNK         0.3096 
     66 H66        16.7526  -26.5142  -44.9439 H         1 UNK         0.1121 
     67 H67        16.2931  -26.9524  -42.4250 H         1 UNK         0.0849 
     68 H68        15.7560  -25.3101  -42.3041 H         1 UNK         0.0849 
     69 H69        14.1178  -28.5855  -42.2083 H         1 UNK         0.0865 
     70 H70        13.3380  -28.8754  -43.7413 H         1 UNK         0.0865 
     71 H71        15.9395  -30.0444  -41.9003 H         1 UNK         0.1346 
     72 H72        18.5878  -31.0554  -45.1041 H         1 UNK         0.1412 
     73 H73        15.2511  -28.4537  -45.8254 H         1 UNK         0.1426 
     74 H74        17.7533  -30.5323  -47.4704 H         1 UNK         0.0716 
     75 H75        16.5278  -29.3162  -47.6890 H         1 UNK         0.0716 
     76 H76        20.7102  -29.3809  -47.9182 H         1 UNK         0.0695 
     77 H77        19.9597  -30.2015  -46.5885 H         1 UNK         0.0695 
     78 H78        21.5692  -27.6032  -46.5049 H         1 UNK         0.0983 
     79 H79        19.5837  -28.3741  -44.6061 H         1 UNK         0.3095 
     80 H80        20.1959  -27.7067  -42.0058 H         1 UNK         0.0454 
     81 H81        20.1308  -25.4560  -40.9471 H         1 UNK         0.0851 
     82 H82        20.7966  -24.7321  -42.4111 H         1 UNK         0.0851 
     83 H83        21.7519  -25.8664  -41.4788 H         1 UNK         0.0851 
     84 H84        18.1261  -27.2844  -42.6557 H         1 UNK         0.2976 
     85 H85        23.6244  -28.3558  -46.7697 H         1 UNK         0.3116 
     86 H86        25.5766  -29.3178  -46.3946 H         1 UNK         0.0646 
     87 H87        24.4861  -31.4750  -47.1048 H         1 UNK         0.0847 
     88 H88        25.8118  -31.7097  -45.9779 H         1 UNK         0.0847 
     89 H89        24.1585  -31.8459  -45.4113 H         1 UNK         0.0847 
     90 H90        24.4310  -27.6453  -44.4971 H         1 UNK         0.3040 
     91 H91        25.0978  -26.5260  -42.7539 H         1 UNK         0.1015 
     92 H92        27.0000  -27.1260  -41.3196 H         1 UNK         0.0786 
     93 H93        27.4310  -27.4445  -42.9921 H         1 UNK         0.0786 
     94 H94        27.0052  -28.7742  -41.9128 H         1 UNK         0.0786 
     95 H95        24.6150  -26.2358  -40.5623 H         1 UNK         0.3172 
     96 H96        22.3113  -27.6383  -39.6415 H         1 UNK         0.0595 
     97 H97        24.1198  -25.5963  -38.2240 H         1 UNK         0.0839 
     98 H98        22.5097  -26.0641  -37.7003 H         1 UNK         0.0839 
     99 H99        22.7144  -25.2060  -39.2157 H         1 UNK         0.0839 
    100 H100       22.0119  -28.7083  -37.6619 H         1 UNK         0.2998 
    101 H101       22.2364  -30.2291  -36.1112 H         1 UNK         0.0822 
    102 H102       23.9596  -28.7924  -35.0268 H         1 UNK         0.0787 
    103 H103       24.2765  -30.4999  -34.7642 H         1 UNK         0.0787 
    104 H104       25.2311  -29.6088  -35.9354 H         1 UNK         0.0787 
    105 H105       24.8235  -30.5264  -38.5307 H         1 UNK         0.3055 
    106 H106       24.9091  -33.4352  -38.5213 H         1 UNK         0.1106 
    107 H107       26.8537  -32.1286  -39.3110 H         1 UNK         0.0828 
    108 H108       26.2274  -33.0964  -40.6359 H         1 UNK         0.0828 
    109 H109       25.8913  -31.3718  -40.5781 H         1 UNK         0.0828 
    110 H110       23.6527  -31.0441  -40.9091 H         1 UNK         0.2931 
    111 H111       22.1642  -31.0357  -42.3964 H         1 UNK         0.0412 
    112 H112       21.1548  -34.0353  -44.4124 H         1 UNK         0.3472 
    113 H113       20.2471  -32.7869  -43.5933 H         1 UNK         0.3472 
    114 H114       20.1242  -32.8606  -41.1367 H         1 UNK         0.0970 
    115 H115       20.7650  -31.6599  -40.0687 H         1 UNK         0.0970 
    116 H116       17.5564  -31.8634  -41.6374 H         1 UNK         0.0612 
    117 H117       18.5094  -32.3989  -43.0003 H         1 UNK         0.0612 
@<TRIPOS>BOND
     1    1    2 1    
     2    1   62 1    
     3    1   63 1    
     4    1   64 1    
     5    2    3 2    
     6    2    4 am   BACKBONE|DICT|INTERRES
     7    4    5 1    
     8    4   65 1    
     9    5    6 1    
    10    5   25 1    
    11    5   66 1    
    12    6    7 1    
    13    6   67 1    
    14    6   68 1    
    15    7    8 1    
    16    8    9 1    
    17    8   69 1    
    18    8   70 1    
    19    9   10 ar   
    20    9   14 ar   
    21   10   11 ar   
    22   10   71 1    
    23   11   12 ar   
    24   11   61 1    
    25   12   13 ar   
    26   12   72 1    
    27   13   14 ar   
    28   13   15 1    
    29   14   73 1    
    30   15   16 1    
    31   15   74 1    
    32   15   75 1    
    33   16   17 1    
    34   17   18 1    
    35   17   76 1    
    36   17   77 1    
    37   18   19 1    
    38   18   27 1    
    39   18   78 1    
    40   19   20 am   BACKBONE|DICT|INTERRES
    41   19   79 1    
    42   20   21 2    
    43   20   22 1    
    44   22   23 1    
    45   22   24 1    
    46   22   80 1    
    47   23   81 1    
    48   23   82 1    
    49   23   83 1    
    50   24   25 am   BACKBONE|DICT|INTERRES
    51   24   84 1    
    52   25   26 2    
    53   27   28 2    
    54   27   29 am   BACKBONE|DICT|INTERRES
    55   29   30 1    
    56   29   85 1    
    57   30   31 1    
    58   30   32 1    
    59   30   86 1    
    60   31   87 1    
    61   31   88 1    
    62   31   89 1    
    63   32   33 2    
    64   32   34 am   BACKBONE|DICT|INTERRES
    65   34   35 1    
    66   34   90 1    
    67   35   36 1    
    68   35   37 1    
    69   35   91 1    
    70   36   92 1    
    71   36   93 1    
    72   36   94 1    
    73   37   38 2    
    74   37   39 am   BACKBONE|DICT|INTERRES
    75   39   40 1    
    76   39   95 1    
    77   40   41 1    
    78   40   42 1    
    79   40   96 1    
    80   41   97 1    
    81   41   98 1    
    82   41   99 1    
    83   42   43 2    
    84   42   44 am   BACKBONE|DICT|INTERRES
    85   44   45 1    
    86   44  100 1    
    87   45   46 1    
    88   45   47 1    
    89   45  101 1    
    90   46  102 1    
    91   46  103 1    
    92   46  104 1    
    93   47   48 2    
    94   47   49 am   BACKBONE|DICT|INTERRES
    95   49   50 1    
    96   49  105 1    
    97   50   51 1    
    98   50   52 1    
    99   50  106 1    
   100   51  107 1    
   101   51  108 1    
   102   51  109 1    
   103   52   53 2    
   104   52   54 am   BACKBONE|DICT|INTERRES
   105   54   55 1    
   106   54  110 1    
   107   55   56 1    
   108   55   59 1    
   109   55  111 1    
   110   56   57 am   BACKBONE|DICT|INTERRES
   111   56   58 2    
   112   57  112 1    
   113   57  113 1    
   114   59   60 1    
   115   59  114 1    
   116   59  115 1    
   117   60   61 1    
   118   61  116 1    
   119   61  117 1    
@<TRIPOS>SUBSTRUCTURE
     1 UNK         1 GROUP             0       ****    0 ROOT    
