@<TRIPOS>MOLECULE
3R8
117   119    1
SMALL
USER_CHARGES


@<TRIPOS>ATOM
      1 CA         15.0992  -23.5251  -44.6430 C.3       0 UNK        -0.2013 
      2 C          15.8591  -24.8414  -44.5887 C.2       0 UNK         0.4866 
      3 O          16.9461  -24.9460  -45.1586 O.2       0 UNK        -0.5176 
      4 N          15.3034  -25.8475  -43.9009 N.am      1 UNK        -0.4884 
      5 CA         15.8782  -27.1882  -43.7334 C.3       1 UNK         0.0853 
      6 C6         14.7806  -28.2450  -43.4268 C.3       10 UNK        -0.0849 
      7 S7         13.9964  -28.8262  -44.9685 S.3       10 UNK        -0.2776 
      8 C8         14.9150  -30.3750  -45.2833 C.3       10 UNK         0.0316 
      9 C9         16.4215  -30.1491  -45.3438 C.ar      10 UNK        -0.0863 
     10 C10        17.2257  -30.4680  -44.2444 C.ar      10 UNK        -0.1009 
     11 C11        18.5974  -30.2065  -44.2701 C.ar      10 UNK        -0.0712 
     12 C12        19.1745  -29.6642  -45.4194 C.ar      10 UNK        -0.0894 
     13 C13        18.3842  -29.3403  -46.5260 C.ar      10 UNK        -0.0745 
     14 C14        17.0075  -29.5875  -46.4829 C.ar      10 UNK        -0.0972 
     15 C15        19.0121  -28.7234  -47.7676 C.3       10 UNK         0.0209 
     16 S16        19.4533  -26.9729  -47.5116 S.3       10 UNK        -0.2568 
     17 C17        21.1667  -27.1004  -46.8928 C.3       10 UNK        -0.0983 
     18 CA         21.4273  -26.2674  -45.6129 C.3       3 UNK         0.0876 
     19 N          20.5028  -26.5841  -44.5157 N.am      3 UNK        -0.4424 
     20 C          20.5082  -26.0128  -43.2997 C.2       2 UNK         0.4918 
     21 O          21.3312  -25.1659  -42.9453 O.2       2 UNK        -0.4875 
     22 CA         19.3850  -26.4304  -42.3369 C.3       2 UNK         0.0481 
     23 CB         19.2537  -25.4895  -41.1212 C.3       2 UNK        -0.1831 
     24 N          18.1233  -26.5040  -43.0683 N.am      2 UNK        -0.4498 
     25 C          17.0344  -27.1902  -42.7093 C.2       1 UNK         0.5027 
     26 O          16.9280  -27.7958  -41.6413 O.2       1 UNK        -0.4969 
     27 C          22.8976  -26.4198  -45.1750 C.2       3 UNK         0.5005 
     28 O          23.2796  -27.4910  -44.6961 O.2       3 UNK        -0.5279 
     29 N          23.6692  -25.3288  -45.3012 N.am      4 UNK        -0.4463 
     30 CA         25.0813  -25.1826  -44.9159 C.3       4 UNK         0.0283 
     31 CB         25.9751  -26.0555  -45.8229 C.3       4 UNK        -0.1875 
     32 C          25.3749  -25.4262  -43.4182 C.2       4 UNK         0.4949 
     33 O          26.5405  -25.6054  -43.0625 O.2       4 UNK        -0.5039 
     34 N          24.3292  -25.4407  -42.5734 N.am      5 UNK        -0.4663 
     35 CA         24.3400  -25.8147  -41.1531 C.3       5 UNK         0.0242 
     36 CB         25.0531  -24.7352  -40.3110 C.3       5 UNK        -0.1982 
     37 C          24.8946  -27.2366  -40.9150 C.2       5 UNK         0.5017 
     38 O          25.6489  -27.4466  -39.9627 O.2       5 UNK        -0.5012 
     39 N          24.5353  -28.1735  -41.8084 N.am      6 UNK        -0.4439 
     40 CA         24.9896  -29.5675  -41.8248 C.3       6 UNK         0.0297 
     41 CB         24.3285  -30.2958  -43.0063 C.3       6 UNK        -0.2006 
     42 C          24.7209  -30.3195  -40.5080 C.2       6 UNK         0.4892 
     43 O          23.5956  -30.2902  -40.0030 O.2       6 UNK        -0.5089 
     44 N          25.7599  -30.9877  -39.9901 N.am      7 UNK        -0.4243 
     45 CA         25.7167  -31.7788  -38.7593 C.3       7 UNK         0.0196 
     46 CB         27.1479  -32.1644  -38.3519 C.3       7 UNK        -0.2007 
     47 C          24.8461  -33.0341  -38.9219 C.2       7 UNK         0.5020 
     48 O          24.9164  -33.6920  -39.9617 O.2       7 UNK        -0.5147 
     49 N          24.0450  -33.3319  -37.8886 N.am      8 UNK        -0.4734 
     50 CA         23.0895  -34.4491  -37.7818 C.3       8 UNK         0.0238 
     51 CB         23.8228  -35.8071  -37.8254 C.3       8 UNK        -0.1912 
     52 C          21.9122  -34.3975  -38.7814 C.2       8 UNK         0.5038 
     53 O          21.1469  -35.3601  -38.8579 O.2       8 UNK        -0.5046 
     54 N          21.7723  -33.2846  -39.5119 N.am      9 UNK        -0.4200 
     55 CA         20.7045  -33.0347  -40.4886 C.3       9 UNK         0.0839 
     56 C          19.3501  -32.6153  -39.8424 C.2       9 UNK         0.5513 
     57 N          19.3238  -32.1707  -38.5909 N.am      9 UNK        -0.7519 
     58 O          18.3020  -32.7183  -40.4733 O.2       9 UNK        -0.4960 
     59 C59        21.2017  -32.0222  -41.5519 C.3       10 UNK        -0.0876 
     60 S60        20.2818  -32.0753  -43.1247 S.3       10 UNK        -0.2414 
     61 C61        19.4514  -30.4636  -43.0416 C.3       10 UNK         0.0169 
     62 H62        14.8819  -23.2610  -45.6776 H         1 UNK         0.0903 
     63 H63        14.1554  -23.5753  -44.1005 H         1 UNK         0.0903 
     64 H64        15.6998  -22.7274  -44.2067 H         1 UNK         0.0903 
     65 H65        14.4177  -25.6954  -43.4391 H         1 UNK         0.3096 
     66 H66        16.3495  -27.4617  -44.6799 H         1 UNK         0.1121 
     67 H67        14.0163  -27.8350  -42.7649 H         1 UNK         0.0849 
     68 H68        15.1745  -29.1165  -42.9024 H         1 UNK         0.0849 
     69 H69        14.6672  -31.1033  -44.5093 H         1 UNK         0.0865 
     70 H70        14.5724  -30.8066  -46.2249 H         1 UNK         0.0865 
     71 H71        16.7817  -30.8906  -43.3531 H         1 UNK         0.1346 
     72 H72        20.2398  -29.4870  -45.4393 H         1 UNK         0.1412 
     73 H73        16.3857  -29.3293  -47.3296 H         1 UNK         0.1426 
     74 H74        18.3159  -28.7791  -48.6058 H         1 UNK         0.0716 
     75 H75        19.8884  -29.2979  -48.0712 H         1 UNK         0.0716 
     76 H76        21.8213  -26.7580  -47.6967 H         1 UNK         0.0695 
     77 H77        21.4302  -28.1459  -46.7313 H         1 UNK         0.0695 
     78 H78        21.2504  -25.2191  -45.8626 H         1 UNK         0.0983 
     79 H79        19.7907  -27.2664  -44.7295 H         1 UNK         0.3095 
     80 H80        19.6374  -27.4288  -41.9752 H         1 UNK         0.0454 
     81 H81        19.0027  -24.4735  -41.4276 H         1 UNK         0.0851 
     82 H82        20.1872  -25.4414  -40.5591 H         1 UNK         0.0851 
     83 H83        18.4834  -25.8308  -40.4300 H         1 UNK         0.0851 
     84 H84        18.0705  -25.9697  -43.9337 H         1 UNK         0.2976 
     85 H85        23.2421  -24.4893  -45.6699 H         1 UNK         0.3116 
     86 H86        25.3392  -24.1394  -45.1037 H         1 UNK         0.0646 
     87 H87        25.7769  -25.8666  -46.8778 H         1 UNK         0.0847 
     88 H88        25.8217  -27.1192  -45.6375 H         1 UNK         0.0847 
     89 H89        27.0321  -25.8467  -45.6533 H         1 UNK         0.0847 
     90 H90        23.4060  -25.2721  -42.9610 H         1 UNK         0.3040 
     91 H91        23.2961  -25.8430  -40.8358 H         1 UNK         0.1015 
     92 H92        26.1185  -24.6824  -40.5373 H         1 UNK         0.0786 
     93 H93        24.9574  -24.9445  -39.2448 H         1 UNK         0.0786 
     94 H94        24.6235  -23.7488  -40.4857 H         1 UNK         0.0786 
     95 H95        23.9507  -27.8886  -42.5860 H         1 UNK         0.3172 
     96 H96        26.0672  -29.5476  -41.9995 H         1 UNK         0.0595 
     97 H97        24.6109  -31.3494  -43.0294 H         1 UNK         0.0839 
     98 H98        24.6298  -29.8594  -43.9590 H         1 UNK         0.0839 
     99 H99        23.2404  -30.2486  -42.9503 H         1 UNK         0.0839 
    100 H100       26.6367  -30.9848  -40.4907 H         1 UNK         0.2998 
    101 H101       25.2915  -31.1489  -37.9746 H         1 UNK         0.0822 
    102 H102       27.7672  -31.2817  -38.1908 H         1 UNK         0.0787 
    103 H103       27.1489  -32.7338  -37.4213 H         1 UNK         0.0787 
    104 H104       27.6313  -32.7812  -39.1109 H         1 UNK         0.0787 
    105 H105       24.0673  -32.7153  -37.0865 H         1 UNK         0.3055 
    106 H106       22.6329  -34.3591  -36.7946 H         1 UNK         0.1106 
    107 H107       24.2446  -36.0105  -38.8101 H         1 UNK         0.0828 
    108 H108       23.1436  -36.6277  -37.5907 H         1 UNK         0.0828 
    109 H109       24.6339  -35.8445  -37.0983 H         1 UNK         0.0828 
    110 H110       22.4414  -32.5388  -39.3824 H         1 UNK         0.2931 
    111 H111       20.5186  -33.9799  -41.0028 H         1 UNK         0.0412 
    112 H112       18.4409  -31.9133  -38.1782 H         1 UNK         0.3472 
    113 H113       20.1735  -32.0878  -38.0565 H         1 UNK         0.3472 
    114 H114       22.2395  -32.2442  -41.8062 H         1 UNK         0.0970 
    115 H115       21.2144  -31.0092  -41.1450 H         1 UNK         0.0970 
    116 H116       18.8386  -30.4144  -42.1399 H         1 UNK         0.0612 
    117 H117       20.2026  -29.6778  -42.9478 H         1 UNK         0.0612 
@<TRIPOS>BOND
     1    1    2 1    
     2    1   62 1    
     3    1   63 1    
     4    1   64 1    
     5    2    3 2    
     6    2    4 am   BACKBONE|DICT|INTERRES
     7    4    5 1    
     8    4   65 1    
     9    5    6 1    
    10    5   25 1    
    11    5   66 1    
    12    6    7 1    
    13    6   67 1    
    14    6   68 1    
    15    7    8 1    
    16    8    9 1    
    17    8   69 1    
    18    8   70 1    
    19    9   10 ar   
    20    9   14 ar   
    21   10   11 ar   
    22   10   71 1    
    23   11   12 ar   
    24   11   61 1    
    25   12   13 ar   
    26   12   72 1    
    27   13   14 ar   
    28   13   15 1    
    29   14   73 1    
    30   15   16 1    
    31   15   74 1    
    32   15   75 1    
    33   16   17 1    
    34   17   18 1    
    35   17   76 1    
    36   17   77 1    
    37   18   19 1    
    38   18   27 1    
    39   18   78 1    
    40   19   20 am   BACKBONE|DICT|INTERRES
    41   19   79 1    
    42   20   21 2    
    43   20   22 1    
    44   22   23 1    
    45   22   24 1    
    46   22   80 1    
    47   23   81 1    
    48   23   82 1    
    49   23   83 1    
    50   24   25 am   BACKBONE|DICT|INTERRES
    51   24   84 1    
    52   25   26 2    
    53   27   28 2    
    54   27   29 am   BACKBONE|DICT|INTERRES
    55   29   30 1    
    56   29   85 1    
    57   30   31 1    
    58   30   32 1    
    59   30   86 1    
    60   31   87 1    
    61   31   88 1    
    62   31   89 1    
    63   32   33 2    
    64   32   34 am   BACKBONE|DICT|INTERRES
    65   34   35 1    
    66   34   90 1    
    67   35   36 1    
    68   35   37 1    
    69   35   91 1    
    70   36   92 1    
    71   36   93 1    
    72   36   94 1    
    73   37   38 2    
    74   37   39 am   BACKBONE|DICT|INTERRES
    75   39   40 1    
    76   39   95 1    
    77   40   41 1    
    78   40   42 1    
    79   40   96 1    
    80   41   97 1    
    81   41   98 1    
    82   41   99 1    
    83   42   43 2    
    84   42   44 am   BACKBONE|DICT|INTERRES
    85   44   45 1    
    86   44  100 1    
    87   45   46 1    
    88   45   47 1    
    89   45  101 1    
    90   46  102 1    
    91   46  103 1    
    92   46  104 1    
    93   47   48 2    
    94   47   49 am   BACKBONE|DICT|INTERRES
    95   49   50 1    
    96   49  105 1    
    97   50   51 1    
    98   50   52 1    
    99   50  106 1    
   100   51  107 1    
   101   51  108 1    
   102   51  109 1    
   103   52   53 2    
   104   52   54 am   BACKBONE|DICT|INTERRES
   105   54   55 1    
   106   54  110 1    
   107   55   56 1    
   108   55   59 1    
   109   55  111 1    
   110   56   57 am   BACKBONE|DICT|INTERRES
   111   56   58 2    
   112   57  112 1    
   113   57  113 1    
   114   59   60 1    
   115   59  114 1    
   116   59  115 1    
   117   60   61 1    
   118   61  116 1    
   119   61  117 1    
@<TRIPOS>SUBSTRUCTURE
     1 UNK         1 GROUP             0       ****    0 ROOT    
