@<TRIPOS>MOLECULE
3R8
117   119    1
SMALL
USER_CHARGES


@<TRIPOS>ATOM
      1 CA         11.9940  -25.5254  -41.8733 C.3       0 UNK        -0.2013 
      2 C          13.3057  -25.4709  -42.6425 C.2       0 UNK         0.4866 
      3 O          14.1700  -24.6545  -42.3218 O.2       0 UNK        -0.5176 
      4 N          13.4582  -26.3275  -43.6602 N.am      1 UNK        -0.4884 
      5 CA         14.6803  -26.4630  -44.4583 C.3       1 UNK         0.0853 
      6 C6         14.3969  -27.2136  -45.7818 C.3       10 UNK        -0.0849 
      7 S7         15.6613  -26.8908  -47.0571 S.3       10 UNK        -0.2776 
      8 C8         16.1890  -28.5747  -47.5117 C.3       10 UNK         0.0316 
      9 C9         17.3896  -29.0508  -46.7043 C.ar      10 UNK        -0.0863 
     10 C10        17.2396  -29.9839  -45.6727 C.ar      10 UNK        -0.1009 
     11 C11        18.3624  -30.4800  -45.0011 C.ar      10 UNK        -0.0712 
     12 C12        19.6358  -30.0371  -45.3698 C.ar      10 UNK        -0.0894 
     13 C13        19.8011  -29.0704  -46.3697 C.ar      10 UNK        -0.0745 
     14 C14        18.6682  -28.5908  -47.0337 C.ar      10 UNK        -0.0972 
     15 C15        21.1693  -28.5230  -46.7857 C.3       10 UNK         0.0209 
     16 S16        22.6130  -29.1433  -45.8444 S.3       10 UNK        -0.2568 
     17 C17        22.8509  -28.0827  -44.3672 C.3       10 UNK        -0.0983 
     18 CA         21.8693  -26.9086  -44.0998 C.3       3 UNK         0.0876 
     19 N          20.5333  -27.3707  -43.7092 N.am      3 UNK        -0.4424 
     20 C          19.4394  -26.5987  -43.7008 C.2       2 UNK         0.4918 
     21 O          19.4031  -25.4386  -44.1178 O.2       2 UNK        -0.4875 
     22 CA         18.1888  -27.2151  -43.0716 C.3       2 UNK         0.0481 
     23 CB         18.1795  -26.9911  -41.5468 C.3       2 UNK        -0.1831 
     24 N          17.0021  -26.6368  -43.6881 N.am      2 UNK        -0.4498 
     25 C          15.7768  -27.1695  -43.6385 C.2       1 UNK         0.5027 
     26 O          15.4905  -28.1883  -43.0032 O.2       1 UNK        -0.4969 
     27 C          22.4638  -25.9794  -43.0187 C.2       3 UNK         0.5005 
     28 O          23.1882  -25.0441  -43.3611 O.2       3 UNK        -0.5279 
     29 N          22.1607  -26.2727  -41.7406 N.am      4 UNK        -0.4463 
     30 CA         22.6505  -25.6022  -40.5256 C.3       4 UNK         0.0283 
     31 CB         22.1160  -24.1567  -40.4441 C.3       4 UNK        -0.1875 
     32 C          24.1832  -25.6801  -40.3490 C.2       4 UNK         0.4949 
     33 O          24.7706  -24.8270  -39.6823 O.2       4 UNK        -0.5039 
     34 N          24.8003  -26.7067  -40.9431 N.am      5 UNK        -0.4663 
     35 CA         26.2334  -26.9716  -40.9791 C.3       5 UNK         0.0242 
     36 CB         26.9305  -25.9739  -41.9271 C.3       5 UNK        -0.1982 
     37 C          26.4384  -28.4156  -41.4556 C.2       5 UNK         0.5017 
     38 O          25.4790  -29.0531  -41.9061 O.2       5 UNK        -0.5012 
     39 N          27.6875  -28.8938  -41.3627 N.am      6 UNK        -0.4439 
     40 CA         28.1480  -30.2319  -41.7497 C.3       6 UNK         0.0297 
     41 CB         28.0975  -30.4035  -43.2865 C.3       6 UNK        -0.2006 
     42 C          27.4022  -31.3247  -40.9608 C.2       6 UNK         0.4892 
     43 O          27.5612  -31.3902  -39.7408 O.2       6 UNK        -0.5089 
     44 N          26.5983  -32.1424  -41.6534 N.am      7 UNK        -0.4243 
     45 CA         25.7487  -33.1764  -41.0591 C.3       7 UNK         0.0196 
     46 CB         25.2653  -34.1271  -42.1667 C.3       7 UNK        -0.2007 
     47 C          24.5460  -32.6140  -40.2796 C.2       7 UNK         0.5020 
     48 O          24.0044  -33.3297  -39.4369 O.2       7 UNK        -0.5147 
     49 N          24.1294  -31.3732  -40.5875 N.am      8 UNK        -0.4734 
     50 CA         23.0155  -30.6303  -39.9759 C.3       8 UNK         0.0238 
     51 CB         23.4184  -30.1381  -38.5707 C.3       8 UNK        -0.1912 
     52 C          21.6742  -31.3966  -39.9830 C.2       8 UNK         0.5038 
     53 O          20.9150  -31.3215  -39.0153 O.2       8 UNK        -0.5046 
     54 N          21.4305  -32.1330  -41.0758 N.am      9 UNK        -0.4200 
     55 CA         20.2842  -33.0330  -41.2996 C.3       9 UNK         0.0839 
     56 C          20.2994  -34.3330  -40.4382 C.2       9 UNK         0.5513 
     57 N          21.3779  -34.6659  -39.7384 N.am      9 UNK        -0.7519 
     58 O          19.3230  -35.0785  -40.4294 O.2       9 UNK        -0.4960 
     59 C59        18.8989  -32.3203  -41.2623 C.3       10 UNK        -0.0876 
     60 S60        18.8304  -30.8244  -42.3011 S.3       10 UNK        -0.2414 
     61 C61        18.2209  -31.4990  -43.8788 C.3       10 UNK         0.0169 
     62 H62        11.3213  -26.2875  -42.2663 H         1 UNK         0.0903 
     63 H63        12.1840  -25.7497  -40.8240 H         1 UNK         0.0903 
     64 H64        11.4858  -24.5631  -41.9295 H         1 UNK         0.0903 
     65 H65        12.7298  -27.0000  -43.8546 H         1 UNK         0.3096 
     66 H66        15.0197  -25.4527  -44.7004 H         1 UNK         0.1121 
     67 H67        13.4469  -26.8777  -46.2011 H         1 UNK         0.0849 
     68 H68        14.2790  -28.2854  -45.6096 H         1 UNK         0.0849 
     69 H69        15.3558  -29.2734  -47.4229 H         1 UNK         0.0865 
     70 H70        16.4561  -28.5746  -48.5697 H         1 UNK         0.0865 
     71 H71        16.2527  -30.3342  -45.4024 H         1 UNK         0.1346 
     72 H72        20.4901  -30.4432  -44.8484 H         1 UNK         0.1412 
     73 H73        18.7817  -27.8618  -47.8251 H         1 UNK         0.1426 
     74 H74        21.1527  -27.4341  -46.7856 H         1 UNK         0.0716 
     75 H75        21.3271  -28.8100  -47.8262 H         1 UNK         0.0716 
     76 H76        23.8678  -27.6948  -44.4630 H         1 UNK         0.0695 
     77 H77        22.8835  -28.7445  -43.4994 H         1 UNK         0.0695 
     78 H78        21.7841  -26.3024  -45.0027 H         1 UNK         0.0983 
     79 H79        20.4562  -28.3291  -43.4015 H         1 UNK         0.3095 
     80 H80        18.1907  -28.2815  -43.2853 H         1 UNK         0.0454 
     81 H81        18.1571  -25.9296  -41.2971 H         1 UNK         0.0851 
     82 H82        19.0668  -27.4200  -41.0806 H         1 UNK         0.0851 
     83 H83        17.3167  -27.4635  -41.0776 H         1 UNK         0.0851 
     84 H84        17.1813  -25.8142  -44.2509 H         1 UNK         0.2976 
     85 H85        21.5521  -27.0618  -41.5804 H         1 UNK         0.3116 
     86 H86        22.2272  -26.1542  -39.6851 H         1 UNK         0.0646 
     87 H87        22.5548  -23.5191  -41.2121 H         1 UNK         0.0847 
     88 H88        22.3483  -23.7064  -39.4783 H         1 UNK         0.0847 
     89 H89        21.0328  -24.1263  -40.5614 H         1 UNK         0.0847 
     90 H90        24.2534  -27.3996  -41.4384 H         1 UNK         0.3040 
     91 H91        26.6383  -26.8771  -39.9692 H         1 UNK         0.1015 
     92 H92        26.5330  -26.0421  -42.9407 H         1 UNK         0.0786 
     93 H93        28.0039  -26.1583  -41.9830 H         1 UNK         0.0786 
     94 H94        26.8030  -24.9452  -41.5899 H         1 UNK         0.0786 
     95 H95        28.3926  -28.2997  -40.9485 H         1 UNK         0.3172 
     96 H96        29.1943  -30.3002  -41.4477 H         1 UNK         0.0595 
     97 H97        27.0872  -30.3103  -43.6866 H         1 UNK         0.0839 
     98 H98        28.4885  -31.3762  -43.5884 H         1 UNK         0.0839 
     99 H99        28.7116  -29.6504  -43.7804 H         1 UNK         0.0839 
    100 H100       26.5213  -32.0045  -42.6507 H         1 UNK         0.2998 
    101 H101       26.3531  -33.7509  -40.3536 H         1 UNK         0.0822 
    102 H102       26.1041  -34.6006  -42.6774 H         1 UNK         0.0787 
    103 H103       24.6477  -34.9263  -41.7537 H         1 UNK         0.0787 
    104 H104       24.6661  -33.6062  -42.9147 H         1 UNK         0.0787 
    105 H105       24.6611  -30.8521  -41.2785 H         1 UNK         0.3055 
    106 H106       22.8570  -29.7486  -40.5985 H         1 UNK         0.1106 
    107 H107       22.6524  -29.4882  -38.1457 H         1 UNK         0.0828 
    108 H108       23.5621  -30.9696  -37.8798 H         1 UNK         0.0828 
    109 H109       24.3453  -29.5652  -38.6037 H         1 UNK         0.0828 
    110 H110       22.1320  -32.1400  -41.8010 H         1 UNK         0.2931 
    111 H111       20.4202  -33.3906  -42.3207 H         1 UNK         0.0412 
    112 H112       21.3662  -35.5174  -39.1999 H         1 UNK         0.3472 
    113 H113       22.2007  -34.0719  -39.7157 H         1 UNK         0.3472 
    114 H114       18.1065  -33.0010  -41.5789 H         1 UNK         0.0970 
    115 H115       18.6492  -32.0315  -40.2402 H         1 UNK         0.0970 
    116 H116       18.7893  -32.3935  -44.1372 H         1 UNK         0.0612 
    117 H117       17.1813  -31.8075  -43.7581 H         1 UNK         0.0612 
@<TRIPOS>BOND
     1    1    2 1    
     2    1   62 1    
     3    1   63 1    
     4    1   64 1    
     5    2    3 2    
     6    2    4 am   BACKBONE|DICT|INTERRES
     7    4    5 1    
     8    4   65 1    
     9    5    6 1    
    10    5   25 1    
    11    5   66 1    
    12    6    7 1    
    13    6   67 1    
    14    6   68 1    
    15    7    8 1    
    16    8    9 1    
    17    8   69 1    
    18    8   70 1    
    19    9   10 ar   
    20    9   14 ar   
    21   10   11 ar   
    22   10   71 1    
    23   11   12 ar   
    24   11   61 1    
    25   12   13 ar   
    26   12   72 1    
    27   13   14 ar   
    28   13   15 1    
    29   14   73 1    
    30   15   16 1    
    31   15   74 1    
    32   15   75 1    
    33   16   17 1    
    34   17   18 1    
    35   17   76 1    
    36   17   77 1    
    37   18   19 1    
    38   18   27 1    
    39   18   78 1    
    40   19   20 am   BACKBONE|DICT|INTERRES
    41   19   79 1    
    42   20   21 2    
    43   20   22 1    
    44   22   23 1    
    45   22   24 1    
    46   22   80 1    
    47   23   81 1    
    48   23   82 1    
    49   23   83 1    
    50   24   25 am   BACKBONE|DICT|INTERRES
    51   24   84 1    
    52   25   26 2    
    53   27   28 2    
    54   27   29 am   BACKBONE|DICT|INTERRES
    55   29   30 1    
    56   29   85 1    
    57   30   31 1    
    58   30   32 1    
    59   30   86 1    
    60   31   87 1    
    61   31   88 1    
    62   31   89 1    
    63   32   33 2    
    64   32   34 am   BACKBONE|DICT|INTERRES
    65   34   35 1    
    66   34   90 1    
    67   35   36 1    
    68   35   37 1    
    69   35   91 1    
    70   36   92 1    
    71   36   93 1    
    72   36   94 1    
    73   37   38 2    
    74   37   39 am   BACKBONE|DICT|INTERRES
    75   39   40 1    
    76   39   95 1    
    77   40   41 1    
    78   40   42 1    
    79   40   96 1    
    80   41   97 1    
    81   41   98 1    
    82   41   99 1    
    83   42   43 2    
    84   42   44 am   BACKBONE|DICT|INTERRES
    85   44   45 1    
    86   44  100 1    
    87   45   46 1    
    88   45   47 1    
    89   45  101 1    
    90   46  102 1    
    91   46  103 1    
    92   46  104 1    
    93   47   48 2    
    94   47   49 am   BACKBONE|DICT|INTERRES
    95   49   50 1    
    96   49  105 1    
    97   50   51 1    
    98   50   52 1    
    99   50  106 1    
   100   51  107 1    
   101   51  108 1    
   102   51  109 1    
   103   52   53 2    
   104   52   54 am   BACKBONE|DICT|INTERRES
   105   54   55 1    
   106   54  110 1    
   107   55   56 1    
   108   55   59 1    
   109   55  111 1    
   110   56   57 am   BACKBONE|DICT|INTERRES
   111   56   58 2    
   112   57  112 1    
   113   57  113 1    
   114   59   60 1    
   115   59  114 1    
   116   59  115 1    
   117   60   61 1    
   118   61  116 1    
   119   61  117 1    
@<TRIPOS>SUBSTRUCTURE
     1 UNK         1 GROUP             0       ****    0 ROOT    
