@<TRIPOS>MOLECULE
3R8
117   119    1
SMALL
USER_CHARGES


@<TRIPOS>ATOM
      1 CA         16.1620  -22.4665  -41.7533 C.3       0 UNK        -0.2013 
      2 C          16.5343  -23.1619  -43.0540 C.2       0 UNK         0.4866 
      3 O          17.4210  -22.6933  -43.7676 O.2       0 UNK        -0.5176 
      4 N          15.8638  -24.2778  -43.3686 N.am      1 UNK        -0.4884 
      5 CA         16.1030  -25.0920  -44.5688 C.3       1 UNK         0.0853 
      6 C6         14.8910  -26.0044  -44.8882 C.3       10 UNK        -0.0849 
      7 S7         14.4386  -27.1455  -43.5297 S.3       10 UNK        -0.2776 
      8 C8         14.3931  -28.7578  -44.3770 C.3       10 UNK         0.0316 
      9 C9         15.7774  -29.3579  -44.5928 C.ar      10 UNK        -0.0863 
     10 C10        16.4163  -30.0371  -43.5499 C.ar      10 UNK        -0.1009 
     11 C11        17.6479  -30.6652  -43.7601 C.ar      10 UNK        -0.0712 
     12 C12        18.2425  -30.6063  -45.0237 C.ar      10 UNK        -0.0894 
     13 C13        17.6202  -29.9246  -46.0739 C.ar      10 UNK        -0.0745 
     14 C14        16.3901  -29.2970  -45.8493 C.ar      10 UNK        -0.0972 
     15 C15        18.2381  -29.9222  -47.4674 C.3       10 UNK         0.0209 
     16 S16        19.4024  -28.5444  -47.7279 S.3       10 UNK        -0.2568 
     17 C17        20.8940  -29.1351  -46.8580 C.3       10 UNK        -0.0983 
     18 CA         21.3212  -28.2307  -45.6738 C.3       3 UNK         0.0876 
     19 N          20.2332  -27.9923  -44.7246 N.am      3 UNK        -0.4424 
     20 C          20.2311  -27.0413  -43.7837 C.2       2 UNK         0.4918 
     21 O          21.1355  -26.2165  -43.6370 O.2       2 UNK        -0.4875 
     22 CA         19.0060  -27.0184  -42.8482 C.3       2 UNK         0.0481 
     23 CB         19.3990  -26.5777  -41.4258 C.3       2 UNK        -0.1831 
     24 N          17.8862  -26.1734  -43.2775 N.am      2 UNK        -0.4498 
     25 C          17.4133  -25.9059  -44.5061 C.2       1 UNK         0.5027 
     26 O          17.9284  -26.2669  -45.5618 O.2       1 UNK        -0.4969 
     27 C          22.5192  -28.8643  -44.9433 C.2       3 UNK         0.5005 
     28 O          22.3146  -29.8028  -44.1712 O.2       3 UNK        -0.5279 
     29 N          23.7345  -28.3739  -45.2299 N.am      4 UNK        -0.4463 
     30 CA         25.0175  -28.8249  -44.6689 C.3       4 UNK         0.0283 
     31 CB         25.3252  -30.2816  -45.0808 C.3       4 UNK        -0.1875 
     32 C          25.1382  -28.5944  -43.1479 C.2       4 UNK         0.4949 
     33 O          25.6934  -29.4340  -42.4382 O.2       4 UNK        -0.5039 
     34 N          24.6293  -27.4460  -42.6789 N.am      5 UNK        -0.4663 
     35 CA         24.7222  -26.9774  -41.2919 C.3       5 UNK         0.0242 
     36 CB         23.9178  -25.6713  -41.1727 C.3       5 UNK        -0.1982 
     37 C          26.1849  -26.7668  -40.8316 C.2       5 UNK         0.5017 
     38 O          27.0288  -26.4396  -41.6670 O.2       5 UNK        -0.5012 
     39 N          26.5140  -26.9033  -39.5369 N.am      6 UNK        -0.4439 
     40 CA         25.6375  -27.2081  -38.3986 C.3       6 UNK         0.0297 
     41 CB         26.3283  -26.7456  -37.1056 C.3       6 UNK        -0.2006 
     42 C          25.2369  -28.6890  -38.2778 C.2       6 UNK         0.4892 
     43 O          24.2391  -28.9793  -37.6188 O.2       6 UNK        -0.5089 
     44 N          25.9712  -29.5964  -38.9350 N.am      7 UNK        -0.4243 
     45 CA         25.7151  -31.0438  -38.9533 C.3       7 UNK         0.0196 
     46 CB         27.0438  -31.7755  -39.2209 C.3       7 UNK        -0.2007 
     47 C          24.6115  -31.4444  -39.9580 C.2       7 UNK         0.5020 
     48 O          24.7375  -32.4626  -40.6422 O.2       7 UNK        -0.5147 
     49 N          23.5545  -30.6286  -40.0476 N.am      8 UNK        -0.4734 
     50 CA         22.4673  -30.7668  -41.0122 C.3       8 UNK         0.0238 
     51 CB         21.6271  -29.4812  -41.0141 C.3       8 UNK        -0.1912 
     52 C          21.5942  -31.9904  -40.7101 C.2       8 UNK         0.5038 
     53 O          21.1188  -32.1241  -39.5800 O.2       8 UNK        -0.5046 
     54 N          21.3983  -32.8454  -41.7233 N.am      9 UNK        -0.4200 
     55 CA         20.6436  -34.1098  -41.6481 C.3       9 UNK         0.0839 
     56 C          21.2533  -35.1689  -40.6744 C.2       9 UNK         0.5513 
     57 N          22.5195  -35.0611  -40.2863 N.am      9 UNK        -0.7519 
     58 O          20.5856  -36.1269  -40.2927 O.2       9 UNK        -0.4960 
     59 C59        19.1148  -33.8809  -41.4411 C.3       10 UNK        -0.0876 
     60 S60        18.2985  -33.2180  -42.9335 S.3       10 UNK        -0.2414 
     61 C61        18.3336  -31.4244  -42.6335 C.3       10 UNK         0.0169 
     62 H62        17.0273  -22.4184  -41.0927 H         1 UNK         0.0903 
     63 H63        15.8297  -21.4484  -41.9542 H         1 UNK         0.0903 
     64 H64        15.3617  -22.9863  -41.2267 H         1 UNK         0.0903 
     65 H65        15.1370  -24.6203  -42.7543 H         1 UNK         0.3096 
     66 H66        16.2191  -24.4043  -45.4101 H         1 UNK         0.1121 
     67 H67        14.0193  -25.3841  -45.1025 H         1 UNK         0.0849 
     68 H68        15.0739  -26.5669  -45.8055 H         1 UNK         0.0849 
     69 H69        13.7986  -29.4463  -43.7744 H         1 UNK         0.0865 
     70 H70        13.8599  -28.6607  -45.3241 H         1 UNK         0.0865 
     71 H71        15.9422  -30.0927  -42.5793 H         1 UNK         0.1346 
     72 H72        19.1806  -31.1179  -45.1887 H         1 UNK         0.1412 
     73 H73        15.8975  -28.7836  -46.6637 H         1 UNK         0.1426 
     74 H74        17.4480  -29.8474  -48.2161 H         1 UNK         0.0716 
     75 H75        18.7396  -30.8715  -47.6621 H         1 UNK         0.0716 
     76 H76        21.6990  -29.1834  -47.5937 H         1 UNK         0.0695 
     77 H77        20.7407  -30.1632  -46.5286 H         1 UNK         0.0695 
     78 H78        21.6224  -27.2612  -46.0769 H         1 UNK         0.0983 
     79 H79        19.4241  -28.5894  -44.8213 H         1 UNK         0.3095 
     80 H80        18.6258  -28.0390  -42.7825 H         1 UNK         0.0454 
     81 H81        20.2724  -27.1173  -41.0645 H         1 UNK         0.0851 
     82 H82        18.5929  -26.7589  -40.7148 H         1 UNK         0.0851 
     83 H83        19.6462  -25.5158  -41.3902 H         1 UNK         0.0851 
     84 H84        17.3398  -25.7848  -42.5235 H         1 UNK         0.2976 
     85 H85        23.7966  -27.6053  -45.8843 H         1 UNK         0.3116 
     86 H86        25.7825  -28.1941  -45.1240 H         1 UNK         0.0646 
     87 H87        24.6509  -30.9911  -44.6003 H         1 UNK         0.0847 
     88 H88        26.3404  -30.5606  -44.7958 H         1 UNK         0.0847 
     89 H89        25.2440  -30.4170  -46.1591 H         1 UNK         0.0847 
     90 H90        24.1939  -26.8161  -43.3368 H         1 UNK         0.3040 
     91 H91        24.2555  -27.7404  -40.6727 H         1 UNK         0.1015 
     92 H92        23.9462  -25.2688  -40.1604 H         1 UNK         0.0786 
     93 H93        22.8688  -25.8281  -41.4258 H         1 UNK         0.0786 
     94 H94        24.3091  -24.8983  -41.8355 H         1 UNK         0.0786 
     95 H95        27.4831  -26.7490  -39.2974 H         1 UNK         0.3172 
     96 H96        24.7167  -26.6326  -38.4980 H         1 UNK         0.0595 
     97 H97        27.2667  -27.2750  -36.9348 H         1 UNK         0.0839 
     98 H98        25.6927  -26.9237  -36.2366 H         1 UNK         0.0839 
     99 H99        26.5442  -25.6772  -37.1297 H         1 UNK         0.0839 
    100 H100       26.7373  -29.2697  -39.5068 H         1 UNK         0.2998 
    101 H101       25.3639  -31.3490  -37.9651 H         1 UNK         0.0822 
    102 H102       27.8028  -31.5035  -38.4871 H         1 UNK         0.0787 
    103 H103       26.9156  -32.8573  -39.1635 H         1 UNK         0.0787 
    104 H104       27.4349  -31.5446  -40.2128 H         1 UNK         0.0787 
    105 H105       23.4852  -29.8771  -39.3730 H         1 UNK         0.3055 
    106 H106       22.9233  -30.8901  -41.9960 H         1 UNK         0.1106 
    107 H107       22.2192  -28.6228  -41.3265 H         1 UNK         0.0828 
    108 H108       20.7996  -29.5565  -41.7180 H         1 UNK         0.0828 
    109 H109       21.2054  -29.2694  -40.0308 H         1 UNK         0.0828 
    110 H110       21.8367  -32.6539  -42.6129 H         1 UNK         0.2931 
    111 H111       20.7675  -34.5707  -42.6288 H         1 UNK         0.0412 
    112 H112       23.0886  -34.2825  -40.5875 H         1 UNK         0.3472 
    113 H113       22.9063  -35.7582  -39.6698 H         1 UNK         0.3472 
    114 H114       18.6083  -34.8219  -41.2209 H         1 UNK         0.0970 
    115 H115       18.9180  -33.2374  -40.5828 H         1 UNK         0.0970 
    116 H116       17.8665  -31.2037  -41.6726 H         1 UNK         0.0612 
    117 H117       19.3687  -31.0952  -42.5668 H         1 UNK         0.0612 
@<TRIPOS>BOND
     1    1    2 1    
     2    1   62 1    
     3    1   63 1    
     4    1   64 1    
     5    2    3 2    
     6    2    4 am   BACKBONE|DICT|INTERRES
     7    4    5 1    
     8    4   65 1    
     9    5    6 1    
    10    5   25 1    
    11    5   66 1    
    12    6    7 1    
    13    6   67 1    
    14    6   68 1    
    15    7    8 1    
    16    8    9 1    
    17    8   69 1    
    18    8   70 1    
    19    9   10 ar   
    20    9   14 ar   
    21   10   11 ar   
    22   10   71 1    
    23   11   12 ar   
    24   11   61 1    
    25   12   13 ar   
    26   12   72 1    
    27   13   14 ar   
    28   13   15 1    
    29   14   73 1    
    30   15   16 1    
    31   15   74 1    
    32   15   75 1    
    33   16   17 1    
    34   17   18 1    
    35   17   76 1    
    36   17   77 1    
    37   18   19 1    
    38   18   27 1    
    39   18   78 1    
    40   19   20 am   BACKBONE|DICT|INTERRES
    41   19   79 1    
    42   20   21 2    
    43   20   22 1    
    44   22   23 1    
    45   22   24 1    
    46   22   80 1    
    47   23   81 1    
    48   23   82 1    
    49   23   83 1    
    50   24   25 am   BACKBONE|DICT|INTERRES
    51   24   84 1    
    52   25   26 2    
    53   27   28 2    
    54   27   29 am   BACKBONE|DICT|INTERRES
    55   29   30 1    
    56   29   85 1    
    57   30   31 1    
    58   30   32 1    
    59   30   86 1    
    60   31   87 1    
    61   31   88 1    
    62   31   89 1    
    63   32   33 2    
    64   32   34 am   BACKBONE|DICT|INTERRES
    65   34   35 1    
    66   34   90 1    
    67   35   36 1    
    68   35   37 1    
    69   35   91 1    
    70   36   92 1    
    71   36   93 1    
    72   36   94 1    
    73   37   38 2    
    74   37   39 am   BACKBONE|DICT|INTERRES
    75   39   40 1    
    76   39   95 1    
    77   40   41 1    
    78   40   42 1    
    79   40   96 1    
    80   41   97 1    
    81   41   98 1    
    82   41   99 1    
    83   42   43 2    
    84   42   44 am   BACKBONE|DICT|INTERRES
    85   44   45 1    
    86   44  100 1    
    87   45   46 1    
    88   45   47 1    
    89   45  101 1    
    90   46  102 1    
    91   46  103 1    
    92   46  104 1    
    93   47   48 2    
    94   47   49 am   BACKBONE|DICT|INTERRES
    95   49   50 1    
    96   49  105 1    
    97   50   51 1    
    98   50   52 1    
    99   50  106 1    
   100   51  107 1    
   101   51  108 1    
   102   51  109 1    
   103   52   53 2    
   104   52   54 am   BACKBONE|DICT|INTERRES
   105   54   55 1    
   106   54  110 1    
   107   55   56 1    
   108   55   59 1    
   109   55  111 1    
   110   56   57 am   BACKBONE|DICT|INTERRES
   111   56   58 2    
   112   57  112 1    
   113   57  113 1    
   114   59   60 1    
   115   59  114 1    
   116   59  115 1    
   117   60   61 1    
   118   61  116 1    
   119   61  117 1    
@<TRIPOS>SUBSTRUCTURE
     1 UNK         1 GROUP             0       ****    0 ROOT    
