@<TRIPOS>MOLECULE
3R8
117   119    1
SMALL
USER_CHARGES


@<TRIPOS>ATOM
      1 CA         19.6778  -27.2236  -40.9763 C.3       0 UNK        -0.2013 
      2 C          19.3773  -26.7316  -42.3824 C.2       0 UNK         0.4866 
      3 O          19.8390  -27.3444  -43.3475 O.2       0 UNK        -0.5176 
      4 N          18.6344  -25.6172  -42.5029 N.am      1 UNK        -0.4884 
      5 CA         18.0583  -25.0339  -43.7348 C.3       1 UNK         0.0853 
      6 C6         17.0338  -25.9914  -44.3957 C.3       10 UNK        -0.0849 
      7 S7         15.4851  -26.2356  -43.4532 S.3       10 UNK        -0.2776 
      8 C8         15.6494  -27.8982  -42.6985 C.3       10 UNK         0.0316 
      9 C9         16.0226  -29.0618  -43.6236 C.ar      10 UNK        -0.0863 
     10 C10        16.4075  -30.2700  -43.0342 C.ar      10 UNK        -0.1009 
     11 C11        16.8843  -31.3284  -43.8123 C.ar      10 UNK        -0.0712 
     12 C12        17.0091  -31.1656  -45.1944 C.ar      10 UNK        -0.0894 
     13 C13        16.6216  -29.9667  -45.7988 C.ar      10 UNK        -0.0745 
     14 C14        16.0585  -28.9542  -45.0200 C.ar      10 UNK        -0.0972 
     15 C15        16.9082  -29.7128  -47.2724 C.3       10 UNK         0.0209 
     16 S16        18.2084  -28.4411  -47.4912 S.3       10 UNK        -0.2568 
     17 C17        19.5669  -29.1333  -46.4885 C.3       10 UNK        -0.0983 
     18 CA         20.8875  -28.3248  -46.5768 C.3       3 UNK         0.0876 
     19 N          20.7736  -26.9709  -46.0273 N.am      3 UNK        -0.4424 
     20 C          21.5749  -25.9406  -46.3424 C.2       2 UNK         0.4918 
     21 O          22.3822  -25.9722  -47.2715 O.2       2 UNK        -0.4875 
     22 CA         21.5168  -24.6821  -45.4427 C.3       2 UNK         0.0481 
     23 CB         21.6092  -23.3696  -46.2493 C.3       2 UNK        -0.1831 
     24 N          20.3879  -24.6844  -44.5007 N.am      2 UNK        -0.4498 
     25 C          19.0866  -24.5740  -44.8001 C.2       1 UNK         0.5027 
     26 O          18.6784  -24.1753  -45.8916 O.2       1 UNK        -0.4969 
     27 C          22.0112  -29.0519  -45.8158 C.2       3 UNK         0.5005 
     28 O          22.9759  -29.5057  -46.4331 O.2       3 UNK        -0.5279 
     29 N          21.8752  -29.1036  -44.4821 N.am      4 UNK        -0.4463 
     30 CA         22.8925  -29.5974  -43.5496 C.3       4 UNK         0.0283 
     31 CB         22.2243  -30.5228  -42.5225 C.3       4 UNK        -0.1875 
     32 C          23.6322  -28.4429  -42.8489 C.2       4 UNK         0.4949 
     33 O          24.7168  -28.6658  -42.3099 O.2       4 UNK        -0.5039 
     34 N          23.0555  -27.2304  -42.8900 N.am      5 UNK        -0.4663 
     35 CA         23.5868  -25.9766  -42.3432 C.3       5 UNK         0.0242 
     36 CB         24.8331  -25.5220  -43.1402 C.3       5 UNK        -0.1982 
     37 C          23.8084  -26.0642  -40.8218 C.2       5 UNK         0.5017 
     38 O          22.8279  -26.0908  -40.0783 O.2       5 UNK        -0.5012 
     39 N          25.0749  -26.0937  -40.3884 N.am      6 UNK        -0.4439 
     40 CA         25.4743  -26.2115  -38.9849 C.3       6 UNK         0.0297 
     41 CB         26.9208  -25.7118  -38.8336 C.3       6 UNK        -0.2006 
     42 C          25.3393  -27.6396  -38.4240 C.2       6 UNK         0.4892 
     43 O          25.2983  -27.7928  -37.2020 O.2       6 UNK        -0.5089 
     44 N          25.2968  -28.6527  -39.3001 N.am      7 UNK        -0.4243 
     45 CA         25.1395  -30.0581  -38.9277 C.3       7 UNK         0.0196 
     46 CB         25.8784  -30.9290  -39.9593 C.3       7 UNK        -0.2007 
     47 C          23.6551  -30.4476  -38.8592 C.2       7 UNK         0.5020 
     48 O          22.7952  -29.7353  -39.3814 O.2       7 UNK        -0.5147 
     49 N          23.3877  -31.6053  -38.2471 N.am      8 UNK        -0.4734 
     50 CA         22.0922  -32.2821  -38.3079 C.3       8 UNK         0.0238 
     51 CB         21.8808  -33.0793  -37.0100 C.3       8 UNK        -0.1912 
     52 C          22.0600  -33.2203  -39.5249 C.2       8 UNK         0.5038 
     53 O          23.1061  -33.7467  -39.9155 O.2       8 UNK        -0.5046 
     54 N          20.8635  -33.4314  -40.0829 N.am      9 UNK        -0.4200 
     55 CA         20.6146  -34.3701  -41.1875 C.3       9 UNK         0.0839 
     56 C          20.8089  -35.8506  -40.7598 C.2       9 UNK         0.5513 
     57 N          21.2968  -36.6959  -41.6572 N.am      9 UNK        -0.7519 
     58 O          20.4801  -36.2452  -39.6427 O.2       9 UNK        -0.4960 
     59 C59        19.2076  -34.1641  -41.8023 C.3       10 UNK        -0.0876 
     60 S60        19.0001  -32.4957  -42.5025 S.3       10 UNK        -0.2414 
     61 C61        17.3094  -32.6272  -43.1497 C.3       10 UNK         0.0169 
     62 H62        19.0281  -28.0627  -40.7297 H         1 UNK         0.0903 
     63 H63        20.7099  -27.5662  -40.9059 H         1 UNK         0.0903 
     64 H64        19.5315  -26.4418  -40.2315 H         1 UNK         0.0903 
     65 H65        18.3365  -25.1539  -41.6547 H         1 UNK         0.3096 
     66 H66        17.5308  -24.1271  -43.4342 H         1 UNK         0.1121 
     67 H67        16.7099  -25.6206  -45.3701 H         1 UNK         0.0849 
     68 H68        17.5300  -26.9378  -44.6001 H         1 UNK         0.0849 
     69 H69        16.3989  -27.8264  -41.9090 H         1 UNK         0.0865 
     70 H70        14.7083  -28.1401  -42.2029 H         1 UNK         0.0865 
     71 H71        16.3692  -30.3794  -41.9586 H         1 UNK         0.1346 
     72 H72        17.4401  -31.9577  -45.7913 H         1 UNK         0.1412 
     73 H73        15.7490  -28.0435  -45.5111 H         1 UNK         0.1426 
     74 H74        15.9955  -29.3824  -47.7702 H         1 UNK         0.0716 
     75 H75        17.2194  -30.6314  -47.7721 H         1 UNK         0.0716 
     76 H76        19.2296  -29.1926  -45.4518 H         1 UNK         0.0695 
     77 H77        19.7291  -30.1616  -46.8181 H         1 UNK         0.0695 
     78 H78        21.1791  -28.2609  -47.6276 H         1 UNK         0.0983 
     79 H79        20.1704  -26.8818  -45.2169 H         1 UNK         0.3095 
     80 H80        22.4088  -24.7279  -44.8202 H         1 UNK         0.0454 
     81 H81        22.5648  -23.3019  -46.7705 H         1 UNK         0.0851 
     82 H82        20.8289  -23.2970  -47.0068 H         1 UNK         0.0851 
     83 H83        21.5333  -22.4969  -45.6010 H         1 UNK         0.0851 
     84 H84        20.5961  -25.0020  -43.5649 H         1 UNK         0.2976 
     85 H85        21.0396  -28.6981  -44.0675 H         1 UNK         0.3116 
     86 H86        23.6426  -30.1814  -44.0866 H         1 UNK         0.0646 
     87 H87        21.4774  -29.9984  -41.9249 H         1 UNK         0.0847 
     88 H88        22.9620  -30.9379  -41.8354 H         1 UNK         0.0847 
     89 H89        21.7351  -31.3649  -43.0108 H         1 UNK         0.0847 
     90 H90        22.1356  -27.1771  -43.3028 H         1 UNK         0.3040 
     91 H91        22.8149  -25.2188  -42.4823 H         1 UNK         0.1015 
     92 H92        24.5991  -25.3941  -44.1967 H         1 UNK         0.0786 
     93 H93        25.6533  -26.2380  -43.0800 H         1 UNK         0.0786 
     94 H94        25.2026  -24.5612  -42.7787 H         1 UNK         0.0786 
     95 H95        25.8138  -26.0879  -41.0770 H         1 UNK         0.3172 
     96 H96        24.8291  -25.5638  -38.3872 H         1 UNK         0.0595 
     97 H97        27.0206  -24.6764  -39.1600 H         1 UNK         0.0839 
     98 H98        27.6207  -26.3169  -39.4114 H         1 UNK         0.0839 
     99 H99        27.2403  -25.7522  -37.7912 H         1 UNK         0.0839 
    100 H100       25.2381  -28.4464  -40.2918 H         1 UNK         0.2998 
    101 H101       25.5880  -30.2293  -37.9465 H         1 UNK         0.0822 
    102 H102       25.4359  -30.8437  -40.9522 H         1 UNK         0.0787 
    103 H103       26.9289  -30.6483  -40.0361 H         1 UNK         0.0787 
    104 H104       25.8456  -31.9835  -39.6822 H         1 UNK         0.0787 
    105 H105       24.1586  -32.1571  -37.8979 H         1 UNK         0.3055 
    106 H106       21.2909  -31.5450  -38.4026 H         1 UNK         0.1106 
    107 H107       21.9011  -32.4274  -36.1365 H         1 UNK         0.0828 
    108 H108       20.9137  -33.5841  -37.0143 H         1 UNK         0.0828 
    109 H109       22.6458  -33.8452  -36.8754 H         1 UNK         0.0828 
    110 H110       20.0485  -32.9786  -39.6975 H         1 UNK         0.2931 
    111 H111       21.3516  -34.1510  -41.9637 H         1 UNK         0.0412 
    112 H112       21.5611  -36.3831  -42.5788 H         1 UNK         0.3472 
    113 H113       21.4154  -37.6650  -41.4048 H         1 UNK         0.3472 
    114 H114       18.4304  -34.3370  -41.0552 H         1 UNK         0.0970 
    115 H115       19.0323  -34.8868  -42.6019 H         1 UNK         0.0970 
    116 H116       17.2547  -33.4528  -43.8611 H         1 UNK         0.0612 
    117 H117       16.6251  -32.8702  -42.3352 H         1 UNK         0.0612 
@<TRIPOS>BOND
     1    1    2 1    
     2    1   62 1    
     3    1   63 1    
     4    1   64 1    
     5    2    3 2    
     6    2    4 am   BACKBONE|DICT|INTERRES
     7    4    5 1    
     8    4   65 1    
     9    5    6 1    
    10    5   25 1    
    11    5   66 1    
    12    6    7 1    
    13    6   67 1    
    14    6   68 1    
    15    7    8 1    
    16    8    9 1    
    17    8   69 1    
    18    8   70 1    
    19    9   10 ar   
    20    9   14 ar   
    21   10   11 ar   
    22   10   71 1    
    23   11   12 ar   
    24   11   61 1    
    25   12   13 ar   
    26   12   72 1    
    27   13   14 ar   
    28   13   15 1    
    29   14   73 1    
    30   15   16 1    
    31   15   74 1    
    32   15   75 1    
    33   16   17 1    
    34   17   18 1    
    35   17   76 1    
    36   17   77 1    
    37   18   19 1    
    38   18   27 1    
    39   18   78 1    
    40   19   20 am   BACKBONE|DICT|INTERRES
    41   19   79 1    
    42   20   21 2    
    43   20   22 1    
    44   22   23 1    
    45   22   24 1    
    46   22   80 1    
    47   23   81 1    
    48   23   82 1    
    49   23   83 1    
    50   24   25 am   BACKBONE|DICT|INTERRES
    51   24   84 1    
    52   25   26 2    
    53   27   28 2    
    54   27   29 am   BACKBONE|DICT|INTERRES
    55   29   30 1    
    56   29   85 1    
    57   30   31 1    
    58   30   32 1    
    59   30   86 1    
    60   31   87 1    
    61   31   88 1    
    62   31   89 1    
    63   32   33 2    
    64   32   34 am   BACKBONE|DICT|INTERRES
    65   34   35 1    
    66   34   90 1    
    67   35   36 1    
    68   35   37 1    
    69   35   91 1    
    70   36   92 1    
    71   36   93 1    
    72   36   94 1    
    73   37   38 2    
    74   37   39 am   BACKBONE|DICT|INTERRES
    75   39   40 1    
    76   39   95 1    
    77   40   41 1    
    78   40   42 1    
    79   40   96 1    
    80   41   97 1    
    81   41   98 1    
    82   41   99 1    
    83   42   43 2    
    84   42   44 am   BACKBONE|DICT|INTERRES
    85   44   45 1    
    86   44  100 1    
    87   45   46 1    
    88   45   47 1    
    89   45  101 1    
    90   46  102 1    
    91   46  103 1    
    92   46  104 1    
    93   47   48 2    
    94   47   49 am   BACKBONE|DICT|INTERRES
    95   49   50 1    
    96   49  105 1    
    97   50   51 1    
    98   50   52 1    
    99   50  106 1    
   100   51  107 1    
   101   51  108 1    
   102   51  109 1    
   103   52   53 2    
   104   52   54 am   BACKBONE|DICT|INTERRES
   105   54   55 1    
   106   54  110 1    
   107   55   56 1    
   108   55   59 1    
   109   55  111 1    
   110   56   57 am   BACKBONE|DICT|INTERRES
   111   56   58 2    
   112   57  112 1    
   113   57  113 1    
   114   59   60 1    
   115   59  114 1    
   116   59  115 1    
   117   60   61 1    
   118   61  116 1    
   119   61  117 1    
@<TRIPOS>SUBSTRUCTURE
     1 UNK         1 GROUP             0       ****    0 ROOT    
