@<TRIPOS>MOLECULE
3R8
117   119    1
SMALL
USER_CHARGES


@<TRIPOS>ATOM
      1 CA         12.9276  -22.0036  -44.6561 C.3       0 UNK        -0.2013 
      2 C          14.1943  -22.6602  -45.1846 C.2       0 UNK         0.4866 
      3 O          14.9416  -22.0327  -45.9360 O.2       0 UNK        -0.5176 
      4 N          14.4386  -23.9211  -44.8055 N.am      1 UNK        -0.4884 
      5 CA         15.6410  -24.6802  -45.1614 C.3       1 UNK         0.0853 
      6 C6         15.4246  -26.1953  -44.9312 C.3       10 UNK        -0.0849 
      7 S7         16.6737  -27.2330  -45.7671 S.3       10 UNK        -0.2776 
      8 C8         16.1192  -28.9025  -45.2761 C.3       10 UNK         0.0316 
      9 C9         16.9574  -29.5068  -44.1531 C.ar      10 UNK        -0.0863 
     10 C10        17.4753  -30.7997  -44.2868 C.ar      10 UNK        -0.1009 
     11 C11        18.2265  -31.3790  -43.2589 C.ar      10 UNK        -0.0712 
     12 C12        18.4827  -30.6436  -42.0977 C.ar      10 UNK        -0.0894 
     13 C13        17.9875  -29.3447  -41.9556 C.ar      10 UNK        -0.0745 
     14 C14        17.1999  -28.7971  -42.9727 C.ar      10 UNK        -0.0972 
     15 C15        18.2984  -28.5405  -40.6987 C.3       10 UNK         0.0209 
     16 S16        18.9280  -26.8671  -41.0638 S.3       10 UNK        -0.2568 
     17 C17        20.4773  -27.2154  -41.9668 C.3       10 UNK        -0.0983 
     18 CA         20.3341  -27.1141  -43.5134 C.3       3 UNK         0.0876 
     19 N          19.6955  -25.8831  -44.0059 N.am      3 UNK        -0.4424 
     20 C          20.0647  -24.6117  -43.7929 C.2       2 UNK         0.4918 
     21 O          21.0344  -24.2875  -43.1056 O.2       2 UNK        -0.4875 
     22 CA         19.2580  -23.5095  -44.5043 C.3       2 UNK         0.0481 
     23 CB         20.1010  -22.8792  -45.6255 C.3       2 UNK        -0.1831 
     24 N          17.9925  -23.9833  -45.0736 N.am      2 UNK        -0.4498 
     25 C          16.8601  -24.1501  -44.3772 C.2       1 UNK         0.5027 
     26 O          16.7552  -23.9221  -43.1694 O.2       1 UNK        -0.4969 
     27 C          21.6796  -27.3955  -44.2124 C.2       3 UNK         0.5005 
     28 O          21.8660  -28.4918  -44.7428 O.2       3 UNK        -0.5279 
     29 N          22.5823  -26.4021  -44.2092 N.am      4 UNK        -0.4463 
     30 CA         23.9490  -26.3742  -44.7480 C.3       4 UNK         0.0283 
     31 CB         23.9669  -26.5840  -46.2752 C.3       4 UNK        -0.1875 
     32 C          24.8998  -27.3417  -44.0251 C.2       4 UNK         0.4949 
     33 O          25.8613  -26.8997  -43.3956 O.2       4 UNK        -0.5039 
     34 N          24.5892  -28.6395  -44.0847 N.am      5 UNK        -0.4663 
     35 CA         25.2498  -29.7123  -43.3478 C.3       5 UNK         0.0242 
     36 CB         25.0930  -31.0210  -44.1456 C.3       5 UNK        -0.1982 
     37 C          24.6570  -29.7973  -41.9311 C.2       5 UNK         0.5017 
     38 O          23.9490  -30.7543  -41.6152 O.2       5 UNK        -0.5012 
     39 N          24.9210  -28.7667  -41.1149 N.am      6 UNK        -0.4439 
     40 CA         24.4470  -28.6294  -39.7343 C.3       6 UNK         0.0297 
     41 CB         24.9916  -27.3240  -39.1336 C.3       6 UNK        -0.2006 
     42 C          24.8446  -29.8391  -38.8719 C.2       6 UNK         0.4892 
     43 O          26.0252  -30.1932  -38.8356 O.2       6 UNK        -0.5089 
     44 N          23.8403  -30.4794  -38.2573 N.am      7 UNK        -0.4243 
     45 CA         23.8742  -31.7519  -37.5184 C.3       7 UNK         0.0196 
     46 CB         24.8306  -31.6927  -36.3111 C.3       7 UNK        -0.2007 
     47 C          24.1589  -32.9872  -38.3962 C.2       7 UNK         0.5020 
     48 O          23.4975  -34.0100  -38.2189 O.2       7 UNK        -0.5147 
     49 N          25.1061  -32.8766  -39.3364 N.am      8 UNK        -0.4734 
     50 CA         25.5282  -33.9256  -40.2716 C.3       8 UNK         0.0238 
     51 CB         26.7363  -33.4236  -41.0780 C.3       8 UNK        -0.1912 
     52 C          24.4148  -34.4372  -41.2057 C.2       8 UNK         0.5038 
     53 O          24.4432  -35.6109  -41.5785 O.2       8 UNK        -0.5046 
     54 N          23.4487  -33.5713  -41.5409 N.am      9 UNK        -0.4200 
     55 CA         22.2058  -33.9224  -42.2468 C.3       9 UNK         0.0839 
     56 C          21.2578  -34.8693  -41.4452 C.2       9 UNK         0.5513 
     57 N          21.3961  -35.0032  -40.1305 N.am      9 UNK        -0.7519 
     58 O          20.3908  -35.5141  -42.0283 O.2       9 UNK        -0.4960 
     59 C59        21.4721  -32.6408  -42.7313 C.3       10 UNK        -0.0876 
     60 S60        20.3719  -32.9064  -44.1637 S.3       10 UNK        -0.2414 
     61 C61        18.7246  -32.8120  -43.3934 C.3       10 UNK         0.0169 
     62 H62        13.1794  -21.1153  -44.0772 H         1 UNK         0.0903 
     63 H63        12.2882  -21.7005  -45.4848 H         1 UNK         0.0903 
     64 H64        12.3563  -22.6750  -44.0153 H         1 UNK         0.0903 
     65 H65        13.8077  -24.3740  -44.1593 H         1 UNK         0.3096 
     66 H66        15.8166  -24.5212  -46.2284 H         1 UNK         0.1121 
     67 H67        14.4519  -26.4866  -45.3320 H         1 UNK         0.0849 
     68 H68        15.3875  -26.4265  -43.8658 H         1 UNK         0.0849 
     69 H69        15.0722  -28.8825  -44.9705 H         1 UNK         0.0865 
     70 H70        16.1610  -29.5391  -46.1613 H         1 UNK         0.0865 
     71 H71        17.2821  -31.3672  -45.1871 H         1 UNK         0.1346 
     72 H72        19.0597  -31.0847  -41.2977 H         1 UNK         0.1412 
     73 H73        16.8055  -27.7997  -42.8500 H         1 UNK         0.1426 
     74 H74        19.0258  -29.0590  -40.0721 H         1 UNK         0.0716 
     75 H75        17.3872  -28.4511  -40.1059 H         1 UNK         0.0716 
     76 H76        20.8351  -28.2079  -41.6854 H         1 UNK         0.0695 
     77 H77        21.2305  -26.5151  -41.6021 H         1 UNK         0.0695 
     78 H78        19.6704  -27.9197  -43.8288 H         1 UNK         0.0983 
     79 H79        18.8961  -26.0346  -44.6043 H         1 UNK         0.3095 
     80 H80        19.0443  -22.7334  -43.7663 H         1 UNK         0.0454 
     81 H81        20.3615  -23.6066  -46.3954 H         1 UNK         0.0851 
     82 H82        21.0348  -22.4741  -45.2327 H         1 UNK         0.0851 
     83 H83        19.5720  -22.0556  -46.1053 H         1 UNK         0.0851 
     84 H84        17.9934  -24.1942  -46.0620 H         1 UNK         0.2976 
     85 H85        22.2907  -25.5512  -43.7325 H         1 UNK         0.3116 
     86 H86        24.3209  -25.3664  -44.5561 H         1 UNK         0.0646 
     87 H87        23.5977  -27.5684  -46.5639 H         1 UNK         0.0847 
     88 H88        24.9807  -26.4925  -46.6670 H         1 UNK         0.0847 
     89 H89        23.3558  -25.8378  -46.7826 H         1 UNK         0.0847 
     90 H90        23.7038  -28.8716  -44.5300 H         1 UNK         0.3040 
     91 H91        26.3167  -29.4980  -43.2529 H         1 UNK         0.1015 
     92 H92        24.0462  -31.2544  -44.3403 H         1 UNK         0.0786 
     93 H93        25.5223  -31.8682  -43.6115 H         1 UNK         0.0786 
     94 H94        25.6008  -30.9564  -45.1079 H         1 UNK         0.0786 
     95 H95        25.4944  -28.0162  -41.4800 H         1 UNK         0.3172 
     96 H96        23.3577  -28.5604  -39.7719 H         1 UNK         0.0595 
     97 H97        26.0821  -27.3188  -39.1025 H         1 UNK         0.0839 
     98 H98        24.6363  -27.1870  -38.1113 H         1 UNK         0.0839 
     99 H99        24.6672  -26.4555  -39.7073 H         1 UNK         0.0839 
    100 H100       22.9114  -30.1044  -38.3928 H         1 UNK         0.2998 
    101 H101       22.8652  -31.8833  -37.1236 H         1 UNK         0.0822 
    102 H102       24.7491  -32.5986  -35.7090 H         1 UNK         0.0787 
    103 H103       25.8736  -31.6031  -36.6160 H         1 UNK         0.0787 
    104 H104       24.5971  -30.8494  -35.6611 H         1 UNK         0.0787 
    105 H105       25.5924  -31.9856  -39.3898 H         1 UNK         0.3055 
    106 H106       25.8504  -34.7810  -39.6739 H         1 UNK         0.1106 
    107 H107       27.0478  -34.1579  -41.8224 H         1 UNK         0.0828 
    108 H108       26.5117  -32.4958  -41.6031 H         1 UNK         0.0828 
    109 H109       27.5928  -33.2383  -40.4297 H         1 UNK         0.0828 
    110 H110       23.5502  -32.5998  -41.2608 H         1 UNK         0.2931 
    111 H111       22.5155  -34.4790  -43.1335 H         1 UNK         0.0412 
    112 H112       22.1362  -34.5303  -39.6242 H         1 UNK         0.3472 
    113 H113       20.7786  -35.6280  -39.6369 H         1 UNK         0.3472 
    114 H114       22.1983  -31.9023  -43.0670 H         1 UNK         0.0970 
    115 H115       20.9414  -32.1644  -41.9080 H         1 UNK         0.0970 
    116 H116       18.0263  -33.3853  -44.0051 H         1 UNK         0.0612 
    117 H117       18.7384  -33.3022  -42.4191 H         1 UNK         0.0612 
@<TRIPOS>BOND
     1    1    2 1    
     2    1   62 1    
     3    1   63 1    
     4    1   64 1    
     5    2    3 2    
     6    2    4 am   BACKBONE|DICT|INTERRES
     7    4    5 1    
     8    4   65 1    
     9    5    6 1    
    10    5   25 1    
    11    5   66 1    
    12    6    7 1    
    13    6   67 1    
    14    6   68 1    
    15    7    8 1    
    16    8    9 1    
    17    8   69 1    
    18    8   70 1    
    19    9   10 ar   
    20    9   14 ar   
    21   10   11 ar   
    22   10   71 1    
    23   11   12 ar   
    24   11   61 1    
    25   12   13 ar   
    26   12   72 1    
    27   13   14 ar   
    28   13   15 1    
    29   14   73 1    
    30   15   16 1    
    31   15   74 1    
    32   15   75 1    
    33   16   17 1    
    34   17   18 1    
    35   17   76 1    
    36   17   77 1    
    37   18   19 1    
    38   18   27 1    
    39   18   78 1    
    40   19   20 am   BACKBONE|DICT|INTERRES
    41   19   79 1    
    42   20   21 2    
    43   20   22 1    
    44   22   23 1    
    45   22   24 1    
    46   22   80 1    
    47   23   81 1    
    48   23   82 1    
    49   23   83 1    
    50   24   25 am   BACKBONE|DICT|INTERRES
    51   24   84 1    
    52   25   26 2    
    53   27   28 2    
    54   27   29 am   BACKBONE|DICT|INTERRES
    55   29   30 1    
    56   29   85 1    
    57   30   31 1    
    58   30   32 1    
    59   30   86 1    
    60   31   87 1    
    61   31   88 1    
    62   31   89 1    
    63   32   33 2    
    64   32   34 am   BACKBONE|DICT|INTERRES
    65   34   35 1    
    66   34   90 1    
    67   35   36 1    
    68   35   37 1    
    69   35   91 1    
    70   36   92 1    
    71   36   93 1    
    72   36   94 1    
    73   37   38 2    
    74   37   39 am   BACKBONE|DICT|INTERRES
    75   39   40 1    
    76   39   95 1    
    77   40   41 1    
    78   40   42 1    
    79   40   96 1    
    80   41   97 1    
    81   41   98 1    
    82   41   99 1    
    83   42   43 2    
    84   42   44 am   BACKBONE|DICT|INTERRES
    85   44   45 1    
    86   44  100 1    
    87   45   46 1    
    88   45   47 1    
    89   45  101 1    
    90   46  102 1    
    91   46  103 1    
    92   46  104 1    
    93   47   48 2    
    94   47   49 am   BACKBONE|DICT|INTERRES
    95   49   50 1    
    96   49  105 1    
    97   50   51 1    
    98   50   52 1    
    99   50  106 1    
   100   51  107 1    
   101   51  108 1    
   102   51  109 1    
   103   52   53 2    
   104   52   54 am   BACKBONE|DICT|INTERRES
   105   54   55 1    
   106   54  110 1    
   107   55   56 1    
   108   55   59 1    
   109   55  111 1    
   110   56   57 am   BACKBONE|DICT|INTERRES
   111   56   58 2    
   112   57  112 1    
   113   57  113 1    
   114   59   60 1    
   115   59  114 1    
   116   59  115 1    
   117   60   61 1    
   118   61  116 1    
   119   61  117 1    
@<TRIPOS>SUBSTRUCTURE
     1 UNK         1 GROUP             0       ****    0 ROOT    
