@<TRIPOS>MOLECULE
3R8
117   119    1
SMALL
USER_CHARGES


@<TRIPOS>ATOM
      1 CA         15.3956  -23.5526  -44.0140 C.3       0 UNK        -0.2013 
      2 C          16.3052  -24.7720  -44.0050 C.2       0 UNK         0.4866 
      3 O          17.2519  -24.8367  -44.7911 O.2       0 UNK        -0.5176 
      4 N          16.0236  -25.7445  -43.1277 N.am      1 UNK        -0.4884 
      5 CA         16.8235  -26.9623  -42.9608 C.3       1 UNK         0.0853 
      6 C6         16.0336  -28.0924  -42.2542 C.3       10 UNK        -0.0849 
      7 S7         14.6749  -28.7828  -43.2637 S.3       10 UNK        -0.2776 
      8 C8         15.4886  -29.3679  -44.7994 C.3       10 UNK         0.0316 
      9 C9         16.8414  -30.0378  -44.5707 C.ar      10 UNK        -0.0863 
     10 C10        16.9424  -31.1723  -43.7626 C.ar      10 UNK        -0.1009 
     11 C11        18.1861  -31.7591  -43.5182 C.ar      10 UNK        -0.0712 
     12 C12        19.3341  -31.2084  -44.0977 C.ar      10 UNK        -0.0894 
     13 C13        19.2527  -30.0898  -44.9348 C.ar      10 UNK        -0.0745 
     14 C14        17.9942  -29.5170  -45.1697 C.ar      10 UNK        -0.0972 
     15 C15        20.5513  -29.5423  -45.5399 C.3       10 UNK         0.0209 
     16 S16        20.3759  -28.0850  -46.6326 S.3       10 UNK        -0.2568 
     17 C17        21.8226  -27.0657  -46.1725 C.3       10 UNK        -0.0983 
     18 CA         21.4234  -25.8873  -45.2397 C.3       3 UNK         0.0876 
     19 N          20.8190  -26.3606  -43.9859 N.am      3 UNK        -0.4424 
     20 C          21.4118  -26.9907  -42.9591 C.2       2 UNK         0.4918 
     21 O          22.6335  -27.0793  -42.8120 O.2       2 UNK        -0.4875 
     22 CA         20.4854  -27.6941  -41.9476 C.3       2 UNK         0.0481 
     23 CB         20.7062  -27.1900  -40.5087 C.3       2 UNK        -0.1831 
     24 N          19.0670  -27.6918  -42.3425 N.am      2 UNK        -0.4498 
     25 C          18.1747  -26.6917  -42.2647 C.2       1 UNK         0.5027 
     26 O          18.3945  -25.6080  -41.7196 O.2       1 UNK        -0.4969 
     27 C          22.5604  -24.8583  -45.0419 C.2       3 UNK         0.5005 
     28 O          23.4471  -24.7543  -45.8910 O.2       3 UNK        -0.5279 
     29 N          22.5248  -24.1308  -43.9122 N.am      4 UNK        -0.4463 
     30 CA         23.5336  -23.1794  -43.4189 C.3       4 UNK         0.0283 
     31 CB         23.6428  -21.9564  -44.3539 C.3       4 UNK        -0.1875 
     32 C          24.9133  -23.8115  -43.1254 C.2       4 UNK         0.4949 
     33 O          25.8836  -23.0789  -42.9288 O.2       4 UNK        -0.5039 
     34 N          24.9784  -25.1485  -43.0834 N.am      5 UNK        -0.4663 
     35 CA         26.1931  -25.9386  -42.8732 C.3       5 UNK         0.0242 
     36 CB         26.2931  -26.9665  -44.0146 C.3       5 UNK        -0.1982 
     37 C          26.1907  -26.6541  -41.5125 C.2       5 UNK         0.5017 
     38 O          27.1637  -27.3421  -41.2022 O.2       5 UNK        -0.5012 
     39 N          25.0953  -26.5113  -40.7480 N.am      6 UNK        -0.4439 
     40 CA         24.7729  -27.2377  -39.5129 C.3       6 UNK         0.0297 
     41 CB         25.7607  -26.8862  -38.3794 C.3       6 UNK        -0.2006 
     42 C          24.6360  -28.7565  -39.7520 C.2       6 UNK         0.4892 
     43 O          25.0455  -29.5544  -38.9062 O.2       6 UNK        -0.5089 
     44 N          24.0789  -29.1238  -40.9156 N.am      7 UNK        -0.4243 
     45 CA         23.8545  -30.5067  -41.3351 C.3       7 UNK         0.0196 
     46 CB         23.5444  -30.5218  -42.8404 C.3       7 UNK        -0.2007 
     47 C          22.7179  -31.1750  -40.5444 C.2       7 UNK         0.5020 
     48 O          21.8259  -30.4902  -40.0389 O.2       7 UNK        -0.5147 
     49 N          22.7532  -32.5088  -40.4927 N.am      8 UNK        -0.4734 
     50 CA         21.7291  -33.3554  -39.8877 C.3       8 UNK         0.0238 
     51 CB         22.2056  -33.8274  -38.5033 C.3       8 UNK        -0.1912 
     52 C          21.4695  -34.5458  -40.8172 C.2       8 UNK         0.5038 
     53 O          22.3822  -34.9686  -41.5326 O.2       8 UNK        -0.5046 
     54 N          20.2363  -35.0581  -40.7770 N.am      9 UNK        -0.4200 
     55 CA         19.7489  -36.1715  -41.6080 C.3       9 UNK         0.0839 
     56 C          19.6247  -37.5116  -40.8254 C.2       9 UNK         0.5513 
     57 N          20.0058  -37.5829  -39.5552 N.am      9 UNK        -0.7519 
     58 O          19.1893  -38.5144  -41.3855 O.2       9 UNK        -0.4960 
     59 C59        18.4198  -35.7919  -42.3168 C.3       10 UNK        -0.0876 
     60 S60        18.6368  -34.4847  -43.5739 S.3       10 UNK        -0.2414 
     61 C61        18.2889  -32.9780  -42.6148 C.3       10 UNK         0.0169 
     62 H62        15.9705  -22.6552  -43.7868 H         1 UNK         0.0903 
     63 H63        14.9442  -23.4286  -44.9979 H         1 UNK         0.0903 
     64 H64        14.5934  -23.6364  -43.2809 H         1 UNK         0.0903 
     65 H65        15.2442  -25.6377  -42.4941 H         1 UNK         0.3096 
     66 H66        17.0817  -27.2936  -43.9649 H         1 UNK         0.1121 
     67 H67        15.6139  -27.7283  -41.3147 H         1 UNK         0.0849 
     68 H68        16.6807  -28.9259  -41.9757 H         1 UNK         0.0849 
     69 H69        15.5874  -28.5215  -45.4809 H         1 UNK         0.0865 
     70 H70        14.8249  -30.0751  -45.2987 H         1 UNK         0.0865 
     71 H71        16.0512  -31.5849  -43.3091 H         1 UNK         0.1346 
     72 H72        20.2956  -31.6645  -43.9025 H         1 UNK         0.1412 
     73 H73        17.8987  -28.6534  -45.8118 H         1 UNK         0.1426 
     74 H74        21.0419  -30.3346  -46.1070 H         1 UNK         0.0716 
     75 H75        21.2232  -29.2932  -44.7215 H         1 UNK         0.0716 
     76 H76        22.2482  -26.6916  -47.1054 H         1 UNK         0.0695 
     77 H77        22.5969  -27.6841  -45.7150 H         1 UNK         0.0695 
     78 H78        20.6376  -25.3263  -45.7489 H         1 UNK         0.0983 
     79 H79        19.8111  -26.3154  -43.9695 H         1 UNK         0.3095 
     80 H80        20.7762  -28.7449  -41.9644 H         1 UNK         0.0454 
     81 H81        20.5867  -26.1097  -40.4250 H         1 UNK         0.0851 
     82 H82        21.7126  -27.4306  -40.1703 H         1 UNK         0.0851 
     83 H83        20.0157  -27.6641  -39.8115 H         1 UNK         0.0851 
     84 H84        18.7719  -28.5408  -42.8080 H         1 UNK         0.2976 
     85 H85        21.7481  -24.2995  -43.2872 H         1 UNK         0.3116 
     86 H86        23.1616  -22.8230  -42.4573 H         1 UNK         0.0646 
     87 H87        24.2710  -21.1810  -43.9137 H         1 UNK         0.0847 
     88 H88        22.6663  -21.5102  -44.5411 H         1 UNK         0.0847 
     89 H89        24.0825  -22.2189  -45.3165 H         1 UNK         0.0847 
     90 H90        24.1284  -25.6770  -43.2500 H         1 UNK         0.3040 
     91 H91        27.0789  -25.3004  -42.9013 H         1 UNK         0.1015 
     92 H92        26.3184  -26.4747  -44.9874 H         1 UNK         0.0786 
     93 H93        25.4470  -27.6555  -44.0112 H         1 UNK         0.0786 
     94 H94        27.2024  -27.5632  -43.9305 H         1 UNK         0.0786 
     95 H95        24.3625  -25.9198  -41.1137 H         1 UNK         0.3172 
     96 H96        23.7886  -26.8877  -39.2009 H         1 UNK         0.0595 
     97 H97        26.7613  -27.2720  -38.5758 H         1 UNK         0.0839 
     98 H98        25.4318  -27.3125  -37.4309 H         1 UNK         0.0839 
     99 H99        25.8377  -25.8081  -38.2392 H         1 UNK         0.0839 
    100 H100       23.7407  -28.4019  -41.5406 H         1 UNK         0.2998 
    101 H101       24.7758  -31.0671  -41.1607 H         1 UNK         0.0822 
    102 H102       22.6246  -29.9824  -43.0593 H         1 UNK         0.0787 
    103 H103       24.3477  -30.0636  -43.4178 H         1 UNK         0.0787 
    104 H104       23.4207  -31.5411  -43.2087 H         1 UNK         0.0787 
    105 H105       23.4682  -33.0134  -41.0022 H         1 UNK         0.3055 
    106 H106       20.7977  -32.7946  -39.7770 H         1 UNK         0.1106 
    107 H107       21.4530  -34.4504  -38.0187 H         1 UNK         0.0828 
    108 H108       23.1231  -34.4135  -38.5703 H         1 UNK         0.0828 
    109 H109       22.3978  -32.9814  -37.8430 H         1 UNK         0.0828 
    110 H110       19.5656  -34.6758  -40.1265 H         1 UNK         0.2931 
    111 H111       20.4798  -36.3793  -42.3917 H         1 UNK         0.0412 
    112 H112       20.3894  -36.7783  -39.0866 H         1 UNK         0.3472 
    113 H113       19.9247  -38.4605  -39.0653 H         1 UNK         0.3472 
    114 H114       18.0057  -36.6554  -42.8410 H         1 UNK         0.0970 
    115 H115       17.6603  -35.4946  -41.5918 H         1 UNK         0.0970 
    116 H116       17.3654  -33.1130  -42.0496 H         1 UNK         0.0612 
    117 H117       19.0807  -32.8137  -41.8842 H         1 UNK         0.0612 
@<TRIPOS>BOND
     1    1    2 1    
     2    1   62 1    
     3    1   63 1    
     4    1   64 1    
     5    2    3 2    
     6    2    4 am   BACKBONE|DICT|INTERRES
     7    4    5 1    
     8    4   65 1    
     9    5    6 1    
    10    5   25 1    
    11    5   66 1    
    12    6    7 1    
    13    6   67 1    
    14    6   68 1    
    15    7    8 1    
    16    8    9 1    
    17    8   69 1    
    18    8   70 1    
    19    9   10 ar   
    20    9   14 ar   
    21   10   11 ar   
    22   10   71 1    
    23   11   12 ar   
    24   11   61 1    
    25   12   13 ar   
    26   12   72 1    
    27   13   14 ar   
    28   13   15 1    
    29   14   73 1    
    30   15   16 1    
    31   15   74 1    
    32   15   75 1    
    33   16   17 1    
    34   17   18 1    
    35   17   76 1    
    36   17   77 1    
    37   18   19 1    
    38   18   27 1    
    39   18   78 1    
    40   19   20 am   BACKBONE|DICT|INTERRES
    41   19   79 1    
    42   20   21 2    
    43   20   22 1    
    44   22   23 1    
    45   22   24 1    
    46   22   80 1    
    47   23   81 1    
    48   23   82 1    
    49   23   83 1    
    50   24   25 am   BACKBONE|DICT|INTERRES
    51   24   84 1    
    52   25   26 2    
    53   27   28 2    
    54   27   29 am   BACKBONE|DICT|INTERRES
    55   29   30 1    
    56   29   85 1    
    57   30   31 1    
    58   30   32 1    
    59   30   86 1    
    60   31   87 1    
    61   31   88 1    
    62   31   89 1    
    63   32   33 2    
    64   32   34 am   BACKBONE|DICT|INTERRES
    65   34   35 1    
    66   34   90 1    
    67   35   36 1    
    68   35   37 1    
    69   35   91 1    
    70   36   92 1    
    71   36   93 1    
    72   36   94 1    
    73   37   38 2    
    74   37   39 am   BACKBONE|DICT|INTERRES
    75   39   40 1    
    76   39   95 1    
    77   40   41 1    
    78   40   42 1    
    79   40   96 1    
    80   41   97 1    
    81   41   98 1    
    82   41   99 1    
    83   42   43 2    
    84   42   44 am   BACKBONE|DICT|INTERRES
    85   44   45 1    
    86   44  100 1    
    87   45   46 1    
    88   45   47 1    
    89   45  101 1    
    90   46  102 1    
    91   46  103 1    
    92   46  104 1    
    93   47   48 2    
    94   47   49 am   BACKBONE|DICT|INTERRES
    95   49   50 1    
    96   49  105 1    
    97   50   51 1    
    98   50   52 1    
    99   50  106 1    
   100   51  107 1    
   101   51  108 1    
   102   51  109 1    
   103   52   53 2    
   104   52   54 am   BACKBONE|DICT|INTERRES
   105   54   55 1    
   106   54  110 1    
   107   55   56 1    
   108   55   59 1    
   109   55  111 1    
   110   56   57 am   BACKBONE|DICT|INTERRES
   111   56   58 2    
   112   57  112 1    
   113   57  113 1    
   114   59   60 1    
   115   59  114 1    
   116   59  115 1    
   117   60   61 1    
   118   61  116 1    
   119   61  117 1    
@<TRIPOS>SUBSTRUCTURE
     1 UNK         1 GROUP             0       ****    0 ROOT    
