@<TRIPOS>MOLECULE
3R8
117   119    1
SMALL
USER_CHARGES


@<TRIPOS>ATOM
      1 CA         13.5893  -23.6366  -43.6225 C.3       0 UNK        -0.2013 
      2 C          14.5705  -24.3656  -44.5284 C.2       0 UNK         0.4866 
      3 O          14.8194  -23.9158  -45.6470 O.2       0 UNK        -0.5176 
      4 N          15.1231  -25.4904  -44.0559 N.am      1 UNK        -0.4884 
      5 CA         16.0946  -26.3195  -44.7799 C.3       1 UNK         0.0853 
      6 C6         16.3696  -27.6559  -44.0427 C.3       10 UNK        -0.0849 
      7 S7         15.0368  -28.8789  -44.2574 S.3       10 UNK        -0.2776 
      8 C8         15.5239  -29.7069  -45.8122 C.3       10 UNK         0.0316 
      9 C9         16.9458  -30.2579  -45.7809 C.ar      10 UNK        -0.0863 
     10 C10        17.2630  -31.3574  -44.9759 C.ar      10 UNK        -0.1009 
     11 C11        18.5675  -31.8615  -44.9452 C.ar      10 UNK        -0.0712 
     12 C12        19.5546  -31.2600  -45.7324 C.ar      10 UNK        -0.0894 
     13 C13        19.2540  -30.1554  -46.5334 C.ar      10 UNK        -0.0745 
     14 C14        17.9462  -29.6625  -46.5586 C.ar      10 UNK        -0.0972 
     15 C15        20.3432  -29.5034  -47.3757 C.3       10 UNK         0.0209 
     16 S16        20.8977  -27.9093  -46.6887 S.3       10 UNK        -0.2568 
     17 C17        21.5204  -28.4128  -45.0501 C.3       10 UNK        -0.0983 
     18 CA         22.2001  -27.2545  -44.2689 C.3       3 UNK         0.0876 
     19 N          21.3555  -26.0497  -44.1379 N.am      3 UNK        -0.4424 
     20 C          20.1377  -25.9513  -43.5853 C.2       2 UNK         0.4918 
     21 O          19.6073  -26.8623  -42.9448 O.2       2 UNK        -0.4875 
     22 CA         19.3610  -24.6258  -43.7521 C.3       2 UNK         0.0481 
     23 CB         19.9319  -23.6716  -44.8261 C.3       2 UNK        -0.1831 
     24 N          17.9397  -24.9235  -43.9758 N.am      2 UNK        -0.4498 
     25 C          17.4382  -25.6066  -45.0184 C.2       1 UNK         0.5027 
     26 O          18.0113  -25.7552  -46.0979 O.2       1 UNK        -0.4969 
     27 C          22.7700  -27.7960  -42.9388 C.2       3 UNK         0.5005 
     28 O          23.9275  -28.2192  -42.9057 O.2       3 UNK        -0.5279 
     29 N          21.9563  -27.7905  -41.8752 N.am      4 UNK        -0.4463 
     30 CA         22.1766  -28.4011  -40.5609 C.3       4 UNK         0.0283 
     31 CB         20.9778  -28.0815  -39.6569 C.3       4 UNK        -0.1875 
     32 C          23.4877  -28.0258  -39.8535 C.2       4 UNK         0.4949 
     33 O          23.9862  -28.8300  -39.0682 O.2       4 UNK        -0.5039 
     34 N          24.0480  -26.8512  -40.1711 N.am      5 UNK        -0.4663 
     35 CA         25.3639  -26.3992  -39.7083 C.3       5 UNK         0.0242 
     36 CB         25.5911  -24.9527  -40.1762 C.3       5 UNK        -0.1982 
     37 C          26.5291  -27.3015  -40.1630 C.2       5 UNK         0.5017 
     38 O          27.5528  -27.3378  -39.4790 O.2       5 UNK        -0.5012 
     39 N          26.3519  -28.0097  -41.2873 N.am      6 UNK        -0.4439 
     40 CA         27.2983  -28.9901  -41.8204 C.3       6 UNK         0.0297 
     41 CB         27.7414  -28.5541  -43.2269 C.3       6 UNK        -0.2006 
     42 C          26.6873  -30.3991  -41.8656 C.2       6 UNK         0.4892 
     43 O          27.3831  -31.3640  -41.5481 O.2       6 UNK        -0.5089 
     44 N          25.4153  -30.5033  -42.2758 N.am      7 UNK        -0.4243 
     45 CA         24.7293  -31.7731  -42.5287 C.3       7 UNK         0.0196 
     46 CB         23.6042  -31.5286  -43.5476 C.3       7 UNK        -0.2007 
     47 C          24.1718  -32.4578  -41.2682 C.2       7 UNK         0.5020 
     48 O          23.8708  -33.6494  -41.3321 O.2       7 UNK        -0.5147 
     49 N          24.0177  -31.7088  -40.1641 N.am      8 UNK        -0.4734 
     50 CA         23.4502  -32.1359  -38.8725 C.3       8 UNK         0.0238 
     51 CB         24.3372  -33.2112  -38.2080 C.3       8 UNK        -0.1912 
     52 C          21.9613  -32.5472  -38.9319 C.2       8 UNK         0.5038 
     53 O          21.4964  -33.2760  -38.0533 O.2       8 UNK        -0.5046 
     54 N          21.2424  -32.0719  -39.9568 N.am      9 UNK        -0.4200 
     55 CA         19.8061  -32.2917  -40.1849 C.3       9 UNK         0.0839 
     56 C          18.9067  -31.6659  -39.0838 C.2       9 UNK         0.5513 
     57 N          17.7303  -32.2328  -38.8542 N.am      9 UNK        -0.7519 
     58 O          19.2430  -30.6583  -38.4665 O.2       9 UNK        -0.4960 
     59 C59        19.3862  -31.7956  -41.5940 C.3       10 UNK        -0.0876 
     60 S60        20.2485  -32.7279  -42.9035 S.3       10 UNK        -0.2414 
     61 C61        18.9106  -33.0745  -44.0902 C.3       10 UNK         0.0169 
     62 H62        12.6147  -23.5665  -44.1048 H         1 UNK         0.0903 
     63 H63        13.4588  -24.1455  -42.6677 H         1 UNK         0.0903 
     64 H64        13.9438  -22.6258  -43.4222 H         1 UNK         0.0903 
     65 H65        14.8550  -25.8272  -43.1416 H         1 UNK         0.3096 
     66 H66        15.6800  -26.5381  -45.7666 H         1 UNK         0.1121 
     67 H67        17.3125  -28.1066  -44.3562 H         1 UNK         0.0849 
     68 H68        16.4997  -27.4792  -42.9734 H         1 UNK         0.0849 
     69 H69        14.8284  -30.5242  -46.0081 H         1 UNK         0.0865 
     70 H70        15.4022  -29.0050  -46.6387 H         1 UNK         0.0865 
     71 H71        16.4913  -31.8172  -44.3734 H         1 UNK         0.1346 
     72 H72        20.5630  -31.6504  -45.7115 H         1 UNK         0.1412 
     73 H73        17.7153  -28.8041  -47.1753 H         1 UNK         0.1426 
     74 H74        21.2039  -30.1666  -47.4760 H         1 UNK         0.0716 
     75 H75        19.9671  -29.3387  -48.3864 H         1 UNK         0.0716 
     76 H76        20.6861  -28.8230  -44.4776 H         1 UNK         0.0695 
     77 H77        22.2228  -29.2352  -45.1991 H         1 UNK         0.0695 
     78 H78        23.0658  -26.9361  -44.8523 H         1 UNK         0.0983 
     79 H79        21.7123  -25.2350  -44.6158 H         1 UNK         0.3095 
     80 H80        19.4165  -24.1132  -42.7909 H         1 UNK         0.0454 
     81 H81        20.0383  -24.1545  -45.7981 H         1 UNK         0.0851 
     82 H82        19.2865  -22.8035  -44.9599 H         1 UNK         0.0851 
     83 H83        20.9127  -23.2936  -44.5362 H         1 UNK         0.0851 
     84 H84        17.3598  -24.8700  -43.1503 H         1 UNK         0.2976 
     85 H85        21.0157  -27.4394  -42.0521 H         1 UNK         0.3116 
     86 H86        22.2010  -29.4787  -40.7227 H         1 UNK         0.0646 
     87 H87        20.8707  -27.0086  -39.4931 H         1 UNK         0.0847 
     88 H88        20.0458  -28.4496  -40.0864 H         1 UNK         0.0847 
     89 H89        21.0875  -28.5524  -38.6788 H         1 UNK         0.0847 
     90 H90        23.5650  -26.2582  -40.8303 H         1 UNK         0.3040 
     91 H91        25.3539  -26.4123  -38.6161 H         1 UNK         0.1015 
     92 H92        25.5890  -24.8753  -41.2643 H         1 UNK         0.0786 
     93 H93        26.5526  -24.5753  -39.8247 H         1 UNK         0.0786 
     94 H94        24.8223  -24.2839  -39.7888 H         1 UNK         0.0786 
     95 H95        25.4679  -27.9157  -41.7803 H         1 UNK         0.3172 
     96 H96        28.1884  -29.0449  -41.1902 H         1 UNK         0.0595 
     97 H97        28.4411  -29.2722  -43.6568 H         1 UNK         0.0839 
     98 H98        28.2454  -27.5878  -43.1995 H         1 UNK         0.0839 
     99 H99        26.8958  -28.4706  -43.9110 H         1 UNK         0.0839 
    100 H100       24.9078  -29.6599  -42.5373 H         1 UNK         0.2998 
    101 H101       25.4432  -32.4652  -42.9809 H         1 UNK         0.0822 
    102 H102       23.1346  -32.4685  -43.8401 H         1 UNK         0.0787 
    103 H103       22.8225  -30.8859  -43.1417 H         1 UNK         0.0787 
    104 H104       23.9841  -31.0629  -44.4570 H         1 UNK         0.0787 
    105 H105       24.3130  -30.7405  -40.1992 H         1 UNK         0.3055 
    106 H106       23.4770  -31.2579  -38.2257 H         1 UNK         0.1106 
    107 H107       25.3788  -32.8935  -38.1627 H         1 UNK         0.0828 
    108 H108       24.0161  -33.4063  -37.1841 H         1 UNK         0.0828 
    109 H109       24.2976  -34.1594  -38.7446 H         1 UNK         0.0828 
    110 H110       21.7166  -31.5118  -40.6460 H         1 UNK         0.2931 
    111 H111       19.6488  -33.3719  -40.1477 H         1 UNK         0.0412 
    112 H112       17.1247  -31.8352  -38.1529 H         1 UNK         0.3472 
    113 H113       17.4402  -33.0578  -39.3563 H         1 UNK         0.3472 
    114 H114       18.3089  -31.9027  -41.7338 H         1 UNK         0.0970 
    115 H115       19.6024  -30.7323  -41.7162 H         1 UNK         0.0970 
    116 H116       19.2340  -33.8814  -44.7490 H         1 UNK         0.0612 
    117 H117       18.0349  -33.4476  -43.5569 H         1 UNK         0.0612 
@<TRIPOS>BOND
     1    1    2 1    
     2    1   62 1    
     3    1   63 1    
     4    1   64 1    
     5    2    3 2    
     6    2    4 am   BACKBONE|DICT|INTERRES
     7    4    5 1    
     8    4   65 1    
     9    5    6 1    
    10    5   25 1    
    11    5   66 1    
    12    6    7 1    
    13    6   67 1    
    14    6   68 1    
    15    7    8 1    
    16    8    9 1    
    17    8   69 1    
    18    8   70 1    
    19    9   10 ar   
    20    9   14 ar   
    21   10   11 ar   
    22   10   71 1    
    23   11   12 ar   
    24   11   61 1    
    25   12   13 ar   
    26   12   72 1    
    27   13   14 ar   
    28   13   15 1    
    29   14   73 1    
    30   15   16 1    
    31   15   74 1    
    32   15   75 1    
    33   16   17 1    
    34   17   18 1    
    35   17   76 1    
    36   17   77 1    
    37   18   19 1    
    38   18   27 1    
    39   18   78 1    
    40   19   20 am   BACKBONE|DICT|INTERRES
    41   19   79 1    
    42   20   21 2    
    43   20   22 1    
    44   22   23 1    
    45   22   24 1    
    46   22   80 1    
    47   23   81 1    
    48   23   82 1    
    49   23   83 1    
    50   24   25 am   BACKBONE|DICT|INTERRES
    51   24   84 1    
    52   25   26 2    
    53   27   28 2    
    54   27   29 am   BACKBONE|DICT|INTERRES
    55   29   30 1    
    56   29   85 1    
    57   30   31 1    
    58   30   32 1    
    59   30   86 1    
    60   31   87 1    
    61   31   88 1    
    62   31   89 1    
    63   32   33 2    
    64   32   34 am   BACKBONE|DICT|INTERRES
    65   34   35 1    
    66   34   90 1    
    67   35   36 1    
    68   35   37 1    
    69   35   91 1    
    70   36   92 1    
    71   36   93 1    
    72   36   94 1    
    73   37   38 2    
    74   37   39 am   BACKBONE|DICT|INTERRES
    75   39   40 1    
    76   39   95 1    
    77   40   41 1    
    78   40   42 1    
    79   40   96 1    
    80   41   97 1    
    81   41   98 1    
    82   41   99 1    
    83   42   43 2    
    84   42   44 am   BACKBONE|DICT|INTERRES
    85   44   45 1    
    86   44  100 1    
    87   45   46 1    
    88   45   47 1    
    89   45  101 1    
    90   46  102 1    
    91   46  103 1    
    92   46  104 1    
    93   47   48 2    
    94   47   49 am   BACKBONE|DICT|INTERRES
    95   49   50 1    
    96   49  105 1    
    97   50   51 1    
    98   50   52 1    
    99   50  106 1    
   100   51  107 1    
   101   51  108 1    
   102   51  109 1    
   103   52   53 2    
   104   52   54 am   BACKBONE|DICT|INTERRES
   105   54   55 1    
   106   54  110 1    
   107   55   56 1    
   108   55   59 1    
   109   55  111 1    
   110   56   57 am   BACKBONE|DICT|INTERRES
   111   56   58 2    
   112   57  112 1    
   113   57  113 1    
   114   59   60 1    
   115   59  114 1    
   116   59  115 1    
   117   60   61 1    
   118   61  116 1    
   119   61  117 1    
@<TRIPOS>SUBSTRUCTURE
     1 UNK         1 GROUP             0       ****    0 ROOT    
