@<TRIPOS>MOLECULE
3R8
117   119    1
SMALL
USER_CHARGES


@<TRIPOS>ATOM
      1 CA         16.9184  -22.8186  -40.9610 C.3       0 UNK        -0.2013 
      2 C          17.2131  -23.6860  -42.1749 C.2       0 UNK         0.4866 
      3 O          17.3514  -23.1672  -43.2833 O.2       0 UNK        -0.5176 
      4 N          17.3277  -25.0048  -41.9782 N.am      1 UNK        -0.4884 
      5 CA         17.6109  -26.0181  -43.0039 C.3       1 UNK         0.0853 
      6 C6         17.0583  -27.4085  -42.5827 C.3       10 UNK        -0.0849 
      7 S7         17.6457  -27.9911  -40.9485 S.3       10 UNK        -0.2776 
      8 C8         17.2188  -29.7673  -41.0269 C.3       10 UNK         0.0316 
      9 C9         17.9961  -30.5987  -42.0532 C.ar      10 UNK        -0.0863 
     10 C10        17.4779  -31.8367  -42.4451 C.ar      10 UNK        -0.1009 
     11 C11        18.1425  -32.6327  -43.3857 C.ar      10 UNK        -0.0712 
     12 C12        19.3181  -32.1578  -43.9758 C.ar      10 UNK        -0.0894 
     13 C13        19.8490  -30.9219  -43.5986 C.ar      10 UNK        -0.0745 
     14 C14        19.2046  -30.1694  -42.6145 C.ar      10 UNK        -0.0972 
     15 C15        21.1068  -30.3859  -44.2643 C.3       10 UNK         0.0209 
     16 S16        20.7210  -29.5731  -45.8473 S.3       10 UNK        -0.2568 
     17 C17        22.3526  -28.8826  -46.2819 C.3       10 UNK        -0.0983 
     18 CA         22.3306  -27.3519  -46.5330 C.3       3 UNK         0.0876 
     19 N          21.7407  -26.5996  -45.4138 N.am      3 UNK        -0.4424 
     20 C          21.4710  -25.2866  -45.4177 C.2       2 UNK         0.4918 
     21 O          21.5444  -24.5758  -46.4215 O.2       2 UNK        -0.4875 
     22 CA         21.0745  -24.6637  -44.0649 C.3       2 UNK         0.0481 
     23 CB         21.3910  -23.1592  -44.0012 C.3       2 UNK        -0.1831 
     24 N          19.6645  -24.8670  -43.7372 N.am      2 UNK        -0.4498 
     25 C          19.1044  -26.0383  -43.4139 C.2       1 UNK         0.5027 
     26 O          19.7373  -27.0916  -43.4086 O.2       1 UNK        -0.4969 
     27 C          23.7618  -26.8498  -46.8233 C.2       3 UNK         0.5005 
     28 O          24.1482  -26.6739  -47.9795 O.2       3 UNK        -0.5279 
     29 N          24.4872  -26.5922  -45.7323 N.am      4 UNK        -0.4463 
     30 CA         25.7573  -25.8798  -45.6380 C.3       4 UNK         0.0283 
     31 CB         26.9450  -26.7997  -45.9733 C.3       4 UNK        -0.1875 
     32 C          25.8199  -25.3339  -44.2079 C.2       4 UNK         0.4949 
     33 O          25.9597  -24.1283  -44.0072 O.2       4 UNK        -0.5039 
     34 N          25.5800  -26.2404  -43.2542 N.am      5 UNK        -0.4663 
     35 CA         25.0504  -25.9641  -41.9233 C.3       5 UNK         0.0242 
     36 CB         26.0340  -26.5123  -40.8749 C.3       5 UNK        -0.1982 
     37 C          23.6873  -26.6715  -41.8191 C.2       5 UNK         0.5017 
     38 O          23.3265  -27.4444  -42.7161 O.2       5 UNK        -0.5012 
     39 N          22.9579  -26.4211  -40.7249 N.am      6 UNK        -0.4439 
     40 CA         21.7232  -27.1282  -40.3713 C.3       6 UNK         0.0297 
     41 CB         20.8876  -26.2542  -39.4193 C.3       6 UNK        -0.2006 
     42 C          22.0650  -28.5057  -39.7744 C.2       6 UNK         0.4892 
     43 O          22.0347  -28.6808  -38.5558 O.2       6 UNK        -0.5089 
     44 N          22.4594  -29.4326  -40.6561 N.am      7 UNK        -0.4243 
     45 CA         23.0624  -30.7275  -40.3261 C.3       7 UNK         0.0196 
     46 CB         23.7057  -31.3064  -41.5976 C.3       7 UNK        -0.2007 
     47 C          22.1191  -31.7649  -39.6898 C.2       7 UNK         0.5020 
     48 O          22.6120  -32.7953  -39.2294 O.2       7 UNK        -0.5147 
     49 N          20.7996  -31.5169  -39.7039 N.am      8 UNK        -0.4734 
     50 CA         19.7375  -32.3901  -39.1730 C.3       8 UNK         0.0238 
     51 CB         19.7853  -32.4232  -37.6308 C.3       8 UNK        -0.1912 
     52 C          19.7416  -33.7977  -39.8049 C.2       8 UNK         0.5038 
     53 O          19.5421  -34.7955  -39.1095 O.2       8 UNK        -0.5046 
     54 N          20.0009  -33.8306  -41.1170 N.am      9 UNK        -0.4200 
     55 CA         20.1593  -35.0189  -41.9684 C.3       9 UNK         0.0839 
     56 C          21.4536  -35.8440  -41.6938 C.2       9 UNK         0.5513 
     57 N          22.4004  -35.3669  -40.8931 N.am      9 UNK        -0.7519 
     58 O          21.6215  -36.9282  -42.2464 O.2       9 UNK        -0.4960 
     59 C59        18.8893  -35.9188  -42.0429 C.3       10 UNK        -0.0876 
     60 S60        17.2891  -35.0741  -42.3274 S.3       10 UNK        -0.2414 
     61 C61        17.5834  -33.9976  -43.7729 C.3       10 UNK         0.0169 
     62 H62        15.9859  -22.2741  -41.1070 H         1 UNK         0.0903 
     63 H63        16.8270  -23.4098  -40.0499 H         1 UNK         0.0903 
     64 H64        17.7181  -22.0928  -40.8157 H         1 UNK         0.0903 
     65 H65        17.2388  -25.3770  -41.0423 H         1 UNK         0.3096 
     66 H66        17.0713  -25.7323  -43.9098 H         1 UNK         0.1121 
     67 H67        17.2893  -28.1544  -43.3455 H         1 UNK         0.0849 
     68 H68        15.9689  -27.3649  -42.5436 H         1 UNK         0.0849 
     69 H69        17.3723  -30.1956  -40.0369 H         1 UNK         0.0865 
     70 H70        16.1496  -29.8488  -41.2296 H         1 UNK         0.0865 
     71 H71        16.5544  -32.1926  -42.0085 H         1 UNK         0.1346 
     72 H72        19.8209  -32.7465  -44.7311 H         1 UNK         0.1412 
     73 H73        19.6370  -29.2294  -42.3121 H         1 UNK         0.1426 
     74 H74        21.8126  -31.1987  -44.4409 H         1 UNK         0.0716 
     75 H75        21.6051  -29.6717  -43.6070 H         1 UNK         0.0716 
     76 H76        22.7033  -29.4032  -47.1750 H         1 UNK         0.0695 
     77 H77        23.0653  -29.1301  -45.4923 H         1 UNK         0.0695 
     78 H78        21.7237  -27.1554  -47.4194 H         1 UNK         0.0983 
     79 H79        21.5337  -27.1233  -44.5698 H         1 UNK         0.3095 
     80 H80        21.6703  -25.1497  -43.2912 H         1 UNK         0.0454 
     81 H81        22.4397  -22.9711  -44.2359 H         1 UNK         0.0851 
     82 H82        21.2062  -22.7571  -43.0050 H         1 UNK         0.0851 
     83 H83        20.7898  -22.5880  -44.7097 H         1 UNK         0.0851 
     84 H84        19.0627  -24.0490  -43.7340 H         1 UNK         0.2976 
     85 H85        24.0283  -26.7533  -44.8427 H         1 UNK         0.3116 
     86 H86        25.7461  -25.0356  -46.3307 H         1 UNK         0.0646 
     87 H87        26.9784  -27.6787  -45.3291 H         1 UNK         0.0847 
     88 H88        26.8956  -27.1465  -47.0056 H         1 UNK         0.0847 
     89 H89        27.8911  -26.2701  -45.8551 H         1 UNK         0.0847 
     90 H90        25.4725  -27.2049  -43.5391 H         1 UNK         0.3040 
     91 H91        24.9027  -24.8918  -41.7751 H         1 UNK         0.1015 
     92 H92        25.6975  -26.2934  -39.8609 H         1 UNK         0.0786 
     93 H93        27.0207  -26.0629  -40.9893 H         1 UNK         0.0786 
     94 H94        26.1498  -27.5942  -40.9549 H         1 UNK         0.0786 
     95 H95        23.3322  -25.7976  -40.0236 H         1 UNK         0.3172 
     96 H96        21.1297  -27.2936  -41.2707 H         1 UNK         0.0595 
     97 H97        21.4294  -26.0124  -38.5042 H         1 UNK         0.0839 
     98 H98        19.9694  -26.7668  -39.1291 H         1 UNK         0.0839 
     99 H99        20.5962  -25.3186  -39.8971 H         1 UNK         0.0839 
    100 H100       22.5154  -29.1431  -41.6251 H         1 UNK         0.2998 
    101 H101       23.8573  -30.5403  -39.6009 H         1 UNK         0.0822 
    102 H102       24.2712  -32.2117  -41.3715 H         1 UNK         0.0787 
    103 H103       24.3995  -30.5998  -42.0539 H         1 UNK         0.0787 
    104 H104       22.9557  -31.5740  -42.3412 H         1 UNK         0.0787 
    105 H105       20.4949  -30.6479  -40.1192 H         1 UNK         0.3055 
    106 H106       18.7865  -31.9433  -39.4606 H         1 UNK         0.1106 
    107 H107       19.7559  -31.4173  -37.2119 H         1 UNK         0.0828 
    108 H108       18.9325  -32.9680  -37.2239 H         1 UNK         0.0828 
    109 H109       20.6882  -32.9127  -37.2645 H         1 UNK         0.0828 
    110 H110       20.1335  -32.9477  -41.5881 H         1 UNK         0.2931 
    111 H111       20.3193  -34.6195  -42.9690 H         1 UNK         0.0412 
    112 H112       22.2851  -34.4861  -40.4059 H         1 UNK         0.3472 
    113 H113       23.2330  -35.9139  -40.7416 H         1 UNK         0.3472 
    114 H114       19.0081  -36.6603  -42.8349 H         1 UNK         0.0970 
    115 H115       18.7904  -36.4919  -41.1196 H         1 UNK         0.0970 
    116 H116       16.6346  -33.8450  -44.2886 H         1 UNK         0.0612 
    117 H117       18.2379  -34.5115  -44.4785 H         1 UNK         0.0612 
@<TRIPOS>BOND
     1    1    2 1    
     2    1   62 1    
     3    1   63 1    
     4    1   64 1    
     5    2    3 2    
     6    2    4 am   BACKBONE|DICT|INTERRES
     7    4    5 1    
     8    4   65 1    
     9    5    6 1    
    10    5   25 1    
    11    5   66 1    
    12    6    7 1    
    13    6   67 1    
    14    6   68 1    
    15    7    8 1    
    16    8    9 1    
    17    8   69 1    
    18    8   70 1    
    19    9   10 ar   
    20    9   14 ar   
    21   10   11 ar   
    22   10   71 1    
    23   11   12 ar   
    24   11   61 1    
    25   12   13 ar   
    26   12   72 1    
    27   13   14 ar   
    28   13   15 1    
    29   14   73 1    
    30   15   16 1    
    31   15   74 1    
    32   15   75 1    
    33   16   17 1    
    34   17   18 1    
    35   17   76 1    
    36   17   77 1    
    37   18   19 1    
    38   18   27 1    
    39   18   78 1    
    40   19   20 am   BACKBONE|DICT|INTERRES
    41   19   79 1    
    42   20   21 2    
    43   20   22 1    
    44   22   23 1    
    45   22   24 1    
    46   22   80 1    
    47   23   81 1    
    48   23   82 1    
    49   23   83 1    
    50   24   25 am   BACKBONE|DICT|INTERRES
    51   24   84 1    
    52   25   26 2    
    53   27   28 2    
    54   27   29 am   BACKBONE|DICT|INTERRES
    55   29   30 1    
    56   29   85 1    
    57   30   31 1    
    58   30   32 1    
    59   30   86 1    
    60   31   87 1    
    61   31   88 1    
    62   31   89 1    
    63   32   33 2    
    64   32   34 am   BACKBONE|DICT|INTERRES
    65   34   35 1    
    66   34   90 1    
    67   35   36 1    
    68   35   37 1    
    69   35   91 1    
    70   36   92 1    
    71   36   93 1    
    72   36   94 1    
    73   37   38 2    
    74   37   39 am   BACKBONE|DICT|INTERRES
    75   39   40 1    
    76   39   95 1    
    77   40   41 1    
    78   40   42 1    
    79   40   96 1    
    80   41   97 1    
    81   41   98 1    
    82   41   99 1    
    83   42   43 2    
    84   42   44 am   BACKBONE|DICT|INTERRES
    85   44   45 1    
    86   44  100 1    
    87   45   46 1    
    88   45   47 1    
    89   45  101 1    
    90   46  102 1    
    91   46  103 1    
    92   46  104 1    
    93   47   48 2    
    94   47   49 am   BACKBONE|DICT|INTERRES
    95   49   50 1    
    96   49  105 1    
    97   50   51 1    
    98   50   52 1    
    99   50  106 1    
   100   51  107 1    
   101   51  108 1    
   102   51  109 1    
   103   52   53 2    
   104   52   54 am   BACKBONE|DICT|INTERRES
   105   54   55 1    
   106   54  110 1    
   107   55   56 1    
   108   55   59 1    
   109   55  111 1    
   110   56   57 am   BACKBONE|DICT|INTERRES
   111   56   58 2    
   112   57  112 1    
   113   57  113 1    
   114   59   60 1    
   115   59  114 1    
   116   59  115 1    
   117   60   61 1    
   118   61  116 1    
   119   61  117 1    
@<TRIPOS>SUBSTRUCTURE
     1 UNK         1 GROUP             0       ****    0 ROOT    
