@<TRIPOS>MOLECULE
3R8
117   119    1
SMALL
USER_CHARGES


@<TRIPOS>ATOM
      1 CA         22.5227  -30.4991  -49.6548 C.3       0 UNK        -0.2013 
      2 C          21.3862  -30.1551  -48.7039 C.2       0 UNK         0.4866 
      3 O          20.6851  -31.0526  -48.2362 O.2       0 UNK        -0.5176 
      4 N          21.1984  -28.8645  -48.4128 N.am      1 UNK        -0.4884 
      5 CA         20.1885  -28.3529  -47.4920 C.3       1 UNK         0.0853 
      6 C6         18.8203  -28.1479  -48.1929 C.3       10 UNK        -0.0849 
      7 S7         17.5199  -27.4224  -47.1324 S.3       10 UNK        -0.2776 
      8 C8         16.8168  -28.8893  -46.3167 C.3       10 UNK         0.0316 
      9 C9         17.0729  -28.8680  -44.8163 C.ar      10 UNK        -0.0863 
     10 C10        18.0509  -29.6907  -44.2484 C.ar      10 UNK        -0.1009 
     11 C11        18.2358  -29.7127  -42.8628 C.ar      10 UNK        -0.0712 
     12 C12        17.4293  -28.9155  -42.0460 C.ar      10 UNK        -0.0894 
     13 C13        16.4796  -28.0521  -42.6021 C.ar      10 UNK        -0.0745 
     14 C14        16.3028  -28.0421  -43.9896 C.ar      10 UNK        -0.0972 
     15 C15        15.6137  -27.1545  -41.7185 C.3       10 UNK         0.0209 
     16 S16        16.5335  -26.2944  -40.3919 S.3       10 UNK        -0.2568 
     17 C17        17.6757  -25.2224  -41.3321 C.3       10 UNK        -0.0983 
     18 CA         19.0979  -25.8359  -41.4333 C.3       3 UNK         0.0876 
     19 N          19.7366  -25.5188  -42.7111 N.am      3 UNK        -0.4424 
     20 C          20.6791  -26.2718  -43.2871 C.2       2 UNK         0.4918 
     21 O          21.1675  -27.2888  -42.7825 O.2       2 UNK        -0.4875 
     22 CA         21.0946  -25.8663  -44.7024 C.3       2 UNK         0.0481 
     23 CB         22.6016  -25.5532  -44.7889 C.3       2 UNK        -0.1831 
     24 N          20.7147  -26.9925  -45.5436 N.am      2 UNK        -0.4498 
     25 C          20.7550  -27.0649  -46.8761 C.2       1 UNK         0.5027 
     26 O          21.2035  -26.1842  -47.6143 O.2       1 UNK        -0.4969 
     27 C          20.0022  -25.5369  -40.2184 C.2       3 UNK         0.5005 
     28 O          21.1346  -25.0761  -40.3787 O.2       3 UNK        -0.5279 
     29 N          19.5009  -25.8800  -39.0219 N.am      4 UNK        -0.4463 
     30 CA         20.2247  -25.9361  -37.7418 C.3       4 UNK         0.0283 
     31 CB         20.6785  -24.5315  -37.2896 C.3       4 UNK        -0.1875 
     32 C          21.3774  -26.9636  -37.7661 C.2       4 UNK         0.4949 
     33 O          22.4003  -26.7625  -37.1108 O.2       4 UNK        -0.5039 
     34 N          21.1810  -28.0396  -38.5462 N.am      5 UNK        -0.4663 
     35 CA         22.1137  -29.1377  -38.8279 C.3       5 UNK         0.0242 
     36 CB         22.3792  -29.9750  -37.5593 C.3       5 UNK        -0.1982 
     37 C          23.4143  -28.7018  -39.5334 C.2       5 UNK         0.5017 
     38 O          24.4078  -29.4262  -39.4609 O.2       5 UNK        -0.5012 
     39 N          23.3954  -27.5589  -40.2374 N.am      6 UNK        -0.4439 
     40 CA         24.5363  -27.0456  -41.0044 C.3       6 UNK         0.0297 
     41 CB         24.2558  -25.6039  -41.4496 C.3       6 UNK        -0.2006 
     42 C          24.9166  -27.9398  -42.1995 C.2       6 UNK         0.4892 
     43 O          26.1029  -28.0625  -42.5037 O.2       6 UNK        -0.5089 
     44 N          23.9182  -28.5923  -42.8121 N.am      7 UNK        -0.4243 
     45 CA         24.0925  -29.6314  -43.8337 C.3       7 UNK         0.0196 
     46 CB         22.9505  -29.5229  -44.8610 C.3       7 UNK        -0.2007 
     47 C          24.1836  -31.0498  -43.2313 C.2       7 UNK         0.5020 
     48 O          23.9269  -32.0215  -43.9429 O.2       7 UNK        -0.5147 
     49 N          24.4989  -31.1617  -41.9310 N.am      8 UNK        -0.4734 
     50 CA         24.5927  -32.3709  -41.0939 C.3       8 UNK         0.0238 
     51 CB         25.6233  -33.3763  -41.6443 C.3       8 UNK        -0.1912 
     52 C          23.2416  -33.0517  -40.8105 C.2       8 UNK         0.5038 
     53 O          23.0041  -33.4597  -39.6737 O.2       8 UNK        -0.5046 
     54 N          22.3767  -33.1321  -41.8280 N.am      9 UNK        -0.4200 
     55 CA         21.0073  -33.6677  -41.7855 C.3       9 UNK         0.0839 
     56 C          20.9049  -35.2129  -41.6024 C.2       9 UNK         0.5513 
     57 N          21.9820  -35.9705  -41.7716 N.am      9 UNK        -0.7519 
     58 O          19.8284  -35.7407  -41.3354 O.2       9 UNK        -0.4960 
     59 C59        20.0863  -32.8572  -40.8185 C.3       10 UNK        -0.0876 
     60 S60        18.6261  -32.1679  -41.6621 S.3       10 UNK        -0.2414 
     61 C61        19.3113  -30.5858  -42.2390 C.3       10 UNK         0.0169 
     62 H62        23.0526  -29.6100  -49.9962 H         1 UNK         0.0903 
     63 H63        23.2405  -31.1526  -49.1597 H         1 UNK         0.0903 
     64 H64        22.1348  -31.0195  -50.5301 H         1 UNK         0.0903 
     65 H65        21.8088  -28.1538  -48.7980 H         1 UNK         0.3096 
     66 H66        20.0539  -29.0812  -46.6888 H         1 UNK         0.1121 
     67 H67        18.4626  -29.0945  -48.6009 H         1 UNK         0.0849 
     68 H68        18.9435  -27.4892  -49.0548 H         1 UNK         0.0849 
     69 H69        15.7412  -28.9098  -46.4989 H         1 UNK         0.0865 
     70 H70        17.2108  -29.8056  -46.7589 H         1 UNK         0.0865 
     71 H71        18.6559  -30.3272  -44.8797 H         1 UNK         0.1346 
     72 H72        17.5588  -28.9520  -40.9731 H         1 UNK         0.1412 
     73 H73        15.5543  -27.3986  -44.4320 H         1 UNK         0.1426 
     74 H74        14.8384  -27.7692  -41.2597 H         1 UNK         0.0716 
     75 H75        15.0951  -26.4063  -42.3201 H         1 UNK         0.0716 
     76 H76        17.7000  -24.2306  -40.8764 H         1 UNK         0.0695 
     77 H77        17.2484  -25.0776  -42.3260 H         1 UNK         0.0695 
     78 H78        18.9940  -26.9199  -41.4288 H         1 UNK         0.0983 
     79 H79        19.4131  -24.6870  -43.1818 H         1 UNK         0.3095 
     80 H80        20.5266  -24.9900  -45.0211 H         1 UNK         0.0454 
     81 H81        23.2139  -26.3887  -44.4528 H         1 UNK         0.0851 
     82 H82        22.8503  -24.6928  -44.1675 H         1 UNK         0.0851 
     83 H83        22.9086  -25.3043  -45.8040 H         1 UNK         0.0851 
     84 H84        20.3252  -27.7674  -45.0225 H         1 UNK         0.2976 
     85 H85        18.5433  -26.2110  -38.9986 H         1 UNK         0.3116 
     86 H86        19.5100  -26.3025  -37.0034 H         1 UNK         0.0646 
     87 H87        21.4630  -24.1301  -37.9317 H         1 UNK         0.0847 
     88 H88        21.0764  -24.5588  -36.2745 H         1 UNK         0.0847 
     89 H89        19.8483  -23.8256  -37.2920 H         1 UNK         0.0847 
     90 H90        20.2945  -28.0949  -39.0267 H         1 UNK         0.3040 
     91 H91        21.6053  -29.7876  -39.5415 H         1 UNK         0.1015 
     92 H92        22.9577  -29.4187  -36.8211 H         1 UNK         0.0786 
     93 H93        22.9400  -30.8804  -37.7968 H         1 UNK         0.0786 
     94 H94        21.4478  -30.2899  -37.0890 H         1 UNK         0.0786 
     95 H95        22.5489  -27.0034  -40.2525 H         1 UNK         0.3172 
     96 H96        25.3991  -27.0225  -40.3352 H         1 UNK         0.0595 
     97 H97        25.0600  -25.2185  -42.0778 H         1 UNK         0.0839 
     98 H98        24.1656  -24.9379  -40.5912 H         1 UNK         0.0839 
     99 H99        23.3293  -25.5337  -42.0159 H         1 UNK         0.0839 
    100 H100       22.9652  -28.3852  -42.5318 H         1 UNK         0.2998 
    101 H101       25.0305  -29.4638  -44.3670 H         1 UNK         0.0822 
    102 H102       23.0264  -30.2910  -45.6319 H         1 UNK         0.0787 
    103 H103       21.9721  -29.6245  -44.3907 H         1 UNK         0.0787 
    104 H104       22.9852  -28.5647  -45.3757 H         1 UNK         0.0787 
    105 H105       24.6523  -30.3012  -41.4174 H         1 UNK         0.3055 
    106 H106       24.9651  -32.0255  -40.1277 H         1 UNK         0.1106 
    107 H107       25.7615  -34.2070  -40.9510 H         1 UNK         0.0828 
    108 H108       25.3159  -33.8028  -42.5993 H         1 UNK         0.0828 
    109 H109       26.5972  -32.9075  -41.7846 H         1 UNK         0.0828 
    110 H110       22.7038  -32.8047  -42.7331 H         1 UNK         0.2931 
    111 H111       20.6532  -33.5122  -42.8052 H         1 UNK         0.0412 
    112 H112       22.8685  -35.5530  -42.0049 H         1 UNK         0.3472 
    113 H113       21.9059  -36.9699  -41.6629 H         1 UNK         0.3472 
    114 H114       20.6239  -32.0341  -40.3470 H         1 UNK         0.0970 
    115 H115       19.7417  -33.4675  -39.9817 H         1 UNK         0.0970 
    116 H116       19.7690  -30.0543  -41.4034 H         1 UNK         0.0612 
    117 H117       20.1109  -30.7785  -42.9562 H         1 UNK         0.0612 
@<TRIPOS>BOND
     1    1    2 1    
     2    1   62 1    
     3    1   63 1    
     4    1   64 1    
     5    2    3 2    
     6    2    4 am   BACKBONE|DICT|INTERRES
     7    4    5 1    
     8    4   65 1    
     9    5    6 1    
    10    5   25 1    
    11    5   66 1    
    12    6    7 1    
    13    6   67 1    
    14    6   68 1    
    15    7    8 1    
    16    8    9 1    
    17    8   69 1    
    18    8   70 1    
    19    9   10 ar   
    20    9   14 ar   
    21   10   11 ar   
    22   10   71 1    
    23   11   12 ar   
    24   11   61 1    
    25   12   13 ar   
    26   12   72 1    
    27   13   14 ar   
    28   13   15 1    
    29   14   73 1    
    30   15   16 1    
    31   15   74 1    
    32   15   75 1    
    33   16   17 1    
    34   17   18 1    
    35   17   76 1    
    36   17   77 1    
    37   18   19 1    
    38   18   27 1    
    39   18   78 1    
    40   19   20 am   BACKBONE|DICT|INTERRES
    41   19   79 1    
    42   20   21 2    
    43   20   22 1    
    44   22   23 1    
    45   22   24 1    
    46   22   80 1    
    47   23   81 1    
    48   23   82 1    
    49   23   83 1    
    50   24   25 am   BACKBONE|DICT|INTERRES
    51   24   84 1    
    52   25   26 2    
    53   27   28 2    
    54   27   29 am   BACKBONE|DICT|INTERRES
    55   29   30 1    
    56   29   85 1    
    57   30   31 1    
    58   30   32 1    
    59   30   86 1    
    60   31   87 1    
    61   31   88 1    
    62   31   89 1    
    63   32   33 2    
    64   32   34 am   BACKBONE|DICT|INTERRES
    65   34   35 1    
    66   34   90 1    
    67   35   36 1    
    68   35   37 1    
    69   35   91 1    
    70   36   92 1    
    71   36   93 1    
    72   36   94 1    
    73   37   38 2    
    74   37   39 am   BACKBONE|DICT|INTERRES
    75   39   40 1    
    76   39   95 1    
    77   40   41 1    
    78   40   42 1    
    79   40   96 1    
    80   41   97 1    
    81   41   98 1    
    82   41   99 1    
    83   42   43 2    
    84   42   44 am   BACKBONE|DICT|INTERRES
    85   44   45 1    
    86   44  100 1    
    87   45   46 1    
    88   45   47 1    
    89   45  101 1    
    90   46  102 1    
    91   46  103 1    
    92   46  104 1    
    93   47   48 2    
    94   47   49 am   BACKBONE|DICT|INTERRES
    95   49   50 1    
    96   49  105 1    
    97   50   51 1    
    98   50   52 1    
    99   50  106 1    
   100   51  107 1    
   101   51  108 1    
   102   51  109 1    
   103   52   53 2    
   104   52   54 am   BACKBONE|DICT|INTERRES
   105   54   55 1    
   106   54  110 1    
   107   55   56 1    
   108   55   59 1    
   109   55  111 1    
   110   56   57 am   BACKBONE|DICT|INTERRES
   111   56   58 2    
   112   57  112 1    
   113   57  113 1    
   114   59   60 1    
   115   59  114 1    
   116   59  115 1    
   117   60   61 1    
   118   61  116 1    
   119   61  117 1    
@<TRIPOS>SUBSTRUCTURE
     1 UNK         1 GROUP             0       ****    0 ROOT    
