@<TRIPOS>MOLECULE
3R8
117   119    1
SMALL
USER_CHARGES


@<TRIPOS>ATOM
      1 CA         13.8086  -25.1647  -41.0212 C.3       0 UNK        -0.2013 
      2 C          14.5807  -26.0298  -42.0055 C.2       0 UNK         0.4866 
      3 O          14.8614  -27.1910  -41.7085 O.2       0 UNK        -0.5176 
      4 N          14.9430  -25.4688  -43.1677 N.am      1 UNK        -0.4884 
      5 CA         15.6692  -26.0890  -44.2898 C.3       1 UNK         0.0853 
      6 C6         14.9641  -27.3536  -44.8526 C.3       10 UNK        -0.0849 
      7 S7         15.3224  -27.6230  -46.6218 S.3       10 UNK        -0.2776 
      8 C8         15.9391  -29.3380  -46.6382 C.3       10 UNK         0.0316 
      9 C9         17.3554  -29.4729  -46.0909 C.ar      10 UNK        -0.0863 
     10 C10        17.5887  -30.1501  -44.8905 C.ar      10 UNK        -0.1009 
     11 C11        18.8937  -30.3514  -44.4297 C.ar      10 UNK        -0.0712 
     12 C12        19.9730  -29.8542  -45.1682 C.ar      10 UNK        -0.0894 
     13 C13        19.7517  -29.1585  -46.3613 C.ar      10 UNK        -0.0745 
     14 C14        18.4417  -28.9745  -46.8172 C.ar      10 UNK        -0.0972 
     15 C15        20.9208  -28.6445  -47.1906 C.3       10 UNK         0.0209 
     16 S16        21.2927  -26.8922  -46.8542 S.3       10 UNK        -0.2568 
     17 C17        22.4619  -26.9958  -45.4569 C.3       10 UNK        -0.0983 
     18 CA         21.9463  -26.2781  -44.1855 C.3       3 UNK         0.0876 
     19 N          20.7132  -26.8863  -43.6870 N.am      3 UNK        -0.4424 
     20 C          19.9657  -26.4297  -42.6752 C.2       2 UNK         0.4918 
     21 O          20.1782  -25.3773  -42.0693 O.2       2 UNK        -0.4875 
     22 CA         18.7663  -27.3108  -42.2870 C.3       2 UNK         0.0481 
     23 CB         18.6614  -27.4656  -40.7601 C.3       2 UNK        -0.1831 
     24 N          17.4708  -26.8623  -42.8063 N.am      2 UNK        -0.4498 
     25 C          17.1659  -26.3446  -44.0063 C.2       1 UNK         0.5027 
     26 O          17.9870  -26.0567  -44.8762 O.2       1 UNK        -0.4969 
     27 C          23.0263  -26.3123  -43.0892 C.2       3 UNK         0.5005 
     28 O          23.2848  -27.3863  -42.5463 O.2       3 UNK        -0.5279 
     29 N          23.6552  -25.1642  -42.7987 N.am      4 UNK        -0.4463 
     30 CA         24.6153  -24.9790  -41.6991 C.3       4 UNK         0.0283 
     31 CB         25.0669  -23.5101  -41.6634 C.3       4 UNK        -0.1875 
     32 C          25.8413  -25.9127  -41.7272 C.2       4 UNK         0.4949 
     33 O          26.4077  -26.1956  -40.6716 O.2       4 UNK        -0.5039 
     34 N          26.2154  -26.3882  -42.9220 N.am      5 UNK        -0.4663 
     35 CA         27.2956  -27.3521  -43.1407 C.3       5 UNK         0.0242 
     36 CB         27.6615  -27.3533  -44.6344 C.3       5 UNK        -0.1982 
     37 C          26.9693  -28.7834  -42.6697 C.2       5 UNK         0.5017 
     38 O          27.9007  -29.5697  -42.4920 O.2       5 UNK        -0.5012 
     39 N          25.6821  -29.1124  -42.4908 N.am      6 UNK        -0.4439 
     40 CA         25.2065  -30.4408  -42.1039 C.3       6 UNK         0.0297 
     41 CB         25.1456  -31.3638  -43.3390 C.3       6 UNK        -0.2006 
     42 C          23.8561  -30.3115  -41.3882 C.2       6 UNK         0.4892 
     43 O          22.8855  -30.9590  -41.7821 O.2       6 UNK        -0.5089 
     44 N          23.8115  -29.4572  -40.3553 N.am      7 UNK        -0.4243 
     45 CA         22.5872  -29.0519  -39.6526 C.3       7 UNK         0.0196 
     46 CB         22.9208  -27.9247  -38.6633 C.3       7 UNK        -0.2007 
     47 C          21.8389  -30.1964  -38.9451 C.2       7 UNK         0.5020 
     48 O          20.6253  -30.1011  -38.7642 O.2       7 UNK        -0.5147 
     49 N          22.5624  -31.2647  -38.5819 N.am      8 UNK        -0.4734 
     50 CA         22.0014  -32.5065  -38.0394 C.3       8 UNK         0.0238 
     51 CB         23.1299  -33.3235  -37.3888 C.3       8 UNK        -0.1912 
     52 C          21.2596  -33.3559  -39.0911 C.2       8 UNK         0.5038 
     53 O          20.4622  -34.2129  -38.7091 O.2       8 UNK        -0.5046 
     54 N          21.5301  -33.1096  -40.3812 N.am      9 UNK        -0.4200 
     55 CA         20.9294  -33.7731  -41.5475 C.3       9 UNK         0.0839 
     56 C          21.2883  -35.2808  -41.7188 C.2       9 UNK         0.5513 
     57 N          22.3286  -35.7868  -41.0667 N.am      9 UNK        -0.7519 
     58 O          20.6380  -35.9999  -42.4730 O.2       9 UNK        -0.4960 
     59 C59        19.4067  -33.4642  -41.6787 C.3       10 UNK        -0.0876 
     60 S60        18.9690  -32.8966  -43.3547 S.3       10 UNK        -0.2414 
     61 C61        19.1314  -31.0997  -43.1275 C.3       10 UNK         0.0169 
     62 H62        14.3620  -25.0749  -40.0869 H         1 UNK         0.0903 
     63 H63        13.6319  -24.1617  -41.4089 H         1 UNK         0.0903 
     64 H64        12.8424  -25.6185  -40.8024 H         1 UNK         0.0903 
     65 H65        14.7045  -24.4975  -43.3192 H         1 UNK         0.3096 
     66 H66        15.6435  -25.3261  -45.0705 H         1 UNK         0.1121 
     67 H67        15.2145  -28.2407  -44.2677 H         1 UNK         0.0849 
     68 H68        13.8819  -27.2431  -44.7681 H         1 UNK         0.0849 
     69 H69        15.2447  -29.9777  -46.0910 H         1 UNK         0.0865 
     70 H70        15.9277  -29.6993  -47.6676 H         1 UNK         0.0865 
     71 H71        16.7573  -30.5452  -44.3225 H         1 UNK         0.1346 
     72 H72        20.9838  -30.0180  -44.8185 H         1 UNK         0.1412 
     73 H73        18.2661  -28.4505  -47.7470 H         1 UNK         0.1426 
     74 H74        21.8090  -29.2580  -47.0322 H         1 UNK         0.0716 
     75 H75        20.6794  -28.7449  -48.2499 H         1 UNK         0.0716 
     76 H76        22.6897  -28.0415  -45.2407 H         1 UNK         0.0695 
     77 H77        23.3998  -26.5477  -45.7907 H         1 UNK         0.0695 
     78 H78        21.7244  -25.2379  -44.4330 H         1 UNK         0.0983 
     79 H79        20.4141  -27.7213  -44.1690 H         1 UNK         0.3095 
     80 H80        18.9391  -28.3035  -42.6956 H         1 UNK         0.0454 
     81 H81        19.6073  -27.7998  -40.3325 H         1 UNK         0.0851 
     82 H82        18.4003  -26.5234  -40.2769 H         1 UNK         0.0851 
     83 H83        17.9073  -28.2035  -40.4857 H         1 UNK         0.0851 
     84 H84        16.6708  -27.0457  -42.2062 H         1 UNK         0.2976 
     85 H85        23.3939  -24.3298  -43.3051 H         1 UNK         0.3116 
     86 H86        24.0795  -25.1901  -40.7715 H         1 UNK         0.0646 
     87 H87        25.7600  -23.3340  -40.8393 H         1 UNK         0.0847 
     88 H88        24.2221  -22.8363  -41.5199 H         1 UNK         0.0847 
     89 H89        25.5766  -23.2218  -42.5836 H         1 UNK         0.0847 
     90 H90        25.6898  -26.0984  -43.7336 H         1 UNK         0.3040 
     91 H91        28.1684  -27.0192  -42.5741 H         1 UNK         0.1015 
     92 H92        27.9733  -26.3634  -44.9684 H         1 UNK         0.0786 
     93 H93        26.8226  -27.6705  -45.2554 H         1 UNK         0.0786 
     94 H94        28.4897  -28.0350  -44.8336 H         1 UNK         0.0786 
     95 H95        24.9583  -28.4045  -42.6068 H         1 UNK         0.3172 
     96 H96        25.8997  -30.8760  -41.3810 H         1 UNK         0.0595 
     97 H97        24.4660  -30.9725  -44.0971 H         1 UNK         0.0839 
     98 H98        24.7943  -32.3601  -43.0671 H         1 UNK         0.0839 
     99 H99        26.1269  -31.4836  -43.7979 H         1 UNK         0.0839 
    100 H100       24.6571  -28.9623  -40.1099 H         1 UNK         0.2998 
    101 H101       21.9091  -28.6490  -40.4079 H         1 UNK         0.0822 
    102 H102       23.3528  -27.0648  -39.1757 H         1 UNK         0.0787 
    103 H103       22.0229  -27.5764  -38.1506 H         1 UNK         0.0787 
    104 H104       23.6272  -28.2534  -37.9001 H         1 UNK         0.0787 
    105 H105       23.5565  -31.2474  -38.7587 H         1 UNK         0.3055 
    106 H106       21.2747  -32.2464  -37.2662 H         1 UNK         0.1106 
    107 H107       22.7426  -34.2445  -36.9505 H         1 UNK         0.0828 
    108 H108       23.8964  -33.6045  -38.1120 H         1 UNK         0.0828 
    109 H109       23.6126  -32.7650  -36.5866 H         1 UNK         0.0828 
    110 H110       22.1729  -32.3592  -40.6134 H         1 UNK         0.2931 
    111 H111       21.4430  -33.2956  -42.3828 H         1 UNK         0.0412 
    112 H112       22.5624  -36.7599  -41.1880 H         1 UNK         0.3472 
    113 H113       22.8779  -35.2070  -40.4533 H         1 UNK         0.3472 
    114 H114       18.7967  -34.3335  -41.4263 H         1 UNK         0.0970 
    115 H115       19.0984  -32.6933  -40.9704 H         1 UNK         0.0970 
    116 H116       18.4151  -30.7636  -42.3760 H         1 UNK         0.0612 
    117 H117       20.1240  -30.8741  -42.7327 H         1 UNK         0.0612 
@<TRIPOS>BOND
     1    1    2 1    
     2    1   62 1    
     3    1   63 1    
     4    1   64 1    
     5    2    3 2    
     6    2    4 am   BACKBONE|DICT|INTERRES
     7    4    5 1    
     8    4   65 1    
     9    5    6 1    
    10    5   25 1    
    11    5   66 1    
    12    6    7 1    
    13    6   67 1    
    14    6   68 1    
    15    7    8 1    
    16    8    9 1    
    17    8   69 1    
    18    8   70 1    
    19    9   10 ar   
    20    9   14 ar   
    21   10   11 ar   
    22   10   71 1    
    23   11   12 ar   
    24   11   61 1    
    25   12   13 ar   
    26   12   72 1    
    27   13   14 ar   
    28   13   15 1    
    29   14   73 1    
    30   15   16 1    
    31   15   74 1    
    32   15   75 1    
    33   16   17 1    
    34   17   18 1    
    35   17   76 1    
    36   17   77 1    
    37   18   19 1    
    38   18   27 1    
    39   18   78 1    
    40   19   20 am   BACKBONE|DICT|INTERRES
    41   19   79 1    
    42   20   21 2    
    43   20   22 1    
    44   22   23 1    
    45   22   24 1    
    46   22   80 1    
    47   23   81 1    
    48   23   82 1    
    49   23   83 1    
    50   24   25 am   BACKBONE|DICT|INTERRES
    51   24   84 1    
    52   25   26 2    
    53   27   28 2    
    54   27   29 am   BACKBONE|DICT|INTERRES
    55   29   30 1    
    56   29   85 1    
    57   30   31 1    
    58   30   32 1    
    59   30   86 1    
    60   31   87 1    
    61   31   88 1    
    62   31   89 1    
    63   32   33 2    
    64   32   34 am   BACKBONE|DICT|INTERRES
    65   34   35 1    
    66   34   90 1    
    67   35   36 1    
    68   35   37 1    
    69   35   91 1    
    70   36   92 1    
    71   36   93 1    
    72   36   94 1    
    73   37   38 2    
    74   37   39 am   BACKBONE|DICT|INTERRES
    75   39   40 1    
    76   39   95 1    
    77   40   41 1    
    78   40   42 1    
    79   40   96 1    
    80   41   97 1    
    81   41   98 1    
    82   41   99 1    
    83   42   43 2    
    84   42   44 am   BACKBONE|DICT|INTERRES
    85   44   45 1    
    86   44  100 1    
    87   45   46 1    
    88   45   47 1    
    89   45  101 1    
    90   46  102 1    
    91   46  103 1    
    92   46  104 1    
    93   47   48 2    
    94   47   49 am   BACKBONE|DICT|INTERRES
    95   49   50 1    
    96   49  105 1    
    97   50   51 1    
    98   50   52 1    
    99   50  106 1    
   100   51  107 1    
   101   51  108 1    
   102   51  109 1    
   103   52   53 2    
   104   52   54 am   BACKBONE|DICT|INTERRES
   105   54   55 1    
   106   54  110 1    
   107   55   56 1    
   108   55   59 1    
   109   55  111 1    
   110   56   57 am   BACKBONE|DICT|INTERRES
   111   56   58 2    
   112   57  112 1    
   113   57  113 1    
   114   59   60 1    
   115   59  114 1    
   116   59  115 1    
   117   60   61 1    
   118   61  116 1    
   119   61  117 1    
@<TRIPOS>SUBSTRUCTURE
     1 UNK         1 GROUP             0       ****    0 ROOT    
