@<TRIPOS>MOLECULE
3R8
117   119    1
SMALL
USER_CHARGES


@<TRIPOS>ATOM
      1 CA         17.0098  -24.3903  -39.8678 C.3       0 UNK        -0.2013 
      2 C          17.3194  -24.3976  -41.3573 C.2       0 UNK         0.4866 
      3 O          17.5702  -23.3395  -41.9358 O.2       0 UNK        -0.5176 
      4 N          17.2961  -25.5817  -41.9828 N.am      1 UNK        -0.4884 
      5 CA         17.6626  -25.7909  -43.3882 C.3       1 UNK         0.0853 
      6 C6         17.1165  -27.1462  -43.9079 C.3       10 UNK        -0.0849 
      7 S7         16.7842  -27.0973  -45.6989 S.3       10 UNK        -0.2776 
      8 C8         15.8522  -28.6457  -45.9318 C.3       10 UNK         0.0316 
      9 C9         16.7363  -29.8794  -45.8026 C.ar      10 UNK        -0.0863 
     10 C10        16.4495  -30.8655  -44.8517 C.ar      10 UNK        -0.1009 
     11 C11        17.2356  -32.0201  -44.7658 C.ar      10 UNK        -0.0712 
     12 C12        18.3278  -32.1705  -45.6270 C.ar      10 UNK        -0.0894 
     13 C13        18.6376  -31.1820  -46.5656 C.ar      10 UNK        -0.0745 
     14 C14        17.8262  -30.0493  -46.6616 C.ar      10 UNK        -0.0972 
     15 C15        19.8615  -31.3288  -47.4607 C.3       10 UNK         0.0209 
     16 S16        21.1064  -30.0286  -47.1582 S.3       10 UNK        -0.2568 
     17 C17        21.4186  -30.2209  -45.3697 C.3       10 UNK        -0.0983 
     18 CA         22.0725  -28.9784  -44.7191 C.3       3 UNK         0.0876 
     19 N          21.3924  -27.7243  -45.0607 N.am      3 UNK        -0.4424 
     20 C          21.9147  -26.5082  -44.8517 C.2       2 UNK         0.4918 
     21 O          23.0221  -26.3170  -44.3500 O.2       2 UNK        -0.4875 
     22 CA         21.0336  -25.3021  -45.2221 C.3       2 UNK         0.0481 
     23 CB         21.1294  -25.0081  -46.7272 C.3       2 UNK        -0.1831 
     24 N          19.6250  -25.4556  -44.8377 N.am      2 UNK        -0.4498 
     25 C          19.1908  -25.6750  -43.5885 C.2       1 UNK         0.5027 
     26 O          19.9494  -25.8230  -42.6277 O.2       1 UNK        -0.4969 
     27 C          22.1635  -29.1705  -43.1920 C.2       3 UNK         0.5005 
     28 O          23.1860  -29.6504  -42.6999 O.2       3 UNK        -0.5279 
     29 N          21.0994  -28.7809  -42.4729 N.am      4 UNK        -0.4463 
     30 CA         21.0050  -28.8187  -41.0114 C.3       4 UNK         0.0283 
     31 CB         19.5624  -28.5118  -40.5744 C.3       4 UNK        -0.1875 
     32 C          21.9852  -27.8466  -40.3426 C.2       4 UNK         0.4949 
     33 O          22.6420  -28.2170  -39.3702 O.2       4 UNK        -0.5039 
     34 N          22.0856  -26.6337  -40.9035 N.am      5 UNK        -0.4663 
     35 CA         23.0515  -25.6077  -40.5109 C.3       5 UNK         0.0242 
     36 CB         22.7165  -24.2935  -41.2343 C.3       5 UNK        -0.1982 
     37 C          24.5067  -26.0262  -40.7826 C.2       5 UNK         0.5017 
     38 O          25.3900  -25.6503  -40.0114 O.2       5 UNK        -0.5012 
     39 N          24.7251  -26.7977  -41.8581 N.am      6 UNK        -0.4439 
     40 CA         26.0154  -27.3830  -42.2126 C.3       6 UNK         0.0297 
     41 CB         26.0105  -27.8583  -43.6760 C.3       6 UNK        -0.2006 
     42 C          26.4300  -28.5042  -41.2449 C.2       6 UNK         0.4892 
     43 O          27.4383  -28.3402  -40.5558 O.2       6 UNK        -0.5089 
     44 N          25.6718  -29.6132  -41.2086 N.am      7 UNK        -0.4243 
     45 CA         26.0159  -30.8005  -40.4092 C.3       7 UNK         0.0196 
     46 CB         27.2989  -31.4653  -40.9639 C.3       7 UNK        -0.2007 
     47 C          24.9176  -31.8751  -40.3023 C.2       7 UNK         0.5020 
     48 O          25.0482  -32.7435  -39.4384 O.2       7 UNK        -0.5147 
     49 N          23.9133  -31.8752  -41.1896 N.am      8 UNK        -0.4734 
     50 CA         22.9663  -32.9826  -41.3558 C.3       8 UNK         0.0238 
     51 CB         22.5622  -33.0802  -42.8419 C.3       8 UNK        -0.1912 
     52 C          21.7677  -32.8798  -40.3936 C.2       8 UNK         0.5038 
     53 O          21.9179  -33.1698  -39.2069 O.2       8 UNK        -0.5046 
     54 N          20.5973  -32.5141  -40.9312 N.am      9 UNK        -0.4200 
     55 CA         19.2561  -32.5264  -40.3154 C.3       9 UNK         0.0839 
     56 C          19.0311  -31.6007  -39.0770 C.2       9 UNK         0.5513 
     57 N          20.0618  -31.1816  -38.3586 N.am      9 UNK        -0.7519 
     58 O          17.8968  -31.2580  -38.7538 O.2       9 UNK        -0.4960 
     59 C59        18.1642  -32.3325  -41.4073 C.3       10 UNK        -0.0876 
     60 S60        18.2490  -33.6157  -42.7010 S.3       10 UNK        -0.2414 
     61 C61        16.8695  -33.1324  -43.7889 C.3       10 UNK         0.0169 
     62 H62        16.1457  -23.7576  -39.6666 H         1 UNK         0.0903 
     63 H63        16.7940  -25.3896  -39.4902 H         1 UNK         0.0903 
     64 H64        17.8593  -23.9946  -39.3116 H         1 UNK         0.0903 
     65 H65        17.0988  -26.4160  -41.4498 H         1 UNK         0.3096 
     66 H66        17.1966  -24.9820  -43.9566 H         1 UNK         0.1121 
     67 H67        16.1698  -27.3797  -43.4174 H         1 UNK         0.0849 
     68 H68        17.7857  -27.9773  -43.6752 H         1 UNK         0.0849 
     69 H69        15.0207  -28.6791  -45.2260 H         1 UNK         0.0865 
     70 H70        15.4058  -28.6393  -46.9271 H         1 UNK         0.0865 
     71 H71        15.5979  -30.7471  -44.1956 H         1 UNK         0.1346 
     72 H72        18.9397  -33.0598  -45.5600 H         1 UNK         0.1412 
     73 H73        18.0563  -29.2878  -47.3946 H         1 UNK         0.1426 
     74 H74        20.3313  -32.3036  -47.3203 H         1 UNK         0.0716 
     75 H75        19.5492  -31.2850  -48.5049 H         1 UNK         0.0716 
     76 H76        22.0593  -31.0947  -45.2431 H         1 UNK         0.0695 
     77 H77        20.4807  -30.4506  -44.8632 H         1 UNK         0.0695 
     78 H78        23.0948  -28.9076  -45.0973 H         1 UNK         0.0983 
     79 H79        20.4903  -27.8038  -45.5068 H         1 UNK         0.3095 
     80 H80        21.4232  -24.4362  -44.6830 H         1 UNK         0.0454 
     81 H81        20.7157  -25.8197  -47.3271 H         1 UNK         0.0851 
     82 H82        20.5981  -24.0927  -46.9880 H         1 UNK         0.0851 
     83 H83        22.1682  -24.8744  -47.0329 H         1 UNK         0.0851 
     84 H84        18.9412  -25.3834  -45.5787 H         1 UNK         0.2976 
     85 H85        20.3316  -28.3465  -42.9620 H         1 UNK         0.3116 
     86 H86        21.2620  -29.8264  -40.6834 H         1 UNK         0.0646 
     87 H87        19.2629  -27.4959  -40.8254 H         1 UNK         0.0847 
     88 H88        18.8477  -29.1935  -41.0326 H         1 UNK         0.0847 
     89 H89        19.4583  -28.6095  -39.4933 H         1 UNK         0.0847 
     90 H90        21.4432  -26.3939  -41.6560 H         1 UNK         0.3040 
     91 H91        22.9502  -25.4464  -39.4354 H         1 UNK         0.1015 
     92 H92        22.7883  -24.3998  -42.3174 H         1 UNK         0.0786 
     93 H93        23.4011  -23.4981  -40.9369 H         1 UNK         0.0786 
     94 H94        21.7060  -23.9583  -40.9993 H         1 UNK         0.0786 
     95 H95        23.9427  -27.0031  -42.4671 H         1 UNK         0.3172 
     96 H96        26.7653  -26.5923  -42.1375 H         1 UNK         0.0595 
     97 H97        25.2774  -28.6422  -43.8574 H         1 UNK         0.0839 
     98 H98        26.9860  -28.2584  -43.9557 H         1 UNK         0.0839 
     99 H99        25.7919  -27.0357  -44.3572 H         1 UNK         0.0839 
    100 H100       24.8188  -29.6421  -41.7611 H         1 UNK         0.2998 
    101 H101       26.2115  -30.4655  -39.3883 H         1 UNK         0.0822 
    102 H102       27.5414  -32.3791  -40.4194 H         1 UNK         0.0787 
    103 H103       27.1844  -31.7345  -42.0146 H         1 UNK         0.0787 
    104 H104       28.1700  -30.8168  -40.8786 H         1 UNK         0.0787 
    105 H105       23.7934  -31.0916  -41.8269 H         1 UNK         0.3055 
    106 H106       23.4723  -33.9186  -41.1069 H         1 UNK         0.1106 
    107 H107       23.4353  -33.2400  -43.4750 H         1 UNK         0.0828 
    108 H108       21.8881  -33.9211  -43.0135 H         1 UNK         0.0828 
    109 H109       22.0636  -32.1789  -43.1927 H         1 UNK         0.0828 
    110 H110       20.5953  -32.3020  -41.9167 H         1 UNK         0.2931 
    111 H111       19.1245  -33.5335  -39.9162 H         1 UNK         0.0412 
    112 H112       19.9087  -30.5929  -37.5559 H         1 UNK         0.3472 
    113 H113       20.9782  -31.5699  -38.5467 H         1 UNK         0.3472 
    114 H114       17.1653  -32.3753  -40.9692 H         1 UNK         0.0970 
    115 H115       18.2538  -31.3511  -41.8754 H         1 UNK         0.0970 
    116 H116       16.5652  -34.0067  -44.3657 H         1 UNK         0.0612 
    117 H117       16.0086  -32.8551  -43.1787 H         1 UNK         0.0612 
@<TRIPOS>BOND
     1    1    2 1    
     2    1   62 1    
     3    1   63 1    
     4    1   64 1    
     5    2    3 2    
     6    2    4 am   BACKBONE|DICT|INTERRES
     7    4    5 1    
     8    4   65 1    
     9    5    6 1    
    10    5   25 1    
    11    5   66 1    
    12    6    7 1    
    13    6   67 1    
    14    6   68 1    
    15    7    8 1    
    16    8    9 1    
    17    8   69 1    
    18    8   70 1    
    19    9   10 ar   
    20    9   14 ar   
    21   10   11 ar   
    22   10   71 1    
    23   11   12 ar   
    24   11   61 1    
    25   12   13 ar   
    26   12   72 1    
    27   13   14 ar   
    28   13   15 1    
    29   14   73 1    
    30   15   16 1    
    31   15   74 1    
    32   15   75 1    
    33   16   17 1    
    34   17   18 1    
    35   17   76 1    
    36   17   77 1    
    37   18   19 1    
    38   18   27 1    
    39   18   78 1    
    40   19   20 am   BACKBONE|DICT|INTERRES
    41   19   79 1    
    42   20   21 2    
    43   20   22 1    
    44   22   23 1    
    45   22   24 1    
    46   22   80 1    
    47   23   81 1    
    48   23   82 1    
    49   23   83 1    
    50   24   25 am   BACKBONE|DICT|INTERRES
    51   24   84 1    
    52   25   26 2    
    53   27   28 2    
    54   27   29 am   BACKBONE|DICT|INTERRES
    55   29   30 1    
    56   29   85 1    
    57   30   31 1    
    58   30   32 1    
    59   30   86 1    
    60   31   87 1    
    61   31   88 1    
    62   31   89 1    
    63   32   33 2    
    64   32   34 am   BACKBONE|DICT|INTERRES
    65   34   35 1    
    66   34   90 1    
    67   35   36 1    
    68   35   37 1    
    69   35   91 1    
    70   36   92 1    
    71   36   93 1    
    72   36   94 1    
    73   37   38 2    
    74   37   39 am   BACKBONE|DICT|INTERRES
    75   39   40 1    
    76   39   95 1    
    77   40   41 1    
    78   40   42 1    
    79   40   96 1    
    80   41   97 1    
    81   41   98 1    
    82   41   99 1    
    83   42   43 2    
    84   42   44 am   BACKBONE|DICT|INTERRES
    85   44   45 1    
    86   44  100 1    
    87   45   46 1    
    88   45   47 1    
    89   45  101 1    
    90   46  102 1    
    91   46  103 1    
    92   46  104 1    
    93   47   48 2    
    94   47   49 am   BACKBONE|DICT|INTERRES
    95   49   50 1    
    96   49  105 1    
    97   50   51 1    
    98   50   52 1    
    99   50  106 1    
   100   51  107 1    
   101   51  108 1    
   102   51  109 1    
   103   52   53 2    
   104   52   54 am   BACKBONE|DICT|INTERRES
   105   54   55 1    
   106   54  110 1    
   107   55   56 1    
   108   55   59 1    
   109   55  111 1    
   110   56   57 am   BACKBONE|DICT|INTERRES
   111   56   58 2    
   112   57  112 1    
   113   57  113 1    
   114   59   60 1    
   115   59  114 1    
   116   59  115 1    
   117   60   61 1    
   118   61  116 1    
   119   61  117 1    
@<TRIPOS>SUBSTRUCTURE
     1 UNK         1 GROUP             0       ****    0 ROOT    
