@<TRIPOS>MOLECULE
3R8
117   119    1
SMALL
USER_CHARGES


@<TRIPOS>ATOM
      1 CA         15.3502  -25.0237  -40.2177 C.3       0 UNK        -0.2013 
      2 C          15.3137  -25.2325  -41.7243 C.2       0 UNK         0.4866 
      3 O          14.2385  -25.1974  -42.3230 O.2       0 UNK        -0.5176 
      4 N          16.4794  -25.4469  -42.3404 N.am      1 UNK        -0.4884 
      5 CA         16.6684  -25.6343  -43.7772 C.3       1 UNK         0.0853 
      6 C6         16.2648  -27.0582  -44.2406 C.3       10 UNK        -0.0849 
      7 S7         15.8054  -27.1114  -46.0063 S.3       10 UNK        -0.2776 
      8 C8         15.2882  -28.8498  -46.1871 C.3       10 UNK         0.0316 
      9 C9         16.4412  -29.8012  -45.9075 C.ar      10 UNK        -0.0863 
     10 C10        16.5118  -30.4854  -44.6892 C.ar      10 UNK        -0.1009 
     11 C11        17.6108  -31.2983  -44.3999 C.ar      10 UNK        -0.0712 
     12 C12        18.6187  -31.4591  -45.3518 C.ar      10 UNK        -0.0894 
     13 C13        18.5718  -30.7583  -46.5600 C.ar      10 UNK        -0.0745 
     14 C14        17.4699  -29.9473  -46.8433 C.ar      10 UNK        -0.0972 
     15 C15        19.7532  -30.8153  -47.5170 C.3       10 UNK         0.0209 
     16 S16        20.8030  -29.3256  -47.3878 S.3       10 UNK        -0.2568 
     17 C17        21.3044  -29.3505  -45.6280 C.3       10 UNK        -0.0983 
     18 CA         21.6582  -27.9623  -45.0413 C.3       3 UNK         0.0876 
     19 N          20.6651  -26.9372  -45.3777 N.am      3 UNK        -0.4424 
     20 C          20.9368  -25.6321  -45.4983 C.2       2 UNK         0.4918 
     21 O          22.0491  -25.1446  -45.2954 O.2       2 UNK        -0.4875 
     22 CA         19.7686  -24.7084  -45.8921 C.3       2 UNK         0.0481 
     23 CB         19.7019  -24.5627  -47.4206 C.3       2 UNK        -0.1831 
     24 N          18.4532  -25.1249  -45.3883 N.am      2 UNK        -0.4498 
     25 C          18.1375  -25.3021  -44.0984 C.2       1 UNK         0.5027 
     26 O          18.9592  -25.2212  -43.1806 O.2       1 UNK        -0.4969 
     27 C          21.9078  -28.0782  -43.5191 C.2       3 UNK         0.5005 
     28 O          22.7560  -28.8780  -43.1199 O.2       3 UNK        -0.5279 
     29 N          21.1968  -27.3061  -42.6791 N.am      4 UNK        -0.4463 
     30 CA         21.3282  -27.3284  -41.2134 C.3       4 UNK         0.0283 
     31 CB         20.1746  -26.5364  -40.5781 C.3       4 UNK        -0.1875 
     32 C          22.6895  -26.8304  -40.6844 C.2       4 UNK         0.4949 
     33 O          22.9721  -27.0004  -39.4989 O.2       4 UNK        -0.5039 
     34 N          23.5117  -26.2375  -41.5617 N.am      5 UNK        -0.4663 
     35 CA         24.9105  -25.8927  -41.3019 C.3       5 UNK         0.0242 
     36 CB         25.3859  -24.9045  -42.3795 C.3       5 UNK        -0.1982 
     37 C          25.8419  -27.1214  -41.2473 C.2       5 UNK         0.5017 
     38 O          26.9309  -27.0133  -40.6812 O.2       5 UNK        -0.5012 
     39 N          25.4199  -28.2528  -41.8330 N.am      6 UNK        -0.4439 
     40 CA         26.1218  -29.5370  -41.7664 C.3       6 UNK         0.0297 
     41 CB         25.7126  -30.3906  -42.9797 C.3       6 UNK        -0.2006 
     42 C          25.8166  -30.2711  -40.4470 C.2       6 UNK         0.4892 
     43 O          24.9797  -29.8195  -39.6618 O.2       6 UNK        -0.5089 
     44 N          26.5009  -31.4033  -40.2291 N.am      7 UNK        -0.4243 
     45 CA         26.3078  -32.2902  -39.0780 C.3       7 UNK         0.0196 
     46 CB         27.3410  -33.4280  -39.1290 C.3       7 UNK        -0.2007 
     47 C          24.8748  -32.8497  -39.0317 C.2       7 UNK         0.5020 
     48 O          24.4498  -33.5031  -39.9872 O.2       7 UNK        -0.5147 
     49 N          24.1646  -32.5605  -37.9325 N.am      8 UNK        -0.4734 
     50 CA         22.7396  -32.8129  -37.6803 C.3       8 UNK         0.0238 
     51 CB         22.4086  -34.3211  -37.6726 C.3       8 UNK        -0.1912 
     52 C          21.8262  -32.0101  -38.6245 C.2       8 UNK         0.5038 
     53 O          21.2119  -31.0382  -38.1840 O.2       8 UNK        -0.5046 
     54 N          21.7655  -32.4250  -39.8922 N.am      9 UNK        -0.4200 
     55 CA         21.0170  -31.8048  -40.9855 C.3       9 UNK         0.0839 
     56 C          21.4840  -32.4608  -42.3067 C.2       9 UNK         0.5513 
     57 N          22.0979  -31.7082  -43.2072 N.am      9 UNK        -0.7519 
     58 O          21.2824  -33.6538  -42.5222 O.2       9 UNK        -0.4960 
     59 C59        19.4768  -31.8981  -40.7842 C.3       10 UNK        -0.0876 
     60 S60        18.5681  -30.7689  -41.8903 S.3       10 UNK        -0.2414 
     61 C61        17.7629  -31.9381  -43.0319 C.3       10 UNK         0.0169 
     62 H62        16.3628  -25.0950  -39.8205 H         1 UNK         0.0903 
     63 H63        14.9551  -24.0399  -39.9654 H         1 UNK         0.0903 
     64 H64        14.7376  -25.7751  -39.7200 H         1 UNK         0.0903 
     65 H65        17.3538  -25.4102  -41.8289 H         1 UNK         0.3096 
     66 H66        16.0479  -24.8927  -44.2863 H         1 UNK         0.1121 
     67 H67        17.0607  -27.7769  -44.0353 H         1 UNK         0.0849 
     68 H68        15.3976  -27.4081  -43.6786 H         1 UNK         0.0849 
     69 H69        14.4466  -29.0507  -45.5223 H         1 UNK         0.0865 
     70 H70        14.9211  -29.0099  -47.2020 H         1 UNK         0.0865 
     71 H71        15.7391  -30.3469  -43.9453 H         1 UNK         0.1346 
     72 H72        19.4820  -32.0674  -45.1164 H         1 UNK         0.1412 
     73 H73        17.4381  -29.3890  -47.7693 H         1 UNK         0.1426 
     74 H74        19.3902  -30.9076  -48.5416 H         1 UNK         0.0716 
     75 H75        20.3625  -31.7002  -47.3260 H         1 UNK         0.0716 
     76 H76        20.5127  -29.7866  -45.0245 H         1 UNK         0.0695 
     77 H77        22.1570  -30.0261  -45.5404 H         1 UNK         0.0695 
     78 H78        22.6119  -27.6652  -45.4833 H         1 UNK         0.0983 
     79 H79        19.7311  -27.2643  -45.5778 H         1 UNK         0.3095 
     80 H80        19.9783  -23.7247  -45.4673 H         1 UNK         0.0454 
     81 H81        20.6593  -24.2288  -47.8236 H         1 UNK         0.0851 
     82 H82        19.4568  -25.5083  -47.9061 H         1 UNK         0.0851 
     83 H83        18.9546  -23.8272  -47.7188 H         1 UNK         0.0851 
     84 H84        17.7250  -25.2536  -46.0781 H         1 UNK         0.2976 
     85 H85        20.5196  -26.6541  -43.0604 H         1 UNK         0.3116 
     86 H86        21.2301  -28.3674  -40.8935 H         1 UNK         0.0646 
     87 H87        20.2053  -26.6069  -39.4900 H         1 UNK         0.0847 
     88 H88        19.2059  -26.9211  -40.8975 H         1 UNK         0.0847 
     89 H89        20.2235  -25.4779  -40.8359 H         1 UNK         0.0847 
     90 H90        23.1797  -26.1109  -42.5070 H         1 UNK         0.3040 
     91 H91        24.9683  -25.3980  -40.3296 H         1 UNK         0.1015 
     92 H92        25.3403  -25.3422  -43.3777 H         1 UNK         0.0786 
     93 H93        26.4191  -24.6015  -42.2031 H         1 UNK         0.0786 
     94 H94        24.7803  -23.9979  -42.3821 H         1 UNK         0.0786 
     95 H95        24.4825  -28.2814  -42.2218 H         1 UNK         0.3172 
     96 H96        27.1976  -29.3569  -41.8179 H         1 UNK         0.0595 
     97 H97        26.3236  -31.2903  -43.0570 H         1 UNK         0.0839 
     98 H98        25.8313  -29.8412  -43.9138 H         1 UNK         0.0839 
     99 H99        24.6740  -30.7126  -42.9113 H         1 UNK         0.0839 
    100 H100       27.1524  -31.7180  -40.9332 H         1 UNK         0.2998 
    101 H101       26.4923  -31.7039  -38.1753 H         1 UNK         0.0822 
    102 H102       27.2317  -34.0329  -40.0303 H         1 UNK         0.0787 
    103 H103       28.3603  -33.0420  -39.1041 H         1 UNK         0.0787 
    104 H104       27.2269  -34.0955  -38.2737 H         1 UNK         0.0787 
    105 H105       24.6172  -31.9897  -37.2309 H         1 UNK         0.3055 
    106 H106       22.5423  -32.4391  -36.6738 H         1 UNK         0.1106 
    107 H107       22.6004  -34.8004  -38.6325 H         1 UNK         0.0828 
    108 H108       22.9937  -34.8471  -36.9184 H         1 UNK         0.0828 
    109 H109       21.3565  -34.4848  -37.4357 H         1 UNK         0.0828 
    110 H110       22.3876  -33.1772  -40.1710 H         1 UNK         0.2931 
    111 H111       21.3040  -30.7515  -41.0012 H         1 UNK         0.0412 
    112 H112       22.4089  -32.1372  -44.0631 H         1 UNK         0.3472 
    113 H113       22.2894  -30.7249  -43.0383 H         1 UNK         0.3472 
    114 H114       19.2067  -31.6101  -39.7683 H         1 UNK         0.0970 
    115 H115       19.1243  -32.9248  -40.8975 H         1 UNK         0.0970 
    116 H116       16.7907  -32.2294  -42.6318 H         1 UNK         0.0612 
    117 H117       18.3538  -32.8515  -43.1178 H         1 UNK         0.0612 
@<TRIPOS>BOND
     1    1    2 1    
     2    1   62 1    
     3    1   63 1    
     4    1   64 1    
     5    2    3 2    
     6    2    4 am   BACKBONE|DICT|INTERRES
     7    4    5 1    
     8    4   65 1    
     9    5    6 1    
    10    5   25 1    
    11    5   66 1    
    12    6    7 1    
    13    6   67 1    
    14    6   68 1    
    15    7    8 1    
    16    8    9 1    
    17    8   69 1    
    18    8   70 1    
    19    9   10 ar   
    20    9   14 ar   
    21   10   11 ar   
    22   10   71 1    
    23   11   12 ar   
    24   11   61 1    
    25   12   13 ar   
    26   12   72 1    
    27   13   14 ar   
    28   13   15 1    
    29   14   73 1    
    30   15   16 1    
    31   15   74 1    
    32   15   75 1    
    33   16   17 1    
    34   17   18 1    
    35   17   76 1    
    36   17   77 1    
    37   18   19 1    
    38   18   27 1    
    39   18   78 1    
    40   19   20 am   BACKBONE|DICT|INTERRES
    41   19   79 1    
    42   20   21 2    
    43   20   22 1    
    44   22   23 1    
    45   22   24 1    
    46   22   80 1    
    47   23   81 1    
    48   23   82 1    
    49   23   83 1    
    50   24   25 am   BACKBONE|DICT|INTERRES
    51   24   84 1    
    52   25   26 2    
    53   27   28 2    
    54   27   29 am   BACKBONE|DICT|INTERRES
    55   29   30 1    
    56   29   85 1    
    57   30   31 1    
    58   30   32 1    
    59   30   86 1    
    60   31   87 1    
    61   31   88 1    
    62   31   89 1    
    63   32   33 2    
    64   32   34 am   BACKBONE|DICT|INTERRES
    65   34   35 1    
    66   34   90 1    
    67   35   36 1    
    68   35   37 1    
    69   35   91 1    
    70   36   92 1    
    71   36   93 1    
    72   36   94 1    
    73   37   38 2    
    74   37   39 am   BACKBONE|DICT|INTERRES
    75   39   40 1    
    76   39   95 1    
    77   40   41 1    
    78   40   42 1    
    79   40   96 1    
    80   41   97 1    
    81   41   98 1    
    82   41   99 1    
    83   42   43 2    
    84   42   44 am   BACKBONE|DICT|INTERRES
    85   44   45 1    
    86   44  100 1    
    87   45   46 1    
    88   45   47 1    
    89   45  101 1    
    90   46  102 1    
    91   46  103 1    
    92   46  104 1    
    93   47   48 2    
    94   47   49 am   BACKBONE|DICT|INTERRES
    95   49   50 1    
    96   49  105 1    
    97   50   51 1    
    98   50   52 1    
    99   50  106 1    
   100   51  107 1    
   101   51  108 1    
   102   51  109 1    
   103   52   53 2    
   104   52   54 am   BACKBONE|DICT|INTERRES
   105   54   55 1    
   106   54  110 1    
   107   55   56 1    
   108   55   59 1    
   109   55  111 1    
   110   56   57 am   BACKBONE|DICT|INTERRES
   111   56   58 2    
   112   57  112 1    
   113   57  113 1    
   114   59   60 1    
   115   59  114 1    
   116   59  115 1    
   117   60   61 1    
   118   61  116 1    
   119   61  117 1    
@<TRIPOS>SUBSTRUCTURE
     1 UNK         1 GROUP             0       ****    0 ROOT    
