@<TRIPOS>MOLECULE
3R8
117   119    1
SMALL
USER_CHARGES


@<TRIPOS>ATOM
      1 CA         19.1136  -27.4105  -41.2244 C.3       0 UNK        -0.2013 
      2 C          18.1966  -26.5347  -42.0622 C.2       0 UNK         0.4866 
      3 O          17.6449  -25.5619  -41.5472 O.2       0 UNK        -0.5176 
      4 N          18.0397  -26.8731  -43.3485 N.am      1 UNK        -0.4884 
      5 CA         17.2936  -26.0913  -44.3425 C.3       1 UNK         0.0853 
      6 C6         16.6087  -27.0011  -45.4015 C.3       10 UNK        -0.0849 
      7 S7         15.5139  -28.2536  -44.6502 S.3       10 UNK        -0.2776 
      8 C8         16.1980  -29.8072  -45.3175 C.3       10 UNK         0.0316 
      9 C9         17.6093  -30.0963  -44.8199 C.ar      10 UNK        -0.0863 
     10 C10        17.8252  -30.4373  -43.4810 C.ar      10 UNK        -0.1009 
     11 C11        19.1094  -30.7509  -43.0273 C.ar      10 UNK        -0.0712 
     12 C12        20.1845  -30.7104  -43.9192 C.ar      10 UNK        -0.0894 
     13 C13        19.9841  -30.3719  -45.2599 C.ar      10 UNK        -0.0745 
     14 C14        18.6933  -30.0666  -45.7049 C.ar      10 UNK        -0.0972 
     15 C15        21.1571  -30.3893  -46.2328 C.3       10 UNK         0.0209 
     16 S16        21.5102  -28.7545  -46.9517 S.3       10 UNK        -0.2568 
     17 C17        22.1293  -27.8295  -45.5057 C.3       10 UNK        -0.0983 
     18 CA         22.2495  -26.3111  -45.7940 C.3       3 UNK         0.0876 
     19 N          20.9801  -25.7571  -46.2699 N.am      3 UNK        -0.4424 
     20 C          20.7711  -24.5256  -46.7551 C.2       2 UNK         0.4918 
     21 O          21.6649  -23.7043  -46.9586 O.2       2 UNK        -0.4875 
     22 CA         19.3018  -24.1372  -47.0292 C.3       2 UNK         0.0481 
     23 CB         18.9983  -24.2223  -48.5334 C.3       2 UNK        -0.1831 
     24 N          18.3251  -24.9538  -46.2910 N.am      2 UNK        -0.4498 
     25 C          18.2461  -25.0352  -44.9522 C.2       1 UNK         0.5027 
     26 O          18.9530  -24.3514  -44.2080 O.2       1 UNK        -0.4969 
     27 C          22.7933  -25.5716  -44.5511 C.2       3 UNK         0.5005 
     28 O          24.0099  -25.5453  -44.3611 O.2       3 UNK        -0.5279 
     29 N          21.8946  -24.9937  -43.7332 N.am      4 UNK        -0.4463 
     30 CA         22.1075  -24.1450  -42.5486 C.3       4 UNK         0.0283 
     31 CB         22.8073  -22.8302  -42.9409 C.3       4 UNK        -0.1875 
     32 C          22.8217  -24.7979  -41.3482 C.2       4 UNK         0.4949 
     33 O          22.4336  -24.5398  -40.2095 O.2       4 UNK        -0.5039 
     34 N          23.8471  -25.6165  -41.6060 N.am      5 UNK        -0.4663 
     35 CA         24.7178  -26.2460  -40.6067 C.3       5 UNK         0.0242 
     36 CB         25.9941  -26.7346  -41.3129 C.3       5 UNK        -0.1982 
     37 C          24.0674  -27.4019  -39.8245 C.2       5 UNK         0.5017 
     38 O          24.6376  -27.8348  -38.8227 O.2       5 UNK        -0.5012 
     39 N          22.9169  -27.8952  -40.3074 N.am      6 UNK        -0.4439 
     40 CA         22.1579  -29.0456  -39.7963 C.3       6 UNK         0.0297 
     41 CB         21.6083  -28.7782  -38.3795 C.3       6 UNK        -0.2006 
     42 C          22.9250  -30.3795  -39.9066 C.2       6 UNK         0.4892 
     43 O          22.7470  -31.2679  -39.0693 O.2       6 UNK        -0.5089 
     44 N          23.7471  -30.4985  -40.9603 N.am      7 UNK        -0.4243 
     45 CA         24.5044  -31.6984  -41.3199 C.3       7 UNK         0.0196 
     46 CB         25.3767  -31.3919  -42.5477 C.3       7 UNK        -0.2007 
     47 C          23.5760  -32.8896  -41.6025 C.2       7 UNK         0.5020 
     48 O          22.5053  -32.7001  -42.1811 O.2       7 UNK        -0.5147 
     49 N          23.9901  -34.0840  -41.1623 N.am      8 UNK        -0.4734 
     50 CA         23.2633  -35.3648  -41.1792 C.3       8 UNK         0.0238 
     51 CB         22.8671  -35.7871  -42.6085 C.3       8 UNK        -0.1912 
     52 C          22.0544  -35.4251  -40.2241 C.2       8 UNK         0.5038 
     53 O          21.8451  -36.4697  -39.6055 O.2       8 UNK        -0.5046 
     54 N          21.2964  -34.3280  -40.1026 N.am      9 UNK        -0.4200 
     55 CA         20.1779  -34.1744  -39.1603 C.3       9 UNK         0.0839 
     56 C          20.6361  -34.1733  -37.6767 C.2       9 UNK         0.5513 
     57 N          21.7086  -33.4672  -37.3372 N.am      9 UNK        -0.7519 
     58 O          20.0146  -34.8139  -36.8330 O.2       9 UNK        -0.4960 
     59 C59        19.3144  -32.9191  -39.4486 C.3       10 UNK        -0.0876 
     60 S60        18.7519  -32.7949  -41.1814 S.3       10 UNK        -0.2414 
     61 C61        19.3419  -31.1220  -41.5724 C.3       10 UNK         0.0169 
     62 H62        19.6631  -28.1177  -41.8438 H         1 UNK         0.0903 
     63 H63        19.8373  -26.7939  -40.6916 H         1 UNK         0.0903 
     64 H64        18.5336  -27.9681  -40.4897 H         1 UNK         0.0903 
     65 H65        18.4753  -27.7152  -43.6977 H         1 UNK         0.3096 
     66 H66        16.5049  -25.5310  -43.8351 H         1 UNK         0.1121 
     67 H67        17.3517  -27.5021  -46.0239 H         1 UNK         0.0849 
     68 H68        15.9922  -26.4037  -46.0759 H         1 UNK         0.0849 
     69 H69        15.5449  -30.6307  -45.0252 H         1 UNK         0.0865 
     70 H70        16.1679  -29.7728  -46.4078 H         1 UNK         0.0865 
     71 H71        16.9905  -30.4703  -42.7937 H         1 UNK         0.1346 
     72 H72        21.1778  -30.9599  -43.5717 H         1 UNK         0.1412 
     73 H73        18.5358  -29.8202  -46.7463 H         1 UNK         0.1426 
     74 H74        20.9302  -31.0844  -47.0422 H         1 UNK         0.0716 
     75 H75        22.0606  -30.7675  -45.7515 H         1 UNK         0.0716 
     76 H76        23.0989  -28.2462  -45.2256 H         1 UNK         0.0695 
     77 H77        21.4593  -28.0067  -44.6620 H         1 UNK         0.0695 
     78 H78        22.9825  -26.1702  -46.5914 H         1 UNK         0.0983 
     79 H79        20.1867  -26.3752  -46.2019 H         1 UNK         0.3095 
     80 H80        19.1746  -23.1002  -46.7121 H         1 UNK         0.0454 
     81 H81        19.6885  -23.6012  -49.1062 H         1 UNK         0.0851 
     82 H82        17.9908  -23.8714  -48.7570 H         1 UNK         0.0851 
     83 H83        19.0918  -25.2422  -48.9085 H         1 UNK         0.0851 
     84 H84        17.7123  -25.5294  -46.8503 H         1 UNK         0.2976 
     85 H85        20.9190  -25.0652  -44.0026 H         1 UNK         0.3116 
     86 H86        21.1052  -23.8868  -42.2020 H         1 UNK         0.0646 
     87 H87        23.8198  -23.0016  -43.3079 H         1 UNK         0.0847 
     88 H88        22.2537  -22.3048  -43.7192 H         1 UNK         0.0847 
     89 H89        22.8821  -22.1571  -42.0858 H         1 UNK         0.0847 
     90 H90        24.1027  -25.7308  -42.5866 H         1 UNK         0.3040 
     91 H91        24.9989  -25.4855  -39.8747 H         1 UNK         0.1015 
     92 H92        26.6914  -27.1809  -40.6023 H         1 UNK         0.0786 
     93 H93        26.5162  -25.9115  -41.8015 H         1 UNK         0.0786 
     94 H94        25.7730  -27.4875  -42.0706 H         1 UNK         0.0786 
     95 H95        22.5500  -27.4482  -41.1352 H         1 UNK         0.3172 
     96 H96        21.2994  -29.1460  -40.4570 H         1 UNK         0.0595 
     97 H97        22.4052  -28.7354  -37.6367 H         1 UNK         0.0839 
     98 H98        20.9226  -29.5685  -38.0712 H         1 UNK         0.0839 
     99 H99        21.0581  -27.8383  -38.3374 H         1 UNK         0.0839 
    100 H100       23.8099  -29.7219  -41.6000 H         1 UNK         0.2998 
    101 H101       25.1531  -31.9439  -40.4765 H         1 UNK         0.0822 
    102 H102       25.9771  -32.2590  -42.8265 H         1 UNK         0.0787 
    103 H103       24.7714  -31.1230  -43.4148 H         1 UNK         0.0787 
    104 H104       26.0670  -30.5711  -42.3510 H         1 UNK         0.0787 
    105 H105       24.8809  -34.1166  -40.6843 H         1 UNK         0.3055 
    106 H106       23.9755  -36.1060  -40.8118 H         1 UNK         0.1106 
    107 H107       23.7281  -35.7859  -43.2766 H         1 UNK         0.0828 
    108 H108       22.4552  -36.7971  -42.6123 H         1 UNK         0.0828 
    109 H109       22.1083  -35.1313  -43.0363 H         1 UNK         0.0828 
    110 H110       21.5206  -33.5293  -40.6863 H         1 UNK         0.2931 
    111 H111       19.5330  -35.0450  -39.2966 H         1 UNK         0.0412 
    112 H112       22.0139  -33.4635  -36.3771 H         1 UNK         0.3472 
    113 H113       22.1739  -32.8732  -38.0166 H         1 UNK         0.3472 
    114 H114       18.4268  -32.9226  -38.8130 H         1 UNK         0.0970 
    115 H115       19.8673  -32.0168  -39.1790 H         1 UNK         0.0970 
    116 H116       20.4054  -31.0726  -41.3422 H         1 UNK         0.0612 
    117 H117       18.8412  -30.4037  -40.9226 H         1 UNK         0.0612 
@<TRIPOS>BOND
     1    1    2 1    
     2    1   62 1    
     3    1   63 1    
     4    1   64 1    
     5    2    3 2    
     6    2    4 am   BACKBONE|DICT|INTERRES
     7    4    5 1    
     8    4   65 1    
     9    5    6 1    
    10    5   25 1    
    11    5   66 1    
    12    6    7 1    
    13    6   67 1    
    14    6   68 1    
    15    7    8 1    
    16    8    9 1    
    17    8   69 1    
    18    8   70 1    
    19    9   10 ar   
    20    9   14 ar   
    21   10   11 ar   
    22   10   71 1    
    23   11   12 ar   
    24   11   61 1    
    25   12   13 ar   
    26   12   72 1    
    27   13   14 ar   
    28   13   15 1    
    29   14   73 1    
    30   15   16 1    
    31   15   74 1    
    32   15   75 1    
    33   16   17 1    
    34   17   18 1    
    35   17   76 1    
    36   17   77 1    
    37   18   19 1    
    38   18   27 1    
    39   18   78 1    
    40   19   20 am   BACKBONE|DICT|INTERRES
    41   19   79 1    
    42   20   21 2    
    43   20   22 1    
    44   22   23 1    
    45   22   24 1    
    46   22   80 1    
    47   23   81 1    
    48   23   82 1    
    49   23   83 1    
    50   24   25 am   BACKBONE|DICT|INTERRES
    51   24   84 1    
    52   25   26 2    
    53   27   28 2    
    54   27   29 am   BACKBONE|DICT|INTERRES
    55   29   30 1    
    56   29   85 1    
    57   30   31 1    
    58   30   32 1    
    59   30   86 1    
    60   31   87 1    
    61   31   88 1    
    62   31   89 1    
    63   32   33 2    
    64   32   34 am   BACKBONE|DICT|INTERRES
    65   34   35 1    
    66   34   90 1    
    67   35   36 1    
    68   35   37 1    
    69   35   91 1    
    70   36   92 1    
    71   36   93 1    
    72   36   94 1    
    73   37   38 2    
    74   37   39 am   BACKBONE|DICT|INTERRES
    75   39   40 1    
    76   39   95 1    
    77   40   41 1    
    78   40   42 1    
    79   40   96 1    
    80   41   97 1    
    81   41   98 1    
    82   41   99 1    
    83   42   43 2    
    84   42   44 am   BACKBONE|DICT|INTERRES
    85   44   45 1    
    86   44  100 1    
    87   45   46 1    
    88   45   47 1    
    89   45  101 1    
    90   46  102 1    
    91   46  103 1    
    92   46  104 1    
    93   47   48 2    
    94   47   49 am   BACKBONE|DICT|INTERRES
    95   49   50 1    
    96   49  105 1    
    97   50   51 1    
    98   50   52 1    
    99   50  106 1    
   100   51  107 1    
   101   51  108 1    
   102   51  109 1    
   103   52   53 2    
   104   52   54 am   BACKBONE|DICT|INTERRES
   105   54   55 1    
   106   54  110 1    
   107   55   56 1    
   108   55   59 1    
   109   55  111 1    
   110   56   57 am   BACKBONE|DICT|INTERRES
   111   56   58 2    
   112   57  112 1    
   113   57  113 1    
   114   59   60 1    
   115   59  114 1    
   116   59  115 1    
   117   60   61 1    
   118   61  116 1    
   119   61  117 1    
@<TRIPOS>SUBSTRUCTURE
     1 UNK         1 GROUP             0       ****    0 ROOT    
