@<TRIPOS>MOLECULE
3R8
117   119    1
SMALL
USER_CHARGES


@<TRIPOS>ATOM
      1 CA         15.2299  -21.2203  -43.5728 C.3       0 UNK        -0.2013 
      2 C          15.7120  -22.4105  -44.3888 C.2       0 UNK         0.4866 
      3 O          15.3415  -22.5449  -45.5555 O.2       0 UNK        -0.5176 
      4 N          16.5375  -23.2714  -43.7880 N.am      1 UNK        -0.4884 
      5 CA         17.1199  -24.4641  -44.4012 C.3       1 UNK         0.0853 
      6 C6         16.1085  -25.6391  -44.5007 C.3       10 UNK        -0.0849 
      7 S7         15.5124  -26.2658  -42.8863 S.3       10 UNK        -0.2776 
      8 C8         15.0857  -27.9931  -43.2767 C.3       10 UNK         0.0316 
      9 C9         16.3100  -28.8390  -43.6012 C.ar      10 UNK        -0.0863 
     10 C10        17.1224  -29.3338  -42.5743 C.ar      10 UNK        -0.1009 
     11 C11        18.2280  -30.1368  -42.8725 C.ar      10 UNK        -0.0712 
     12 C12        18.5163  -30.4401  -44.2056 C.ar      10 UNK        -0.0894 
     13 C13        17.7230  -29.9405  -45.2413 C.ar      10 UNK        -0.0745 
     14 C14        16.6155  -29.1478  -44.9310 C.ar      10 UNK        -0.0972 
     15 C15        18.0417  -30.2734  -46.6924 C.3       10 UNK         0.0209 
     16 S16        19.1195  -29.0222  -47.4639 S.3       10 UNK        -0.2568 
     17 C17        20.7594  -29.5209  -46.8386 C.3       10 UNK        -0.0983 
     18 CA         21.7044  -28.3165  -46.5703 C.3       3 UNK         0.0876 
     19 N          21.1397  -27.3187  -45.6507 N.am      3 UNK        -0.4424 
     20 C          20.9636  -27.4573  -44.3274 C.2       2 UNK         0.4918 
     21 O          21.2179  -28.4800  -43.6916 O.2       2 UNK        -0.4875 
     22 CA         20.4448  -26.2275  -43.5809 C.3       2 UNK         0.0481 
     23 CB         21.5479  -25.1531  -43.4768 C.3       2 UNK        -0.1831 
     24 N          19.2325  -25.7024  -44.2098 N.am      2 UNK        -0.4498 
     25 C          18.4001  -24.8305  -43.6263 C.2       1 UNK         0.5027 
     26 O          18.6039  -24.3235  -42.5176 O.2       1 UNK        -0.4969 
     27 C          23.1130  -28.7364  -46.0906 C.2       3 UNK         0.5005 
     28 O          24.0524  -27.9458  -46.2072 O.2       3 UNK        -0.5279 
     29 N          23.2256  -29.9333  -45.4980 N.am      4 UNK        -0.4463 
     30 CA         24.4032  -30.4324  -44.7912 C.3       4 UNK         0.0283 
     31 CB         24.3290  -31.9673  -44.7181 C.3       4 UNK        -0.1875 
     32 C          24.5330  -29.7813  -43.4002 C.2       4 UNK         0.4949 
     33 O          24.3426  -30.4467  -42.3803 O.2       4 UNK        -0.5039 
     34 N          24.8419  -28.4778  -43.3990 N.am      5 UNK        -0.4663 
     35 CA         25.2481  -27.6387  -42.2621 C.3       5 UNK         0.0242 
     36 CB         26.6174  -28.1150  -41.7305 C.3       5 UNK        -0.1982 
     37 C          24.2268  -27.4887  -41.1153 C.2       5 UNK         0.5017 
     38 O          24.6045  -26.9834  -40.0568 O.2       5 UNK        -0.5012 
     39 N          22.9730  -27.9220  -41.3153 N.am      6 UNK        -0.4439 
     40 CA         21.8479  -27.9562  -40.3667 C.3       6 UNK         0.0297 
     41 CB         21.4800  -26.5482  -39.8544 C.3       6 UNK        -0.2006 
     42 C          22.0449  -28.9266  -39.1877 C.2       6 UNK         0.4892 
     43 O          21.1557  -29.7322  -38.9158 O.2       6 UNK        -0.5089 
     44 N          23.1887  -28.8198  -38.5015 N.am      7 UNK        -0.4243 
     45 CA         23.5565  -29.6099  -37.3281 C.3       7 UNK         0.0196 
     46 CB         24.7462  -28.9410  -36.6209 C.3       7 UNK        -0.2007 
     47 C          23.8808  -31.0738  -37.6605 C.2       7 UNK         0.5020 
     48 O          23.5637  -31.9508  -36.8565 O.2       7 UNK        -0.5147 
     49 N          24.5086  -31.3170  -38.8206 N.am      8 UNK        -0.4734 
     50 CA         24.8138  -32.6652  -39.3035 C.3       8 UNK         0.0238 
     51 CB         26.0292  -32.6421  -40.2466 C.3       8 UNK        -0.1912 
     52 C          23.5784  -33.2931  -39.9620 C.2       8 UNK         0.5038 
     53 O          23.1380  -34.3556  -39.5218 O.2       8 UNK        -0.5046 
     54 N          23.0261  -32.6078  -40.9743 N.am      9 UNK        -0.4200 
     55 CA         21.7957  -32.9869  -41.6902 C.3       9 UNK         0.0839 
     56 C          21.8966  -34.3182  -42.5034 C.2       9 UNK         0.5513 
     57 N          23.0913  -34.7945  -42.8349 N.am      9 UNK        -0.7519 
     58 O          20.8894  -34.9199  -42.8653 O.2       9 UNK        -0.4960 
     59 C59        20.5445  -32.8959  -40.7641 C.3       10 UNK        -0.0876 
     60 S60        19.0070  -32.4897  -41.6585 S.3       10 UNK        -0.2414 
     61 C61        19.1282  -30.6774  -41.7710 C.3       10 UNK         0.0169 
     62 H62        15.6368  -21.2281  -42.5617 H         1 UNK         0.0903 
     63 H63        15.5306  -20.2893  -44.0524 H         1 UNK         0.0903 
     64 H64        14.1427  -21.2312  -43.5003 H         1 UNK         0.0903 
     65 H65        16.8602  -23.1145  -42.8400 H         1 UNK         0.3096 
     66 H66        17.4364  -24.1948  -45.4118 H         1 UNK         0.1121 
     67 H67        16.5600  -26.4517  -45.0675 H         1 UNK         0.0849 
     68 H68        15.2396  -25.3318  -45.0845 H         1 UNK         0.0849 
     69 H69        14.5649  -28.4274  -42.4220 H         1 UNK         0.0865 
     70 H70        14.3729  -28.0102  -44.1028 H         1 UNK         0.0865 
     71 H71        16.8906  -29.0950  -41.5452 H         1 UNK         0.1346 
     72 H72        19.3621  -31.0748  -44.4260 H         1 UNK         0.1412 
     73 H73        15.9901  -28.7713  -45.7291 H         1 UNK         0.1426 
     74 H74        17.1153  -30.3348  -47.2655 H         1 UNK         0.0716 
     75 H75        18.5064  -31.2580  -46.7671 H         1 UNK         0.0716 
     76 H76        21.2018  -30.1924  -47.5769 H         1 UNK         0.0695 
     77 H77        20.6259  -30.1081  -45.9335 H         1 UNK         0.0695 
     78 H78        21.8553  -27.8036  -47.5217 H         1 UNK         0.0983 
     79 H79        20.9580  -26.4164  -46.0648 H         1 UNK         0.3095 
     80 H80        20.1782  -26.5585  -42.5759 H         1 UNK         0.0454 
     81 H81        21.2622  -24.3465  -42.8023 H         1 UNK         0.0851 
     82 H82        21.7761  -24.7093  -44.4461 H         1 UNK         0.0851 
     83 H83        22.4738  -25.5776  -43.0870 H         1 UNK         0.0851 
     84 H84        18.9693  -26.1259  -45.0895 H         1 UNK         0.2976 
     85 H85        22.3814  -30.4740  -45.3822 H         1 UNK         0.3116 
     86 H86        25.2977  -30.1710  -45.3607 H         1 UNK         0.0646 
     87 H87        23.4206  -32.3018  -44.2196 H         1 UNK         0.0847 
     88 H88        24.3467  -32.4129  -45.7127 H         1 UNK         0.0847 
     89 H89        25.1765  -32.3758  -44.1660 H         1 UNK         0.0847 
     90 H90        24.8721  -28.0269  -44.3091 H         1 UNK         0.3040 
     91 H91        25.3820  -26.6334  -42.6647 H         1 UNK         0.1015 
     92 H92        27.0162  -27.4259  -40.9848 H         1 UNK         0.0786 
     93 H93        27.3540  -28.1776  -42.5315 H         1 UNK         0.0786 
     94 H94        26.5487  -29.0973  -41.2613 H         1 UNK         0.0786 
     95 H95        22.7726  -28.3523  -42.2121 H         1 UNK         0.3172 
     96 H96        20.9962  -28.3253  -40.9391 H         1 UNK         0.0595 
     97 H97        22.2493  -26.1323  -39.2034 H         1 UNK         0.0839 
     98 H98        20.5549  -26.5785  -39.2775 H         1 UNK         0.0839 
     99 H99        21.3267  -25.8453  -40.6710 H         1 UNK         0.0839 
    100 H100       23.8531  -28.1192  -38.8235 H         1 UNK         0.2998 
    101 H101       22.7063  -29.6083  -36.6424 H         1 UNK         0.0822 
    102 H102       25.0348  -29.4991  -35.7290 H         1 UNK         0.0787 
    103 H103       24.4991  -27.9280  -36.3024 H         1 UNK         0.0787 
    104 H104       25.6218  -28.8844  -37.2691 H         1 UNK         0.0787 
    105 H105       24.7095  -30.5440  -39.4389 H         1 UNK         0.3055 
    106 H106       25.0813  -33.2937  -38.4503 H         1 UNK         0.1106 
    107 H107       25.8732  -32.0075  -41.1168 H         1 UNK         0.0828 
    108 H108       26.9187  -32.2807  -39.7304 H         1 UNK         0.0828 
    109 H109       26.2553  -33.6445  -40.6124 H         1 UNK         0.0828 
    110 H110       23.4897  -31.7681  -41.3129 H         1 UNK         0.2931 
    111 H111       21.6939  -32.2119  -42.4503 H         1 UNK         0.0412 
    112 H112       23.9302  -34.3198  -42.5448 H         1 UNK         0.3472 
    113 H113       23.1507  -35.6499  -43.3647 H         1 UNK         0.3472 
    114 H114       20.4020  -33.8296  -40.2175 H         1 UNK         0.0970 
    115 H115       20.6903  -32.1312  -39.9999 H         1 UNK         0.0970 
    116 H116       20.1581  -30.3913  -41.9874 H         1 UNK         0.0612 
    117 H117       18.8791  -30.2374  -40.8041 H         1 UNK         0.0612 
@<TRIPOS>BOND
     1    1    2 1    
     2    1   62 1    
     3    1   63 1    
     4    1   64 1    
     5    2    3 2    
     6    2    4 am   BACKBONE|DICT|INTERRES
     7    4    5 1    
     8    4   65 1    
     9    5    6 1    
    10    5   25 1    
    11    5   66 1    
    12    6    7 1    
    13    6   67 1    
    14    6   68 1    
    15    7    8 1    
    16    8    9 1    
    17    8   69 1    
    18    8   70 1    
    19    9   10 ar   
    20    9   14 ar   
    21   10   11 ar   
    22   10   71 1    
    23   11   12 ar   
    24   11   61 1    
    25   12   13 ar   
    26   12   72 1    
    27   13   14 ar   
    28   13   15 1    
    29   14   73 1    
    30   15   16 1    
    31   15   74 1    
    32   15   75 1    
    33   16   17 1    
    34   17   18 1    
    35   17   76 1    
    36   17   77 1    
    37   18   19 1    
    38   18   27 1    
    39   18   78 1    
    40   19   20 am   BACKBONE|DICT|INTERRES
    41   19   79 1    
    42   20   21 2    
    43   20   22 1    
    44   22   23 1    
    45   22   24 1    
    46   22   80 1    
    47   23   81 1    
    48   23   82 1    
    49   23   83 1    
    50   24   25 am   BACKBONE|DICT|INTERRES
    51   24   84 1    
    52   25   26 2    
    53   27   28 2    
    54   27   29 am   BACKBONE|DICT|INTERRES
    55   29   30 1    
    56   29   85 1    
    57   30   31 1    
    58   30   32 1    
    59   30   86 1    
    60   31   87 1    
    61   31   88 1    
    62   31   89 1    
    63   32   33 2    
    64   32   34 am   BACKBONE|DICT|INTERRES
    65   34   35 1    
    66   34   90 1    
    67   35   36 1    
    68   35   37 1    
    69   35   91 1    
    70   36   92 1    
    71   36   93 1    
    72   36   94 1    
    73   37   38 2    
    74   37   39 am   BACKBONE|DICT|INTERRES
    75   39   40 1    
    76   39   95 1    
    77   40   41 1    
    78   40   42 1    
    79   40   96 1    
    80   41   97 1    
    81   41   98 1    
    82   41   99 1    
    83   42   43 2    
    84   42   44 am   BACKBONE|DICT|INTERRES
    85   44   45 1    
    86   44  100 1    
    87   45   46 1    
    88   45   47 1    
    89   45  101 1    
    90   46  102 1    
    91   46  103 1    
    92   46  104 1    
    93   47   48 2    
    94   47   49 am   BACKBONE|DICT|INTERRES
    95   49   50 1    
    96   49  105 1    
    97   50   51 1    
    98   50   52 1    
    99   50  106 1    
   100   51  107 1    
   101   51  108 1    
   102   51  109 1    
   103   52   53 2    
   104   52   54 am   BACKBONE|DICT|INTERRES
   105   54   55 1    
   106   54  110 1    
   107   55   56 1    
   108   55   59 1    
   109   55  111 1    
   110   56   57 am   BACKBONE|DICT|INTERRES
   111   56   58 2    
   112   57  112 1    
   113   57  113 1    
   114   59   60 1    
   115   59  114 1    
   116   59  115 1    
   117   60   61 1    
   118   61  116 1    
   119   61  117 1    
@<TRIPOS>SUBSTRUCTURE
     1 UNK         1 GROUP             0       ****    0 ROOT    
