@<TRIPOS>MOLECULE
3R8
117   119    1
SMALL
USER_CHARGES


@<TRIPOS>ATOM
      1 CA         17.4943  -28.0620  -40.2060 C.3       0 UNK        -0.2013 
      2 C          16.8598  -26.9750  -41.0569 C.2       0 UNK         0.4866 
      3 O          15.7534  -26.5281  -40.7537 O.2       0 UNK        -0.5176 
      4 N          17.5511  -26.5472  -42.1175 N.am      1 UNK        -0.4884 
      5 CA         17.1318  -25.4643  -43.0047 C.3       1 UNK         0.0853 
      6 C6         16.0516  -25.8982  -44.0405 C.3       10 UNK        -0.0849 
      7 S7         16.6243  -26.9836  -45.3907 S.3       10 UNK        -0.2776 
      8 C8         16.4824  -28.6686  -44.6889 C.3       10 UNK         0.0316 
      9 C9         17.7143  -29.5416  -44.9446 C.ar      10 UNK        -0.0863 
     10 C10        18.0130  -30.5939  -44.0711 C.ar      10 UNK        -0.1009 
     11 C11        19.1452  -31.3991  -44.2732 C.ar      10 UNK        -0.0712 
     12 C12        19.9735  -31.1329  -45.3695 C.ar      10 UNK        -0.0894 
     13 C13        19.7011  -30.0829  -46.2487 C.ar      10 UNK        -0.0745 
     14 C14        18.5492  -29.3204  -46.0456 C.ar      10 UNK        -0.0972 
     15 C15        20.6358  -29.8126  -47.4287 C.3       10 UNK         0.0209 
     16 S16        20.7164  -28.0530  -47.9310 S.3       10 UNK        -0.2568 
     17 C17        22.2892  -27.4375  -47.2272 C.3       10 UNK        -0.0983 
     18 CA         22.1737  -26.4888  -45.9975 C.3       3 UNK         0.0876 
     19 N          20.9731  -25.6443  -46.0072 N.am      3 UNK        -0.4424 
     20 C          20.8939  -24.4411  -45.4228 C.2       2 UNK         0.4918 
     21 O          21.8341  -23.8961  -44.8437 O.2       2 UNK        -0.4875 
     22 CA         19.5369  -23.7173  -45.5022 C.3       2 UNK         0.0481 
     23 CB         19.1470  -23.4162  -46.9598 C.3       2 UNK        -0.1831 
     24 N          18.4465  -24.4378  -44.8378 N.am      2 UNK        -0.4498 
     25 C          18.3957  -24.7535  -43.5357 C.2       1 UNK         0.5027 
     26 O          19.2970  -24.4871  -42.7379 O.2       1 UNK        -0.4969 
     27 C          22.3257  -27.2414  -44.6649 C.2       3 UNK         0.5005 
     28 O          23.4259  -27.2758  -44.1078 O.2       3 UNK        -0.5279 
     29 N          21.2306  -27.8602  -44.1953 N.am      4 UNK        -0.4463 
     30 CA         21.1052  -28.6394  -42.9522 C.3       4 UNK         0.0283 
     31 CB         21.2178  -27.7094  -41.7270 C.3       4 UNK        -0.1875 
     32 C          22.0634  -29.8473  -42.8316 C.2       4 UNK         0.4949 
     33 O          22.1775  -30.4135  -41.7440 O.2       4 UNK        -0.5039 
     34 N          22.7510  -30.2030  -43.9291 N.am      5 UNK        -0.4663 
     35 CA         23.8651  -31.1550  -44.0268 C.3       5 UNK         0.0242 
     36 CB         23.3614  -32.6091  -43.9307 C.3       5 UNK        -0.1982 
     37 C          25.0011  -30.8269  -43.0365 C.2       5 UNK         0.5017 
     38 O          25.5096  -31.7233  -42.3627 O.2       5 UNK        -0.5012 
     39 N          25.3418  -29.5298  -42.9495 N.am      6 UNK        -0.4439 
     40 CA         26.2962  -28.9305  -42.0071 C.3       6 UNK         0.0297 
     41 CB         27.7322  -29.4402  -42.2580 C.3       6 UNK        -0.2006 
     42 C          25.8402  -29.0832  -40.5416 C.2       6 UNK         0.4892 
     43 O          26.6393  -29.4436  -39.6757 O.2       6 UNK        -0.5089 
     44 N          24.5505  -28.7959  -40.3110 N.am      7 UNK        -0.4243 
     45 CA         23.8299  -28.8570  -39.0334 C.3       7 UNK         0.0196 
     46 CB         24.4055  -27.8453  -38.0187 C.3       7 UNK        -0.2007 
     47 C          23.6987  -30.2827  -38.4621 C.2       7 UNK         0.5020 
     48 O          23.6795  -30.4533  -37.2417 O.2       7 UNK        -0.5147 
     49 N          23.5786  -31.2820  -39.3468 N.am      8 UNK        -0.4734 
     50 CA         23.2043  -32.6504  -38.9817 C.3       8 UNK         0.0238 
     51 CB         23.7492  -33.6438  -40.0172 C.3       8 UNK        -0.1912 
     52 C          21.6788  -32.7768  -38.8374 C.2       8 UNK         0.5038 
     53 O          21.2187  -33.4611  -37.9224 O.2       8 UNK        -0.5046 
     54 N          20.9274  -32.0841  -39.7060 N.am      9 UNK        -0.4200 
     55 CA         19.4985  -31.8074  -39.5119 C.3       9 UNK         0.0839 
     56 C          19.3146  -30.6735  -38.4682 C.2       9 UNK         0.5513 
     57 N          18.3044  -30.7730  -37.6160 N.am      9 UNK        -0.7519 
     58 O          20.0455  -29.6852  -38.4596 O.2       9 UNK        -0.4960 
     59 C59        18.7891  -31.4395  -40.8409 C.3       10 UNK        -0.0876 
     60 S60        18.4723  -32.8829  -41.9089 S.3       10 UNK        -0.2414 
     61 C61        19.5457  -32.5551  -43.3478 C.3       10 UNK         0.0169 
     62 H62        16.7930  -28.8833  -40.0636 H         1 UNK         0.0903 
     63 H63        18.3996  -28.4578  -40.6634 H         1 UNK         0.0903 
     64 H64        17.7566  -27.6667  -39.2249 H         1 UNK         0.0903 
     65 H65        18.4791  -26.9019  -42.2978 H         1 UNK         0.3096 
     66 H66        16.6612  -24.7041  -42.3762 H         1 UNK         0.1121 
     67 H67        15.2174  -26.3828  -43.5307 H         1 UNK         0.0849 
     68 H68        15.6166  -25.0090  -44.4999 H         1 UNK         0.0849 
     69 H69        16.2986  -28.6022  -43.6163 H         1 UNK         0.0865 
     70 H70        15.6081  -29.1566  -45.1210 H         1 UNK         0.0865 
     71 H71        17.3548  -30.7759  -43.2344 H         1 UNK         0.1346 
     72 H72        20.8465  -31.7471  -45.5359 H         1 UNK         0.1412 
     73 H73        18.3065  -28.5428  -46.7542 H         1 UNK         0.1426 
     74 H74        20.2737  -30.3904  -48.2799 H         1 UNK         0.0716 
     75 H75        21.6399  -30.1818  -47.2167 H         1 UNK         0.0716 
     76 H76        22.7680  -26.8812  -48.0346 H         1 UNK         0.0695 
     77 H77        22.9670  -28.2711  -47.0339 H         1 UNK         0.0695 
     78 H78        23.0397  -25.8239  -46.0480 H         1 UNK         0.0983 
     79 H79        20.1678  -26.0191  -46.4875 H         1 UNK         0.3095 
     80 H80        19.6500  -22.7602  -44.9887 H         1 UNK         0.0454 
     81 H81        19.9518  -22.8946  -47.4798 H         1 UNK         0.0851 
     82 H82        18.2667  -22.7752  -47.0083 H         1 UNK         0.0851 
     83 H83        18.9289  -24.3238  -47.5237 H         1 UNK         0.0851 
     84 H84        17.6809  -24.7452  -45.4228 H         1 UNK         0.2976 
     85 H85        20.3962  -27.8202  -44.7649 H         1 UNK         0.3116 
     86 H86        20.0970  -29.0494  -42.9581 H         1 UNK         0.0646 
     87 H87        22.2250  -27.3088  -41.6137 H         1 UNK         0.0847 
     88 H88        20.5387  -26.8613  -41.8033 H         1 UNK         0.0847 
     89 H89        20.9690  -28.2385  -40.8062 H         1 UNK         0.0847 
     90 H90        22.5722  -29.6591  -44.7601 H         1 UNK         0.3040 
     91 H91        24.3001  -31.0295  -45.0197 H         1 UNK         0.1015 
     92 H92        24.1879  -33.3198  -43.9699 H         1 UNK         0.0786 
     93 H93        22.6965  -32.8544  -44.7571 H         1 UNK         0.0786 
     94 H94        22.8205  -32.7863  -43.0050 H         1 UNK         0.0786 
     95 H95        24.8237  -28.8685  -43.5200 H         1 UNK         0.3172 
     96 H96        26.2917  -27.8592  -42.2145 H         1 UNK         0.0595 
     97 H97        27.8393  -30.4971  -42.0125 H         1 UNK         0.0839 
     98 H98        28.4506  -28.8935  -41.6459 H         1 UNK         0.0839 
     99 H99        28.0258  -29.3054  -43.2988 H         1 UNK         0.0839 
    100 H100       23.9858  -28.5528  -41.1119 H         1 UNK         0.2998 
    101 H101       22.8083  -28.5438  -39.2514 H         1 UNK         0.0822 
    102 H102       23.7738  -27.7797  -37.1319 H         1 UNK         0.0787 
    103 H103       24.4649  -26.8443  -38.4459 H         1 UNK         0.0787 
    104 H104       25.4038  -28.1288  -37.6844 H         1 UNK         0.0787 
    105 H105       23.5520  -31.0464  -40.3331 H         1 UNK         0.3055 
    106 H106       23.6526  -32.8971  -38.0164 H         1 UNK         0.1106 
    107 H107       24.8271  -33.5377  -40.1422 H         1 UNK         0.0828 
    108 H108       23.5555  -34.6716  -39.7080 H         1 UNK         0.0828 
    109 H109       23.2848  -33.5064  -40.9906 H         1 UNK         0.0828 
    110 H110       21.3966  -31.5168  -40.4060 H         1 UNK         0.2931 
    111 H111       19.0244  -32.7080  -39.1154 H         1 UNK         0.0412 
    112 H112       18.1604  -30.0386  -36.9407 H         1 UNK         0.3472 
    113 H113       17.6935  -31.5754  -37.6205 H         1 UNK         0.3472 
    114 H114       17.8099  -31.0020  -40.6411 H         1 UNK         0.0970 
    115 H115       19.3541  -30.6807  -41.3817 H         1 UNK         0.0970 
    116 H116       20.5545  -32.3837  -42.9768 H         1 UNK         0.0612 
    117 H117       19.5893  -33.4690  -43.9417 H         1 UNK         0.0612 
@<TRIPOS>BOND
     1    1    2 1    
     2    1   62 1    
     3    1   63 1    
     4    1   64 1    
     5    2    3 2    
     6    2    4 am   BACKBONE|DICT|INTERRES
     7    4    5 1    
     8    4   65 1    
     9    5    6 1    
    10    5   25 1    
    11    5   66 1    
    12    6    7 1    
    13    6   67 1    
    14    6   68 1    
    15    7    8 1    
    16    8    9 1    
    17    8   69 1    
    18    8   70 1    
    19    9   10 ar   
    20    9   14 ar   
    21   10   11 ar   
    22   10   71 1    
    23   11   12 ar   
    24   11   61 1    
    25   12   13 ar   
    26   12   72 1    
    27   13   14 ar   
    28   13   15 1    
    29   14   73 1    
    30   15   16 1    
    31   15   74 1    
    32   15   75 1    
    33   16   17 1    
    34   17   18 1    
    35   17   76 1    
    36   17   77 1    
    37   18   19 1    
    38   18   27 1    
    39   18   78 1    
    40   19   20 am   BACKBONE|DICT|INTERRES
    41   19   79 1    
    42   20   21 2    
    43   20   22 1    
    44   22   23 1    
    45   22   24 1    
    46   22   80 1    
    47   23   81 1    
    48   23   82 1    
    49   23   83 1    
    50   24   25 am   BACKBONE|DICT|INTERRES
    51   24   84 1    
    52   25   26 2    
    53   27   28 2    
    54   27   29 am   BACKBONE|DICT|INTERRES
    55   29   30 1    
    56   29   85 1    
    57   30   31 1    
    58   30   32 1    
    59   30   86 1    
    60   31   87 1    
    61   31   88 1    
    62   31   89 1    
    63   32   33 2    
    64   32   34 am   BACKBONE|DICT|INTERRES
    65   34   35 1    
    66   34   90 1    
    67   35   36 1    
    68   35   37 1    
    69   35   91 1    
    70   36   92 1    
    71   36   93 1    
    72   36   94 1    
    73   37   38 2    
    74   37   39 am   BACKBONE|DICT|INTERRES
    75   39   40 1    
    76   39   95 1    
    77   40   41 1    
    78   40   42 1    
    79   40   96 1    
    80   41   97 1    
    81   41   98 1    
    82   41   99 1    
    83   42   43 2    
    84   42   44 am   BACKBONE|DICT|INTERRES
    85   44   45 1    
    86   44  100 1    
    87   45   46 1    
    88   45   47 1    
    89   45  101 1    
    90   46  102 1    
    91   46  103 1    
    92   46  104 1    
    93   47   48 2    
    94   47   49 am   BACKBONE|DICT|INTERRES
    95   49   50 1    
    96   49  105 1    
    97   50   51 1    
    98   50   52 1    
    99   50  106 1    
   100   51  107 1    
   101   51  108 1    
   102   51  109 1    
   103   52   53 2    
   104   52   54 am   BACKBONE|DICT|INTERRES
   105   54   55 1    
   106   54  110 1    
   107   55   56 1    
   108   55   59 1    
   109   55  111 1    
   110   56   57 am   BACKBONE|DICT|INTERRES
   111   56   58 2    
   112   57  112 1    
   113   57  113 1    
   114   59   60 1    
   115   59  114 1    
   116   59  115 1    
   117   60   61 1    
   118   61  116 1    
   119   61  117 1    
@<TRIPOS>SUBSTRUCTURE
     1 UNK         1 GROUP             0       ****    0 ROOT    
