@<TRIPOS>MOLECULE
3R8
117   119    1
SMALL
USER_CHARGES


@<TRIPOS>ATOM
      1 CA         17.3026  -23.4743  -47.2198 C.3       0 UNK        -0.2013 
      2 C          18.1737  -23.5465  -45.9747 C.2       0 UNK         0.4866 
      3 O          18.2593  -22.5712  -45.2287 O.2       0 UNK        -0.5176 
      4 N          18.8208  -24.6968  -45.7433 N.am      1 UNK        -0.4884 
      5 CA         19.7343  -24.9333  -44.6153 C.3       1 UNK         0.0853 
      6 C6         20.6059  -26.2098  -44.7978 C.3       10 UNK        -0.0849 
      7 S7         21.2768  -26.5019  -46.4709 S.3       10 UNK        -0.2776 
      8 C8         20.0502  -27.6299  -47.2285 C.3       10 UNK         0.0316 
      9 C9         19.7643  -28.8844  -46.4068 C.ar      10 UNK        -0.0863 
     10 C10        20.6528  -29.9643  -46.4275 C.ar      10 UNK        -0.1009 
     11 C11        20.3612  -31.1388  -45.7245 C.ar      10 UNK        -0.0712 
     12 C12        19.1743  -31.2208  -44.9913 C.ar      10 UNK        -0.0894 
     13 C13        18.2980  -30.1341  -44.9196 C.ar      10 UNK        -0.0745 
     14 C14        18.5881  -28.9790  -45.6532 C.ar      10 UNK        -0.0972 
     15 C15        17.0254  -30.1951  -44.0758 C.3       10 UNK         0.0209 
     16 S16        17.1685  -31.1285  -42.5023 S.3       10 UNK        -0.2568 
     17 C17        18.3464  -30.2781  -41.3747 C.3       10 UNK        -0.0983 
     18 CA         19.1207  -29.0357  -41.8865 C.3       3 UNK         0.0876 
     19 N          18.2647  -27.9034  -42.2646 N.am      3 UNK        -0.4424 
     20 C          17.4374  -27.1561  -41.5182 C.2       2 UNK         0.4918 
     21 O          17.1820  -27.3882  -40.3362 O.2       2 UNK        -0.4875 
     22 CA         16.8659  -25.8919  -42.2006 C.3       2 UNK         0.0481 
     23 CB         16.5992  -24.7532  -41.1945 C.3       2 UNK        -0.1831 
     24 N          17.7032  -25.4184  -43.3160 N.am      2 UNK        -0.4498 
     25 C          18.9984  -25.0568  -43.2632 C.2       1 UNK         0.5027 
     26 O          19.6384  -24.9532  -42.2156 O.2       1 UNK        -0.4969 
     27 C          20.2593  -28.6337  -40.9162 C.2       3 UNK         0.5005 
     28 O          21.3848  -29.0995  -41.0864 O.2       3 UNK        -0.5279 
     29 N          19.9733  -27.7549  -39.9466 N.am      4 UNK        -0.4463 
     30 CA         20.8850  -27.2623  -38.9117 C.3       4 UNK         0.0283 
     31 CB         20.1131  -26.3236  -37.9708 C.3       4 UNK        -0.1875 
     32 C          22.1518  -26.5644  -39.4379 C.2       4 UNK         0.4949 
     33 O          23.2020  -26.6958  -38.8094 O.2       4 UNK        -0.5039 
     34 N          22.0473  -25.8415  -40.5636 N.am      5 UNK        -0.4663 
     35 CA         23.1881  -25.1698  -41.2004 C.3       5 UNK         0.0242 
     36 CB         22.6977  -23.9210  -41.9516 C.3       5 UNK        -0.1982 
     37 C          23.9948  -26.0901  -42.1371 C.2       5 UNK         0.5017 
     38 O          25.0478  -25.6671  -42.6170 O.2       5 UNK        -0.5012 
     39 N          23.5017  -27.3095  -42.3923 N.am      6 UNK        -0.4439 
     40 CA         24.1889  -28.3471  -43.1611 C.3       6 UNK         0.0297 
     41 CB         23.1491  -29.1077  -44.0033 C.3       6 UNK        -0.2006 
     42 C          24.9565  -29.2835  -42.2102 C.2       6 UNK         0.4892 
     43 O          25.0323  -29.0256  -41.0056 O.2       6 UNK        -0.5089 
     44 N          25.5128  -30.3729  -42.7559 N.am      7 UNK        -0.4243 
     45 CA         26.2505  -31.4101  -42.0238 C.3       7 UNK         0.0196 
     46 CB         27.1386  -32.1800  -43.0194 C.3       7 UNK        -0.2007 
     47 C          25.3187  -32.3419  -41.2178 C.2       7 UNK         0.5020 
     48 O          25.3572  -33.5605  -41.3991 O.2       7 UNK        -0.5147 
     49 N          24.4777  -31.7451  -40.3619 N.am      8 UNK        -0.4734 
     50 CA         23.4231  -32.3217  -39.5145 C.3       8 UNK         0.0238 
     51 CB         23.9985  -33.3157  -38.4867 C.3       8 UNK        -0.1912 
     52 C          22.2500  -32.9399  -40.2961 C.2       8 UNK         0.5038 
     53 O          21.0992  -32.6214  -39.9968 O.2       8 UNK        -0.5046 
     54 N          22.5623  -33.8002  -41.2728 N.am      9 UNK        -0.4200 
     55 CA         21.6339  -34.4573  -42.2075 C.3       9 UNK         0.0839 
     56 C          20.6077  -35.4269  -41.5436 C.2       9 UNK         0.5513 
     57 N          20.8516  -35.9156  -40.3333 N.am      9 UNK        -0.7519 
     58 O          19.5936  -35.7745  -42.1436 O.2       9 UNK        -0.4960 
     59 C59        20.9747  -33.4459  -43.1869 C.3       10 UNK        -0.0876 
     60 S60        22.2100  -32.5653  -44.2075 S.3       10 UNK        -0.2414 
     61 C61        21.3131  -32.3276  -45.7765 C.3       10 UNK         0.0169 
     62 H62        17.6508  -22.6757  -47.8744 H         1 UNK         0.0903 
     63 H63        17.3180  -24.4060  -47.7849 H         1 UNK         0.0903 
     64 H64        16.2700  -23.2621  -46.9437 H         1 UNK         0.0903 
     65 H65        18.7538  -25.4462  -46.4153 H         1 UNK         0.3096 
     66 H66        20.3989  -24.0691  -44.5464 H         1 UNK         0.1121 
     67 H67        20.0800  -27.1061  -44.4761 H         1 UNK         0.0849 
     68 H68        21.4644  -26.1482  -44.1275 H         1 UNK         0.0849 
     69 H69        19.1257  -27.0845  -47.4194 H         1 UNK         0.0865 
     70 H70        20.4195  -27.9268  -48.2114 H         1 UNK         0.0865 
     71 H71        21.5644  -29.8937  -47.0052 H         1 UNK         0.1346 
     72 H72        18.9341  -32.1311  -44.4634 H         1 UNK         0.1412 
     73 H73        17.8942  -28.1498  -45.6396 H         1 UNK         0.1426 
     74 H74        16.6363  -29.1986  -43.8693 H         1 UNK         0.0716 
     75 H75        16.2595  -30.6851  -44.6780 H         1 UNK         0.0716 
     76 H76        19.0613  -31.0447  -41.0691 H         1 UNK         0.0695 
     77 H77        17.7979  -30.0235  -40.4666 H         1 UNK         0.0695 
     78 H78        19.6426  -29.3319  -42.7960 H         1 UNK         0.0983 
     79 H79        18.3898  -27.5946  -43.2146 H         1 UNK         0.3095 
     80 H80        15.9092  -26.1848  -42.6352 H         1 UNK         0.0454 
     81 H81        16.2049  -23.8679  -41.6929 H         1 UNK         0.0851 
     82 H82        15.8657  -25.0554  -40.4460 H         1 UNK         0.0851 
     83 H83        17.5045  -24.4619  -40.6608 H         1 UNK         0.0851 
     84 H84        17.2748  -25.4539  -44.2309 H         1 UNK         0.2976 
     85 H85        19.0067  -27.4454  -39.8880 H         1 UNK         0.3116 
     86 H86        21.2106  -28.1305  -38.3351 H         1 UNK         0.0646 
     87 H87        19.2735  -26.8345  -37.4993 H         1 UNK         0.0847 
     88 H88        20.7568  -25.9551  -37.1706 H         1 UNK         0.0847 
     89 H89        19.7220  -25.4545  -38.5017 H         1 UNK         0.0847 
     90 H90        21.1426  -25.7376  -41.0131 H         1 UNK         0.3040 
     91 H91        23.8763  -24.8314  -40.4223 H         1 UNK         0.1015 
     92 H92        22.1108  -24.1821  -42.8301 H         1 UNK         0.0786 
     93 H93        23.5403  -23.3203  -42.2964 H         1 UNK         0.0786 
     94 H94        22.0855  -23.2839  -41.3131 H         1 UNK         0.0786 
     95 H95        22.6987  -27.6248  -41.8589 H         1 UNK         0.3172 
     96 H96        24.9124  -27.8929  -43.8410 H         1 UNK         0.0595 
     97 H97        22.4638  -29.6845  -43.3824 H         1 UNK         0.0839 
     98 H98        23.6233  -29.8026  -44.6963 H         1 UNK         0.0839 
     99 H99        22.5523  -28.4263  -44.6065 H         1 UNK         0.0839 
    100 H100       25.3793  -30.5363  -43.7434 H         1 UNK         0.2998 
    101 H101       26.9100  -30.9220  -41.3028 H         1 UNK         0.0822 
    102 H102       27.7426  -32.9298  -42.5065 H         1 UNK         0.0787 
    103 H103       26.5439  -32.6990  -43.7724 H         1 UNK         0.0787 
    104 H104       27.8278  -31.5120  -43.5364 H         1 UNK         0.0787 
    105 H105       24.5258  -30.7278  -40.3476 H         1 UNK         0.3055 
    106 H106       23.0072  -31.4797  -38.9576 H         1 UNK         0.1106 
    107 H107       23.2191  -33.6688  -37.8102 H         1 UNK         0.0828 
    108 H108       24.4355  -34.1939  -38.9625 H         1 UNK         0.0828 
    109 H109       24.7700  -32.8487  -37.8746 H         1 UNK         0.0828 
    110 H110       23.5521  -33.9706  -41.4323 H         1 UNK         0.2931 
    111 H111       22.2625  -35.1147  -42.8092 H         1 UNK         0.0412 
    112 H112       20.1913  -36.5512  -39.9136 H         1 UNK         0.3472 
    113 H113       21.6849  -35.6481  -39.8345 H         1 UNK         0.3472 
    114 H114       20.3769  -32.7146  -42.6406 H         1 UNK         0.0970 
    115 H115       20.2885  -33.9678  -43.8553 H         1 UNK         0.0970 
    116 H116       20.7654  -33.2338  -46.0386 H         1 UNK         0.0612 
    117 H117       22.0493  -32.1825  -46.5684 H         1 UNK         0.0612 
@<TRIPOS>BOND
     1    1    2 1    
     2    1   62 1    
     3    1   63 1    
     4    1   64 1    
     5    2    3 2    
     6    2    4 am   BACKBONE|DICT|INTERRES
     7    4    5 1    
     8    4   65 1    
     9    5    6 1    
    10    5   25 1    
    11    5   66 1    
    12    6    7 1    
    13    6   67 1    
    14    6   68 1    
    15    7    8 1    
    16    8    9 1    
    17    8   69 1    
    18    8   70 1    
    19    9   10 ar   
    20    9   14 ar   
    21   10   11 ar   
    22   10   71 1    
    23   11   12 ar   
    24   11   61 1    
    25   12   13 ar   
    26   12   72 1    
    27   13   14 ar   
    28   13   15 1    
    29   14   73 1    
    30   15   16 1    
    31   15   74 1    
    32   15   75 1    
    33   16   17 1    
    34   17   18 1    
    35   17   76 1    
    36   17   77 1    
    37   18   19 1    
    38   18   27 1    
    39   18   78 1    
    40   19   20 am   BACKBONE|DICT|INTERRES
    41   19   79 1    
    42   20   21 2    
    43   20   22 1    
    44   22   23 1    
    45   22   24 1    
    46   22   80 1    
    47   23   81 1    
    48   23   82 1    
    49   23   83 1    
    50   24   25 am   BACKBONE|DICT|INTERRES
    51   24   84 1    
    52   25   26 2    
    53   27   28 2    
    54   27   29 am   BACKBONE|DICT|INTERRES
    55   29   30 1    
    56   29   85 1    
    57   30   31 1    
    58   30   32 1    
    59   30   86 1    
    60   31   87 1    
    61   31   88 1    
    62   31   89 1    
    63   32   33 2    
    64   32   34 am   BACKBONE|DICT|INTERRES
    65   34   35 1    
    66   34   90 1    
    67   35   36 1    
    68   35   37 1    
    69   35   91 1    
    70   36   92 1    
    71   36   93 1    
    72   36   94 1    
    73   37   38 2    
    74   37   39 am   BACKBONE|DICT|INTERRES
    75   39   40 1    
    76   39   95 1    
    77   40   41 1    
    78   40   42 1    
    79   40   96 1    
    80   41   97 1    
    81   41   98 1    
    82   41   99 1    
    83   42   43 2    
    84   42   44 am   BACKBONE|DICT|INTERRES
    85   44   45 1    
    86   44  100 1    
    87   45   46 1    
    88   45   47 1    
    89   45  101 1    
    90   46  102 1    
    91   46  103 1    
    92   46  104 1    
    93   47   48 2    
    94   47   49 am   BACKBONE|DICT|INTERRES
    95   49   50 1    
    96   49  105 1    
    97   50   51 1    
    98   50   52 1    
    99   50  106 1    
   100   51  107 1    
   101   51  108 1    
   102   51  109 1    
   103   52   53 2    
   104   52   54 am   BACKBONE|DICT|INTERRES
   105   54   55 1    
   106   54  110 1    
   107   55   56 1    
   108   55   59 1    
   109   55  111 1    
   110   56   57 am   BACKBONE|DICT|INTERRES
   111   56   58 2    
   112   57  112 1    
   113   57  113 1    
   114   59   60 1    
   115   59  114 1    
   116   59  115 1    
   117   60   61 1    
   118   61  116 1    
   119   61  117 1    
@<TRIPOS>SUBSTRUCTURE
     1 UNK         1 GROUP             0       ****    0 ROOT    
