@<TRIPOS>MOLECULE
3R8
117   119    1
SMALL
USER_CHARGES


@<TRIPOS>ATOM
      1 CA         16.3713  -23.1269  -40.3057 C.3       0 UNK        -0.2013 
      2 C          16.7623  -23.8187  -41.6032 C.2       0 UNK         0.4866 
      3 O          17.8365  -23.5488  -42.1412 O.2       0 UNK        -0.5176 
      4 N          15.8960  -24.7024  -42.1146 N.am      1 UNK        -0.4884 
      5 CA         16.1425  -25.5134  -43.3107 C.3       1 UNK         0.0853 
      6 C6         14.8199  -26.0929  -43.8696 C.3       10 UNK        -0.0849 
      7 S7         14.9197  -26.4691  -45.6514 S.3       10 UNK        -0.2776 
      8 C8         14.3397  -28.1952  -45.7149 C.3       10 UNK         0.0316 
      9 C9         15.4873  -29.1939  -45.6608 C.ar      10 UNK        -0.0863 
     10 C10        15.7533  -29.9241  -44.4974 C.ar      10 UNK        -0.1009 
     11 C11        16.7669  -30.8902  -44.4818 C.ar      10 UNK        -0.0712 
     12 C12        17.5234  -31.1124  -45.6383 C.ar      10 UNK        -0.0894 
     13 C13        17.2567  -30.3983  -46.8097 C.ar      10 UNK        -0.0745 
     14 C14        16.2444  -29.4354  -46.8106 C.ar      10 UNK        -0.0972 
     15 C15        18.0024  -30.7112  -48.0990 C.3       10 UNK         0.0209 
     16 S16        19.3194  -29.5076  -48.4507 S.3       10 UNK        -0.2568 
     17 C17        20.7559  -30.2429  -47.6001 C.3       10 UNK        -0.0983 
     18 CA         21.4050  -29.2617  -46.5910 C.3       3 UNK         0.0876 
     19 N          20.5377  -29.0139  -45.4377 N.am      3 UNK        -0.4424 
     20 C          19.9405  -27.8601  -45.1339 C.2       2 UNK         0.4918 
     21 O          20.0130  -26.8337  -45.8143 O.2       2 UNK        -0.4875 
     22 CA         19.1785  -27.8391  -43.8061 C.3       2 UNK         0.0481 
     23 CB         20.1480  -27.5817  -42.6338 C.3       2 UNK        -0.1831 
     24 N          18.1498  -26.8067  -43.8723 N.am      2 UNK        -0.4498 
     25 C          17.1574  -26.6292  -42.9942 C.2       1 UNK         0.5027 
     26 O          17.0059  -27.3017  -41.9715 O.2       1 UNK        -0.4969 
     27 C          22.7943  -29.7378  -46.1069 C.2       3 UNK         0.5005 
     28 O          23.4837  -30.4646  -46.8256 O.2       3 UNK        -0.5279 
     29 N          23.1971  -29.3069  -44.9043 N.am      4 UNK        -0.4463 
     30 CA         24.5135  -29.5382  -44.3125 C.3       4 UNK         0.0283 
     31 CB         24.5874  -30.9137  -43.6250 C.3       4 UNK        -0.1875 
     32 C          24.8261  -28.3953  -43.3448 C.2       4 UNK         0.4949 
     33 O          25.8574  -27.7419  -43.4923 O.2       4 UNK        -0.5039 
     34 N          23.9180  -28.1631  -42.3847 N.am      5 UNK        -0.4663 
     35 CA         23.8745  -27.0779  -41.3901 C.3       5 UNK         0.0242 
     36 CB         23.8504  -25.6936  -42.0671 C.3       5 UNK        -0.1982 
     37 C          24.9544  -27.1441  -40.2943 C.2       5 UNK         0.5017 
     38 O          24.7135  -26.6514  -39.1911 O.2       5 UNK        -0.5012 
     39 N          26.1035  -27.7653  -40.5847 N.am      6 UNK        -0.4439 
     40 CA         27.2180  -28.0140  -39.6686 C.3       6 UNK         0.0297 
     41 CB         28.4724  -28.3465  -40.4978 C.3       6 UNK        -0.2006 
     42 C          26.8797  -29.1142  -38.6425 C.2       6 UNK         0.4892 
     43 O          27.4320  -30.2135  -38.7109 O.2       6 UNK        -0.5089 
     44 N          25.9548  -28.7904  -37.7275 N.am      7 UNK        -0.4243 
     45 CA         25.4156  -29.6318  -36.6504 C.3       7 UNK         0.0196 
     46 CB         26.5143  -29.9856  -35.6246 C.3       7 UNK        -0.2007 
     47 C          24.6449  -30.8713  -37.1521 C.2       7 UNK         0.5020 
     48 O          24.5673  -31.8729  -36.4385 O.2       7 UNK        -0.5147 
     49 N          24.0680  -30.7835  -38.3560 N.am      8 UNK        -0.4734 
     50 CA         23.2665  -31.8247  -38.9919 C.3       8 UNK         0.0238 
     51 CB         24.1889  -32.8649  -39.6547 C.3       8 UNK        -0.1912 
     52 C          22.3542  -31.1738  -40.0350 C.2       8 UNK         0.5038 
     53 O          22.7177  -30.1349  -40.5938 O.2       8 UNK        -0.5046 
     54 N          21.2067  -31.8072  -40.3033 N.am      9 UNK        -0.4200 
     55 CA         20.2840  -31.4005  -41.3740 C.3       9 UNK         0.0839 
     56 C          20.7586  -31.8238  -42.7942 C.2       9 UNK         0.5513 
     57 N          21.6075  -32.8344  -42.9344 N.am      9 UNK        -0.7519 
     58 O          20.3751  -31.2071  -43.7817 O.2       9 UNK        -0.4960 
     59 C59        18.8325  -31.8634  -41.0788 C.3       10 UNK        -0.0876 
     60 S60        17.5868  -30.7577  -41.8249 S.3       10 UNK        -0.2414 
     61 C61        17.0071  -31.7424  -43.2415 C.3       10 UNK         0.0169 
     62 H62        15.3929  -23.4490  -39.9497 H         1 UNK         0.0903 
     63 H63        17.1035  -23.3459  -39.5290 H         1 UNK         0.0903 
     64 H64        16.3405  -22.0473  -40.4505 H         1 UNK         0.0903 
     65 H65        15.0467  -24.9123  -41.6094 H         1 UNK         0.3096 
     66 H66        16.5750  -24.8493  -44.0633 H         1 UNK         0.1121 
     67 H67        14.0175  -25.3615  -43.7592 H         1 UNK         0.0849 
     68 H68        14.4985  -26.9678  -43.3006 H         1 UNK         0.0849 
     69 H69        13.6159  -28.3860  -44.9211 H         1 UNK         0.0865 
     70 H70        13.7926  -28.3381  -46.6481 H         1 UNK         0.0865 
     71 H71        15.1622  -29.7573  -43.6071 H         1 UNK         0.1346 
     72 H72        18.3011  -31.8641  -45.6360 H         1 UNK         0.1412 
     73 H73        16.0292  -28.8873  -47.7182 H         1 UNK         0.1426 
     74 H74        17.2954  -30.6962  -48.9299 H         1 UNK         0.0716 
     75 H75        18.4109  -31.7226  -48.0787 H         1 UNK         0.0716 
     76 H76        21.4618  -30.5259  -48.3829 H         1 UNK         0.0695 
     77 H77        20.4713  -31.1687  -47.0971 H         1 UNK         0.0695 
     78 H78        21.5975  -28.3231  -47.1153 H         1 UNK         0.0983 
     79 H79        20.4151  -29.8143  -44.8142 H         1 UNK         0.3095 
     80 H80        18.6909  -28.8056  -43.6770 H         1 UNK         0.0454 
     81 H81        20.6114  -26.5971  -42.7042 H         1 UNK         0.0851 
     82 H82        20.9479  -28.3214  -42.6155 H         1 UNK         0.0851 
     83 H83        19.6412  -27.6451  -41.6712 H         1 UNK         0.0851 
     84 H84        18.2053  -26.2270  -44.7010 H         1 UNK         0.2976 
     85 H85        22.5963  -28.6648  -44.4075 H         1 UNK         0.3116 
     86 H86        25.2659  -29.5072  -45.1039 H         1 UNK         0.0646 
     87 H87        23.8256  -31.0269  -42.8553 H         1 UNK         0.0847 
     88 H88        25.5575  -31.0618  -43.1491 H         1 UNK         0.0847 
     89 H89        24.4527  -31.7219  -44.3437 H         1 UNK         0.0847 
     90 H90        23.2195  -28.8812  -42.2241 H         1 UNK         0.3040 
     91 H91        22.9222  -27.2029  -40.8714 H         1 UNK         0.1015 
     92 H92        24.7875  -25.4719  -42.5784 H         1 UNK         0.0786 
     93 H93        23.6913  -24.9046  -41.3307 H         1 UNK         0.0786 
     94 H94        23.0442  -25.6218  -42.7970 H         1 UNK         0.0786 
     95 H95        26.2164  -28.0807  -41.5417 H         1 UNK         0.3172 
     96 H96        27.4210  -27.0963  -39.1124 H         1 UNK         0.0595 
     97 H97        28.3308  -29.2411  -41.1059 H         1 UNK         0.0839 
     98 H98        29.3324  -28.5244  -39.8507 H         1 UNK         0.0839 
     99 H99        28.7355  -27.5261  -41.1659 H         1 UNK         0.0839 
    100 H100       25.5190  -27.8785  -37.8336 H         1 UNK         0.2998 
    101 H101       24.6765  -29.0167  -36.1350 H         1 UNK         0.0822 
    102 H102       27.0330  -29.0932  -35.2745 H         1 UNK         0.0787 
    103 H103       26.0892  -30.4753  -34.7476 H         1 UNK         0.0787 
    104 H104       27.2578  -30.6634  -36.0452 H         1 UNK         0.0787 
    105 H105       24.1349  -29.9232  -38.8852 H         1 UNK         0.3055 
    106 H106       22.6444  -32.3098  -38.2360 H         1 UNK         0.1106 
    107 H107       23.6119  -33.6527  -40.1401 H         1 UNK         0.0828 
    108 H108       24.8262  -32.4092  -40.4140 H         1 UNK         0.0828 
    109 H109       24.8370  -33.3467  -38.9225 H         1 UNK         0.0828 
    110 H110       20.9830  -32.6617  -39.8145 H         1 UNK         0.2931 
    111 H111       20.2754  -30.3090  -41.3714 H         1 UNK         0.0412 
    112 H112       21.9097  -33.0917  -43.8601 H         1 UNK         0.3472 
    113 H113       21.9331  -33.3536  -42.1363 H         1 UNK         0.3472 
    114 H114       18.6483  -31.8375  -40.0036 H         1 UNK         0.0970 
    115 H115       18.6693  -32.9011  -41.3757 H         1 UNK         0.0970 
    116 H116       16.0815  -32.2486  -42.9649 H         1 UNK         0.0612 
    117 H117       17.7294  -32.5282  -43.4662 H         1 UNK         0.0612 
@<TRIPOS>BOND
     1    1    2 1    
     2    1   62 1    
     3    1   63 1    
     4    1   64 1    
     5    2    3 2    
     6    2    4 am   BACKBONE|DICT|INTERRES
     7    4    5 1    
     8    4   65 1    
     9    5    6 1    
    10    5   25 1    
    11    5   66 1    
    12    6    7 1    
    13    6   67 1    
    14    6   68 1    
    15    7    8 1    
    16    8    9 1    
    17    8   69 1    
    18    8   70 1    
    19    9   10 ar   
    20    9   14 ar   
    21   10   11 ar   
    22   10   71 1    
    23   11   12 ar   
    24   11   61 1    
    25   12   13 ar   
    26   12   72 1    
    27   13   14 ar   
    28   13   15 1    
    29   14   73 1    
    30   15   16 1    
    31   15   74 1    
    32   15   75 1    
    33   16   17 1    
    34   17   18 1    
    35   17   76 1    
    36   17   77 1    
    37   18   19 1    
    38   18   27 1    
    39   18   78 1    
    40   19   20 am   BACKBONE|DICT|INTERRES
    41   19   79 1    
    42   20   21 2    
    43   20   22 1    
    44   22   23 1    
    45   22   24 1    
    46   22   80 1    
    47   23   81 1    
    48   23   82 1    
    49   23   83 1    
    50   24   25 am   BACKBONE|DICT|INTERRES
    51   24   84 1    
    52   25   26 2    
    53   27   28 2    
    54   27   29 am   BACKBONE|DICT|INTERRES
    55   29   30 1    
    56   29   85 1    
    57   30   31 1    
    58   30   32 1    
    59   30   86 1    
    60   31   87 1    
    61   31   88 1    
    62   31   89 1    
    63   32   33 2    
    64   32   34 am   BACKBONE|DICT|INTERRES
    65   34   35 1    
    66   34   90 1    
    67   35   36 1    
    68   35   37 1    
    69   35   91 1    
    70   36   92 1    
    71   36   93 1    
    72   36   94 1    
    73   37   38 2    
    74   37   39 am   BACKBONE|DICT|INTERRES
    75   39   40 1    
    76   39   95 1    
    77   40   41 1    
    78   40   42 1    
    79   40   96 1    
    80   41   97 1    
    81   41   98 1    
    82   41   99 1    
    83   42   43 2    
    84   42   44 am   BACKBONE|DICT|INTERRES
    85   44   45 1    
    86   44  100 1    
    87   45   46 1    
    88   45   47 1    
    89   45  101 1    
    90   46  102 1    
    91   46  103 1    
    92   46  104 1    
    93   47   48 2    
    94   47   49 am   BACKBONE|DICT|INTERRES
    95   49   50 1    
    96   49  105 1    
    97   50   51 1    
    98   50   52 1    
    99   50  106 1    
   100   51  107 1    
   101   51  108 1    
   102   51  109 1    
   103   52   53 2    
   104   52   54 am   BACKBONE|DICT|INTERRES
   105   54   55 1    
   106   54  110 1    
   107   55   56 1    
   108   55   59 1    
   109   55  111 1    
   110   56   57 am   BACKBONE|DICT|INTERRES
   111   56   58 2    
   112   57  112 1    
   113   57  113 1    
   114   59   60 1    
   115   59  114 1    
   116   59  115 1    
   117   60   61 1    
   118   61  116 1    
   119   61  117 1    
@<TRIPOS>SUBSTRUCTURE
     1 UNK         1 GROUP             0       ****    0 ROOT    
