@<TRIPOS>MOLECULE
3R8
117   119    1
SMALL
USER_CHARGES


@<TRIPOS>ATOM
      1 CA         15.7294  -22.7702  -44.1187 C.3       0 UNK        -0.2013 
      2 C          15.6505  -23.9883  -43.2007 C.2       0 UNK         0.4866 
      3 O          15.0741  -23.8871  -42.1193 O.2       0 UNK        -0.5176 
      4 N          16.1859  -25.1582  -43.5785 N.am      1 UNK        -0.4884 
      5 CA         16.9542  -25.4535  -44.7970 C.3       1 UNK         0.0853 
      6 C6         17.2339  -26.9726  -44.9469 C.3       10 UNK        -0.0849 
      7 S7         15.7659  -28.0364  -44.7070 S.3       10 UNK        -0.2776 
      8 C8         16.2919  -29.6186  -45.4538 C.3       10 UNK         0.0316 
      9 C9         17.7200  -29.9944  -45.0805 C.ar      10 UNK        -0.0863 
     10 C10        18.0348  -30.4027  -43.7801 C.ar      10 UNK        -0.1009 
     11 C11        19.3599  -30.6769  -43.4248 C.ar      10 UNK        -0.0712 
     12 C12        20.3676  -30.5449  -44.3843 C.ar      10 UNK        -0.0894 
     13 C13        20.0627  -30.1633  -45.6918 C.ar      10 UNK        -0.0745 
     14 C14        18.7356  -29.8969  -46.0356 C.ar      10 UNK        -0.0972 
     15 C15        21.1581  -30.0483  -46.7405 C.3       10 UNK         0.0209 
     16 S16        21.3965  -28.3277  -47.2844 S.3       10 UNK        -0.2568 
     17 C17        22.7158  -27.7119  -46.1749 C.3       10 UNK        -0.0983 
     18 CA         22.2629  -26.7014  -45.0790 C.3       3 UNK         0.0876 
     19 N          21.2374  -25.7795  -45.5731 N.am      3 UNK        -0.4424 
     20 C          21.3289  -24.4474  -45.6411 C.2       2 UNK         0.4918 
     21 O          22.3088  -23.8024  -45.2687 O.2       2 UNK        -0.4875 
     22 CA         20.1031  -23.7046  -46.2128 C.3       2 UNK         0.0481 
     23 CB         20.3031  -23.4263  -47.7110 C.3       2 UNK        -0.1831 
     24 N          18.8237  -24.4041  -46.0153 N.am      2 UNK        -0.4498 
     25 C          18.2959  -24.6885  -44.8161 C.2       1 UNK         0.5027 
     26 O          18.8571  -24.4152  -43.7529 O.2       1 UNK        -0.4969 
     27 C          21.8457  -27.3737  -43.7516 C.2       3 UNK         0.5005 
     28 O          22.4823  -28.3520  -43.3518 O.2       3 UNK        -0.5279 
     29 N          20.8304  -26.8270  -43.0566 N.am      4 UNK        -0.4463 
     30 CA         20.2527  -27.3716  -41.8171 C.3       4 UNK         0.0283 
     31 CB         19.1102  -26.4704  -41.3230 C.3       4 UNK        -0.1875 
     32 C          21.2533  -27.6137  -40.6733 C.2       4 UNK         0.4949 
     33 O          21.0802  -28.5654  -39.9129 O.2       4 UNK        -0.5039 
     34 N          22.2731  -26.7526  -40.5764 N.am      5 UNK        -0.4663 
     35 CA         23.3504  -26.8500  -39.5892 C.3       5 UNK         0.0242 
     36 CB         23.6844  -25.4317  -39.0942 C.3       5 UNK        -0.1982 
     37 C          24.6128  -27.5365  -40.1434 C.2       5 UNK         0.5017 
     38 O          25.5452  -27.7642  -39.3712 O.2       5 UNK        -0.5012 
     39 N          24.6539  -27.8191  -41.4540 N.am      6 UNK        -0.4439 
     40 CA         25.8189  -28.3880  -42.1332 C.3       6 UNK         0.0297 
     41 CB         25.8740  -27.8922  -43.5877 C.3       6 UNK        -0.2006 
     42 C          25.8189  -29.9211  -42.0778 C.2       6 UNK         0.4892 
     43 O          26.8644  -30.5085  -41.7954 O.2       6 UNK        -0.5089 
     44 N          24.6623  -30.5418  -42.3490 N.am      7 UNK        -0.4243 
     45 CA         24.4928  -31.9953  -42.2823 C.3       7 UNK         0.0196 
     46 CB         23.4002  -32.4358  -43.2669 C.3       7 UNK        -0.2007 
     47 C          24.1248  -32.4373  -40.8598 C.2       7 UNK         0.5020 
     48 O          23.5438  -31.6631  -40.0954 O.2       7 UNK        -0.5147 
     49 N          24.4135  -33.7051  -40.5474 N.am      8 UNK        -0.4734 
     50 CA         24.0973  -34.3519  -39.2712 C.3       8 UNK         0.0238 
     51 CB         25.0852  -35.5127  -39.0451 C.3       8 UNK        -0.1912 
     52 C          22.6233  -34.8025  -39.1995 C.2       8 UNK         0.5038 
     53 O          22.3521  -35.9885  -38.9998 O.2       8 UNK        -0.5046 
     54 N          21.6972  -33.8508  -39.3708 N.am      9 UNK        -0.4200 
     55 CA         20.2443  -34.0605  -39.2470 C.3       9 UNK         0.0839 
     56 C          19.7500  -34.2852  -37.7869 C.2       9 UNK         0.5513 
     57 N          20.5411  -33.9977  -36.7595 N.am      9 UNK        -0.7519 
     58 O          18.6249  -34.7347  -37.5845 O.2       9 UNK        -0.4960 
     59 C59        19.4334  -32.9259  -39.9251 C.3       10 UNK        -0.0876 
     60 S60        19.6591  -32.8571  -41.7353 S.3       10 UNK        -0.2414 
     61 C61        19.7058  -31.0586  -41.9924 C.3       10 UNK         0.0169 
     62 H62        14.9838  -22.0303  -43.8282 H         1 UNK         0.0903 
     63 H63        16.7093  -22.2992  -44.0450 H         1 UNK         0.0903 
     64 H64        15.5385  -23.0296  -45.1588 H         1 UNK         0.0903 
     65 H65        16.0864  -25.9450  -42.9537 H         1 UNK         0.3096 
     66 H66        16.3575  -25.1348  -45.6537 H         1 UNK         0.1121 
     67 H67        17.6448  -27.1760  -45.9377 H         1 UNK         0.0849 
     68 H68        17.9915  -27.3015  -44.2324 H         1 UNK         0.0849 
     69 H69        15.6114  -30.4085  -45.1327 H         1 UNK         0.0865 
     70 H70        16.1841  -29.5481  -46.5374 H         1 UNK         0.0865 
     71 H71        17.2516  -30.4769  -43.0379 H         1 UNK         0.1346 
     72 H72        21.3965  -30.7159  -44.1128 H         1 UNK         0.1412 
     73 H73        18.5012  -29.5873  -47.0452 H         1 UNK         0.1426 
     74 H74        20.8745  -30.6480  -47.6065 H         1 UNK         0.0716 
     75 H75        22.0994  -30.4661  -46.3804 H         1 UNK         0.0716 
     76 H76        23.2723  -28.5520  -45.7577 H         1 UNK         0.0695 
     77 H77        23.4327  -27.2051  -46.8224 H         1 UNK         0.0695 
     78 H78        23.1510  -26.1270  -44.8064 H         1 UNK         0.0983 
     79 H79        20.4076  -26.2211  -45.9411 H         1 UNK         0.3095 
     80 H80        20.0360  -22.7448  -45.6962 H         1 UNK         0.0454 
     81 H81        21.2319  -22.8813  -47.8862 H         1 UNK         0.0851 
     82 H82        20.3539  -24.3489  -48.2909 H         1 UNK         0.0851 
     83 H83        19.4939  -22.8179  -48.1150 H         1 UNK         0.0851 
     84 H84        18.3202  -24.6644  -46.8521 H         1 UNK         0.2976 
     85 H85        20.3928  -25.9890  -43.4207 H         1 UNK         0.3116 
     86 H86        19.8188  -28.3355  -42.0728 H         1 UNK         0.0646 
     87 H87        18.7014  -26.8348  -40.3794 H         1 UNK         0.0847 
     88 H88        18.2857  -26.4458  -42.0326 H         1 UNK         0.0847 
     89 H89        19.4445  -25.4453  -41.1590 H         1 UNK         0.0847 
     90 H90        22.3237  -25.9905  -41.2374 H         1 UNK         0.3040 
     91 H91        23.0187  -27.4384  -38.7305 H         1 UNK         0.1015 
     92 H92        22.8101  -24.9484  -38.6576 H         1 UNK         0.0786 
     93 H93        24.0514  -24.7970  -39.9018 H         1 UNK         0.0786 
     94 H94        24.4558  -25.4564  -38.3231 H         1 UNK         0.0786 
     95 H95        23.8084  -27.7156  -42.0050 H         1 UNK         0.3172 
     96 H96        26.7263  -28.0356  -41.6375 H         1 UNK         0.0595 
     97 H97        26.7806  -28.2444  -44.0815 H         1 UNK         0.0839 
     98 H98        25.8806  -26.8034  -43.6379 H         1 UNK         0.0839 
     99 H99        25.0293  -28.2518  -44.1736 H         1 UNK         0.0839 
    100 H100       23.8367  -29.9847  -42.5334 H         1 UNK         0.2998 
    101 H101       25.4286  -32.4777  -42.5741 H         1 UNK         0.0822 
    102 H102       22.4085  -32.1880  -42.8922 H         1 UNK         0.0787 
    103 H103       23.5274  -31.9771  -44.2477 H         1 UNK         0.0787 
    104 H104       23.4207  -33.5168  -43.4094 H         1 UNK         0.0787 
    105 H105       24.8448  -34.2904  -41.2493 H         1 UNK         0.3055 
    106 H106       24.2475  -33.6313  -38.4637 H         1 UNK         0.1106 
    107 H107       24.9923  -36.2801  -39.8146 H         1 UNK         0.0828 
    108 H108       26.1172  -35.1614  -39.0437 H         1 UNK         0.0828 
    109 H109       24.9095  -35.9939  -38.0819 H         1 UNK         0.0828 
    110 H110       22.0134  -32.9051  -39.5565 H         1 UNK         0.2931 
    111 H111       20.0093  -34.9846  -39.7791 H         1 UNK         0.0412 
    112 H112       20.2068  -34.1527  -35.8210 H         1 UNK         0.3472 
    113 H113       21.4627  -33.6209  -36.9106 H         1 UNK         0.3472 
    114 H114       19.6981  -31.9653  -39.4785 H         1 UNK         0.0970 
    115 H115       18.3637  -33.0551  -39.7474 H         1 UNK         0.0970 
    116 H116       19.0047  -30.5735  -41.3113 H         1 UNK         0.0612 
    117 H117       20.6979  -30.6879  -41.7287 H         1 UNK         0.0612 
@<TRIPOS>BOND
     1    1    2 1    
     2    1   62 1    
     3    1   63 1    
     4    1   64 1    
     5    2    3 2    
     6    2    4 am   BACKBONE|DICT|INTERRES
     7    4    5 1    
     8    4   65 1    
     9    5    6 1    
    10    5   25 1    
    11    5   66 1    
    12    6    7 1    
    13    6   67 1    
    14    6   68 1    
    15    7    8 1    
    16    8    9 1    
    17    8   69 1    
    18    8   70 1    
    19    9   10 ar   
    20    9   14 ar   
    21   10   11 ar   
    22   10   71 1    
    23   11   12 ar   
    24   11   61 1    
    25   12   13 ar   
    26   12   72 1    
    27   13   14 ar   
    28   13   15 1    
    29   14   73 1    
    30   15   16 1    
    31   15   74 1    
    32   15   75 1    
    33   16   17 1    
    34   17   18 1    
    35   17   76 1    
    36   17   77 1    
    37   18   19 1    
    38   18   27 1    
    39   18   78 1    
    40   19   20 am   BACKBONE|DICT|INTERRES
    41   19   79 1    
    42   20   21 2    
    43   20   22 1    
    44   22   23 1    
    45   22   24 1    
    46   22   80 1    
    47   23   81 1    
    48   23   82 1    
    49   23   83 1    
    50   24   25 am   BACKBONE|DICT|INTERRES
    51   24   84 1    
    52   25   26 2    
    53   27   28 2    
    54   27   29 am   BACKBONE|DICT|INTERRES
    55   29   30 1    
    56   29   85 1    
    57   30   31 1    
    58   30   32 1    
    59   30   86 1    
    60   31   87 1    
    61   31   88 1    
    62   31   89 1    
    63   32   33 2    
    64   32   34 am   BACKBONE|DICT|INTERRES
    65   34   35 1    
    66   34   90 1    
    67   35   36 1    
    68   35   37 1    
    69   35   91 1    
    70   36   92 1    
    71   36   93 1    
    72   36   94 1    
    73   37   38 2    
    74   37   39 am   BACKBONE|DICT|INTERRES
    75   39   40 1    
    76   39   95 1    
    77   40   41 1    
    78   40   42 1    
    79   40   96 1    
    80   41   97 1    
    81   41   98 1    
    82   41   99 1    
    83   42   43 2    
    84   42   44 am   BACKBONE|DICT|INTERRES
    85   44   45 1    
    86   44  100 1    
    87   45   46 1    
    88   45   47 1    
    89   45  101 1    
    90   46  102 1    
    91   46  103 1    
    92   46  104 1    
    93   47   48 2    
    94   47   49 am   BACKBONE|DICT|INTERRES
    95   49   50 1    
    96   49  105 1    
    97   50   51 1    
    98   50   52 1    
    99   50  106 1    
   100   51  107 1    
   101   51  108 1    
   102   51  109 1    
   103   52   53 2    
   104   52   54 am   BACKBONE|DICT|INTERRES
   105   54   55 1    
   106   54  110 1    
   107   55   56 1    
   108   55   59 1    
   109   55  111 1    
   110   56   57 am   BACKBONE|DICT|INTERRES
   111   56   58 2    
   112   57  112 1    
   113   57  113 1    
   114   59   60 1    
   115   59  114 1    
   116   59  115 1    
   117   60   61 1    
   118   61  116 1    
   119   61  117 1    
@<TRIPOS>SUBSTRUCTURE
     1 UNK         1 GROUP             0       ****    0 ROOT    
