@<TRIPOS>MOLECULE
3R8
117   119    1
SMALL
USER_CHARGES


@<TRIPOS>ATOM
      1 CA         17.2734  -25.3490  -41.7889 C.3       0 UNK        -0.2013 
      2 C          18.4124  -25.4787  -42.7865 C.2       0 UNK         0.4866 
      3 O          19.5777  -25.4724  -42.3856 O.2       0 UNK        -0.5176 
      4 N          18.0731  -25.6002  -44.0791 N.am      1 UNK        -0.4884 
      5 CA         18.9737  -25.4982  -45.2405 C.3       1 UNK         0.0853 
      6 C6         18.1804  -25.5044  -46.5785 C.3       10 UNK        -0.0849 
      7 S7         17.8823  -27.1291  -47.3704 S.3       10 UNK        -0.2776 
      8 C8         16.3701  -27.7264  -46.5502 C.3       10 UNK         0.0316 
      9 C9         16.6577  -28.7852  -45.4906 C.ar      10 UNK        -0.0863 
     10 C10        17.3022  -29.9779  -45.8425 C.ar      10 UNK        -0.1009 
     11 C11        17.4970  -30.9972  -44.9042 C.ar      10 UNK        -0.0712 
     12 C12        17.0132  -30.8133  -43.6038 C.ar      10 UNK        -0.0894 
     13 C13        16.3957  -29.6198  -43.2274 C.ar      10 UNK        -0.0745 
     14 C14        16.2201  -28.6070  -44.1744 C.ar      10 UNK        -0.0972 
     15 C15        15.8833  -29.4484  -41.8057 C.3       10 UNK         0.0209 
     16 S16        17.1118  -28.6502  -40.7274 S.3       10 UNK        -0.2568 
     17 C17        18.3412  -29.9722  -40.4388 C.3       10 UNK        -0.0983 
     18 CA         19.8011  -29.5575  -40.7541 C.3       3 UNK         0.0876 
     19 N          19.9838  -29.1358  -42.1505 N.am      3 UNK        -0.4424 
     20 C          21.1706  -28.8568  -42.7146 C.2       2 UNK         0.4918 
     21 O          22.2331  -28.8529  -42.0965 O.2       2 UNK        -0.4875 
     22 CA         21.1866  -28.4644  -44.1951 C.3       2 UNK         0.0481 
     23 CB         21.1378  -29.6939  -45.1091 C.3       2 UNK        -0.1831 
     24 N          20.0816  -27.5617  -44.4953 N.am      2 UNK        -0.4498 
     25 C          20.1830  -26.4595  -45.2450 C.2       1 UNK         0.5027 
     26 O          21.1783  -26.1668  -45.9101 O.2       1 UNK        -0.4969 
     27 C          20.3397  -28.5630  -39.7007 C.2       3 UNK         0.5005 
     28 O          20.7725  -29.0098  -38.6377 O.2       3 UNK        -0.5279 
     29 N          20.3234  -27.2574  -40.0062 N.am      4 UNK        -0.4463 
     30 CA         20.9160  -26.2126  -39.1708 C.3       4 UNK         0.0283 
     31 CB         19.9122  -25.0658  -38.9656 C.3       4 UNK        -0.1875 
     32 C          22.2152  -25.6954  -39.7995 C.2       4 UNK         0.4949 
     33 O          23.2119  -25.5647  -39.0903 O.2       4 UNK        -0.5039 
     34 N          22.1891  -25.4158  -41.1115 N.am      5 UNK        -0.4663 
     35 CA         23.2942  -24.7960  -41.8508 C.3       5 UNK         0.0242 
     36 CB         22.8125  -24.4238  -43.2600 C.3       5 UNK        -0.1982 
     37 C          24.5730  -25.6482  -41.9330 C.2       5 UNK         0.5017 
     38 O          25.6673  -25.0870  -41.8679 O.2       5 UNK        -0.5012 
     39 N          24.4167  -26.9704  -42.0756 N.am      6 UNK        -0.4439 
     40 CA         25.5096  -27.9455  -42.1581 C.3       6 UNK         0.0297 
     41 CB         25.4144  -28.6764  -43.5093 C.3       6 UNK        -0.2006 
     42 C          25.4852  -28.9464  -40.9876 C.2       6 UNK         0.4892 
     43 O          26.3410  -29.8302  -40.9423 O.2       6 UNK        -0.5089 
     44 N          24.5071  -28.8027  -40.0795 N.am      7 UNK        -0.4243 
     45 CA         24.2018  -29.6446  -38.9146 C.3       7 UNK         0.0196 
     46 CB         25.3883  -29.6828  -37.9283 C.3       7 UNK        -0.2007 
     47 C          23.6856  -31.0615  -39.2491 C.2       7 UNK         0.5020 
     48 O          23.4366  -31.8334  -38.3220 O.2       7 UNK        -0.5147 
     49 N          23.5124  -31.3894  -40.5354 N.am      8 UNK        -0.4734 
     50 CA         23.0628  -32.6827  -41.0490 C.3       8 UNK         0.0238 
     51 CB         24.1174  -33.7768  -40.7804 C.3       8 UNK        -0.1912 
     52 C          22.8175  -32.5585  -42.5568 C.2       8 UNK         0.5038 
     53 O          23.4516  -31.7260  -43.2087 O.2       8 UNK        -0.5046 
     54 N          21.9251  -33.4037  -43.0828 N.am      9 UNK        -0.4200 
     55 CA         21.6319  -33.5207  -44.5194 C.3       9 UNK         0.0839 
     56 C          22.7572  -34.2666  -45.2839 C.2       9 UNK         0.5513 
     57 N          22.9894  -33.9161  -46.5413 N.am      9 UNK        -0.7519 
     58 O          23.3890  -35.1844  -44.7640 O.2       9 UNK        -0.4960 
     59 C59        20.2529  -34.1819  -44.7741 C.3       10 UNK        -0.0876 
     60 S60        18.9063  -33.2629  -43.9580 S.3       10 UNK        -0.2414 
     61 C61        18.2115  -32.2814  -45.3361 C.3       10 UNK         0.0169 
     62 H62        17.5667  -25.7461  -40.8183 H         1 UNK         0.0903 
     63 H63        17.0119  -24.2998  -41.6560 H         1 UNK         0.0903 
     64 H64        16.3858  -25.8877  -42.1195 H         1 UNK         0.0903 
     65 H65        17.0911  -25.6217  -44.3108 H         1 UNK         0.3096 
     66 H66        19.4186  -24.5044  -45.1491 H         1 UNK         0.1121 
     67 H67        17.2351  -24.9694  -46.4749 H         1 UNK         0.0849 
     68 H68        18.7448  -24.9212  -47.3084 H         1 UNK         0.0849 
     69 H69        15.8116  -26.8876  -46.1328 H         1 UNK         0.0865 
     70 H70        15.7213  -28.1691  -47.3072 H         1 UNK         0.0865 
     71 H71        17.6427  -30.1167  -46.8599 H         1 UNK         0.1346 
     72 H72        17.1069  -31.6025  -42.8733 H         1 UNK         0.1412 
     73 H73        15.7112  -27.6962  -43.8908 H         1 UNK         0.1426 
     74 H74        15.5934  -30.4105  -41.3802 H         1 UNK         0.0716 
     75 H75        14.9789  -28.8382  -41.8138 H         1 UNK         0.0716 
     76 H76        18.0832  -30.8539  -41.0220 H         1 UNK         0.0695 
     77 H77        18.2529  -30.2922  -39.3986 H         1 UNK         0.0695 
     78 H78        20.4139  -30.4546  -40.6384 H         1 UNK         0.0983 
     79 H79        19.1491  -29.1498  -42.7167 H         1 UNK         0.3095 
     80 H80        22.1333  -27.9496  -44.3736 H         1 UNK         0.0454 
     81 H81        20.3049  -30.3486  -44.8583 H         1 UNK         0.0851 
     82 H82        21.0420  -29.4107  -46.1572 H         1 UNK         0.0851 
     83 H83        22.0574  -30.2704  -45.0127 H         1 UNK         0.0851 
     84 H84        19.2201  -27.6871  -43.9858 H         1 UNK         0.2976 
     85 H85        19.9555  -26.9678  -40.9045 H         1 UNK         0.3116 
     86 H86        21.1635  -26.6073  -38.1831 H         1 UNK         0.0646 
     87 H87        19.6640  -24.5610  -39.8989 H         1 UNK         0.0847 
     88 H88        20.3205  -24.3118  -38.2914 H         1 UNK         0.0847 
     89 H89        18.9843  -25.4272  -38.5224 H         1 UNK         0.0847 
     90 H90        21.3066  -25.5035  -41.6104 H         1 UNK         0.3040 
     91 H91        23.5552  -23.8728  -41.3284 H         1 UNK         0.1015 
     92 H92        22.5671  -25.3126  -43.8398 H         1 UNK         0.0786 
     93 H93        23.5844  -23.8813  -43.8074 H         1 UNK         0.0786 
     94 H94        21.9277  -23.7876  -43.2273 H         1 UNK         0.0786 
     95 H95        23.4788  -27.3589  -42.1209 H         1 UNK         0.3172 
     96 H96        26.4773  -27.4422  -42.1141 H         1 UNK         0.0595 
     97 H97        24.4780  -29.2263  -43.6070 H         1 UNK         0.0839 
     98 H98        26.2258  -29.3959  -43.6264 H         1 UNK         0.0839 
     99 H99        25.4799  -27.9774  -44.3431 H         1 UNK         0.0839 
    100 H100       23.8584  -28.0441  -40.2327 H         1 UNK         0.2998 
    101 H101       23.3796  -29.1431  -38.4039 H         1 UNK         0.0822 
    102 H102       25.7320  -28.6783  -37.6813 H         1 UNK         0.0787 
    103 H103       25.1024  -30.1647  -36.9925 H         1 UNK         0.0787 
    104 H104       26.2348  -30.2397  -38.3308 H         1 UNK         0.0787 
    105 H105       23.6954  -30.6965  -41.2536 H         1 UNK         0.3055 
    106 H106       22.1235  -32.9438  -40.5568 H         1 UNK         0.1106 
    107 H107       23.8209  -34.7279  -41.2248 H         1 UNK         0.0828 
    108 H108       25.0866  -33.5085  -41.2030 H         1 UNK         0.0828 
    109 H109       24.2558  -33.9551  -39.7143 H         1 UNK         0.0828 
    110 H110       21.4685  -34.0772  -42.4863 H         1 UNK         0.2931 
    111 H111       21.5818  -32.5110  -44.9259 H         1 UNK         0.0412 
    112 H112       22.4723  -33.1708  -46.9812 H         1 UNK         0.3472 
    113 H113       23.7064  -34.3999  -47.0596 H         1 UNK         0.3472 
    114 H114       20.2448  -35.2068  -44.3984 H         1 UNK         0.0970 
    115 H115       20.0449  -34.2521  -45.8436 H         1 UNK         0.0970 
    116 H116       17.5138  -32.9059  -45.8951 H         1 UNK         0.0612 
    117 H117       19.0187  -32.0231  -46.0231 H         1 UNK         0.0612 
@<TRIPOS>BOND
     1    1    2 1    
     2    1   62 1    
     3    1   63 1    
     4    1   64 1    
     5    2    3 2    
     6    2    4 am   BACKBONE|DICT|INTERRES
     7    4    5 1    
     8    4   65 1    
     9    5    6 1    
    10    5   25 1    
    11    5   66 1    
    12    6    7 1    
    13    6   67 1    
    14    6   68 1    
    15    7    8 1    
    16    8    9 1    
    17    8   69 1    
    18    8   70 1    
    19    9   10 ar   
    20    9   14 ar   
    21   10   11 ar   
    22   10   71 1    
    23   11   12 ar   
    24   11   61 1    
    25   12   13 ar   
    26   12   72 1    
    27   13   14 ar   
    28   13   15 1    
    29   14   73 1    
    30   15   16 1    
    31   15   74 1    
    32   15   75 1    
    33   16   17 1    
    34   17   18 1    
    35   17   76 1    
    36   17   77 1    
    37   18   19 1    
    38   18   27 1    
    39   18   78 1    
    40   19   20 am   BACKBONE|DICT|INTERRES
    41   19   79 1    
    42   20   21 2    
    43   20   22 1    
    44   22   23 1    
    45   22   24 1    
    46   22   80 1    
    47   23   81 1    
    48   23   82 1    
    49   23   83 1    
    50   24   25 am   BACKBONE|DICT|INTERRES
    51   24   84 1    
    52   25   26 2    
    53   27   28 2    
    54   27   29 am   BACKBONE|DICT|INTERRES
    55   29   30 1    
    56   29   85 1    
    57   30   31 1    
    58   30   32 1    
    59   30   86 1    
    60   31   87 1    
    61   31   88 1    
    62   31   89 1    
    63   32   33 2    
    64   32   34 am   BACKBONE|DICT|INTERRES
    65   34   35 1    
    66   34   90 1    
    67   35   36 1    
    68   35   37 1    
    69   35   91 1    
    70   36   92 1    
    71   36   93 1    
    72   36   94 1    
    73   37   38 2    
    74   37   39 am   BACKBONE|DICT|INTERRES
    75   39   40 1    
    76   39   95 1    
    77   40   41 1    
    78   40   42 1    
    79   40   96 1    
    80   41   97 1    
    81   41   98 1    
    82   41   99 1    
    83   42   43 2    
    84   42   44 am   BACKBONE|DICT|INTERRES
    85   44   45 1    
    86   44  100 1    
    87   45   46 1    
    88   45   47 1    
    89   45  101 1    
    90   46  102 1    
    91   46  103 1    
    92   46  104 1    
    93   47   48 2    
    94   47   49 am   BACKBONE|DICT|INTERRES
    95   49   50 1    
    96   49  105 1    
    97   50   51 1    
    98   50   52 1    
    99   50  106 1    
   100   51  107 1    
   101   51  108 1    
   102   51  109 1    
   103   52   53 2    
   104   52   54 am   BACKBONE|DICT|INTERRES
   105   54   55 1    
   106   54  110 1    
   107   55   56 1    
   108   55   59 1    
   109   55  111 1    
   110   56   57 am   BACKBONE|DICT|INTERRES
   111   56   58 2    
   112   57  112 1    
   113   57  113 1    
   114   59   60 1    
   115   59  114 1    
   116   59  115 1    
   117   60   61 1    
   118   61  116 1    
   119   61  117 1    
@<TRIPOS>SUBSTRUCTURE
     1 UNK         1 GROUP             0       ****    0 ROOT    
