@<TRIPOS>MOLECULE
3R8
117   119    1
SMALL
USER_CHARGES


@<TRIPOS>ATOM
      1 CA         13.1277  -23.8686  -42.3078 C.3       0 UNK        -0.2013 
      2 C          14.5327  -24.0108  -42.8740 C.2       0 UNK         0.4866 
      3 O          15.4431  -23.3042  -42.4393 O.2       0 UNK        -0.5176 
      4 N          14.7123  -24.9097  -43.8492 N.am      1 UNK        -0.4884 
      5 CA         16.0010  -25.2384  -44.4666 C.3       1 UNK         0.0853 
      6 C6         15.8379  -25.9303  -45.8522 C.3       10 UNK        -0.0849 
      7 S7         14.4697  -27.1337  -46.0345 S.3       10 UNK        -0.2776 
      8 C8         14.8711  -28.4751  -44.8590 C.3       10 UNK         0.0316 
      9 C9         16.2149  -29.1760  -45.0670 C.ar      10 UNK        -0.0863 
     10 C10        16.8452  -29.7576  -43.9610 C.ar      10 UNK        -0.1009 
     11 C11        18.0254  -30.4901  -44.1127 C.ar      10 UNK        -0.0712 
     12 C12        18.5848  -30.6303  -45.3834 C.ar      10 UNK        -0.0894 
     13 C13        17.9877  -30.0314  -46.4970 C.ar      10 UNK        -0.0745 
     14 C14        16.7974  -29.3157  -46.3333 C.ar      10 UNK        -0.0972 
     15 C15        18.5846  -30.2102  -47.8878 C.3       10 UNK         0.0209 
     16 S16        20.3948  -29.9985  -47.9289 S.3       10 UNK        -0.2568 
     17 C17        20.5873  -28.1874  -47.7764 C.3       10 UNK        -0.0983 
     18 CA         21.2210  -27.6771  -46.4533 C.3       3 UNK         0.0876 
     19 N          20.2588  -27.6424  -45.3418 N.am      3 UNK        -0.4424 
     20 C          20.4391  -26.9111  -44.2320 C.2       2 UNK         0.4918 
     21 O          21.4522  -26.2455  -44.0187 O.2       2 UNK        -0.4875 
     22 CA         19.2669  -26.8520  -43.2470 C.3       2 UNK         0.0481 
     23 CB         19.6575  -26.2453  -41.8829 C.3       2 UNK        -0.1831 
     24 N          18.2160  -26.0673  -43.8837 N.am      2 UNK        -0.4498 
     25 C          16.9279  -26.0388  -43.5256 C.2       1 UNK         0.5027 
     26 O          16.4735  -26.6260  -42.5398 O.2       1 UNK        -0.4969 
     27 C          22.5582  -28.3731  -46.1021 C.2       3 UNK         0.5005 
     28 O          23.5648  -28.1066  -46.7611 O.2       3 UNK        -0.5279 
     29 N          22.5500  -29.2247  -45.0677 N.am      4 UNK        -0.4463 
     30 CA         23.7089  -29.9458  -44.5435 C.3       4 UNK         0.0283 
     31 CB         23.4835  -31.4583  -44.7333 C.3       4 UNK        -0.1875 
     32 C          23.9564  -29.5686  -43.0727 C.2       4 UNK         0.4949 
     33 O          24.2909  -30.4421  -42.2738 O.2       4 UNK        -0.5039 
     34 N          23.7754  -28.2818  -42.7342 N.am      5 UNK        -0.4663 
     35 CA         23.9394  -27.7177  -41.3876 C.3       5 UNK         0.0242 
     36 CB         23.7323  -26.1952  -41.4456 C.3       5 UNK        -0.1982 
     37 C          25.3000  -28.0286  -40.7365 C.2       5 UNK         0.5017 
     38 O          26.3117  -28.1254  -41.4353 O.2       5 UNK        -0.5012 
     39 N          25.2883  -28.1736  -39.4047 N.am      6 UNK        -0.4439 
     40 CA         26.3966  -28.5278  -38.5048 C.3       6 UNK         0.0297 
     41 CB         27.5915  -27.5620  -38.6329 C.3       6 UNK        -0.2006 
     42 C          26.8413  -29.9975  -38.6132 C.2       6 UNK         0.4892 
     43 O          27.0878  -30.6196  -37.5792 O.2       6 UNK        -0.5089 
     44 N          26.9075  -30.5396  -39.8363 N.am      7 UNK        -0.4243 
     45 CA         27.1010  -31.9674  -40.1006 C.3       7 UNK         0.0196 
     46 CB         27.4907  -32.1691  -41.5741 C.3       7 UNK        -0.2007 
     47 C          25.8420  -32.7800  -39.7512 C.2       7 UNK         0.5020 
     48 O          25.9522  -33.8656  -39.1806 O.2       7 UNK        -0.5147 
     49 N          24.6738  -32.2241  -40.0827 N.am      8 UNK        -0.4734 
     50 CA         23.3434  -32.7445  -39.7946 C.3       8 UNK         0.0238 
     51 CB         22.9235  -33.7141  -40.9206 C.3       8 UNK        -0.1912 
     52 C          22.3777  -31.5565  -39.6240 C.2       8 UNK         0.5038 
     53 O          22.8221  -30.4362  -39.3532 O.2       8 UNK        -0.5046 
     54 N          21.0767  -31.8243  -39.7919 N.am      9 UNK        -0.4200 
     55 CA         19.9684  -30.8569  -39.7292 C.3       9 UNK         0.0839 
     56 C          19.7538  -30.2567  -38.3052 C.2       9 UNK         0.5513 
     57 N          19.0050  -29.1690  -38.1739 N.am      9 UNK        -0.7519 
     58 O          20.2136  -30.7986  -37.3015 O.2       9 UNK        -0.4960 
     59 C59        20.0243  -29.7837  -40.8623 C.3       10 UNK        -0.0876 
     60 S60        20.3040  -30.4760  -42.5288 S.3       10 UNK        -0.2414 
     61 C61        18.6720  -31.1801  -42.9215 C.3       10 UNK         0.0169 
     62 H62        13.1294  -24.0924  -41.2413 H         1 UNK         0.0903 
     63 H63        12.7702  -22.8480  -42.4417 H         1 UNK         0.0903 
     64 H64        12.4218  -24.5417  -42.7941 H         1 UNK         0.0903 
     65 H65        13.9355  -25.4749  -44.1631 H         1 UNK         0.3096 
     66 H66        16.5132  -24.2890  -44.6426 H         1 UNK         0.1121 
     67 H67        15.6445  -25.1528  -46.5928 H         1 UNK         0.0849 
     68 H68        16.7652  -26.3982  -46.1877 H         1 UNK         0.0849 
     69 H69        14.7930  -28.0856  -43.8442 H         1 UNK         0.0865 
     70 H70        14.0896  -29.2315  -44.9405 H         1 UNK         0.0865 
     71 H71        16.3994  -29.6617  -42.9800 H         1 UNK         0.1346 
     72 H72        19.4866  -31.2157  -45.5031 H         1 UNK         0.1412 
     73 H73        16.3112  -28.8900  -47.2002 H         1 UNK         0.1426 
     74 H74        18.1288  -29.5237  -48.6031 H         1 UNK         0.0716 
     75 H75        18.3470  -31.2167  -48.2343 H         1 UNK         0.0716 
     76 H76        21.2117  -27.8692  -48.6131 H         1 UNK         0.0695 
     77 H77        19.6246  -27.7005  -47.9403 H         1 UNK         0.0695 
     78 H78        21.4912  -26.6348  -46.6403 H         1 UNK         0.0983 
     79 H79        19.4105  -28.1811  -45.4572 H         1 UNK         0.3095 
     80 H80        18.9067  -27.8689  -43.0904 H         1 UNK         0.0454 
     81 H81        20.4866  -26.7932  -41.4360 H         1 UNK         0.0851 
     82 H82        19.9677  -25.2042  -41.9785 H         1 UNK         0.0851 
     83 H83        18.8297  -26.2830  -41.1753 H         1 UNK         0.0851 
     84 H84        18.5087  -25.5525  -44.7036 H         1 UNK         0.2976 
     85 H85        21.6821  -29.3617  -44.5668 H         1 UNK         0.3116 
     86 H86        24.6132  -29.6685  -45.0885 H         1 UNK         0.0646 
     87 H87        24.3522  -32.0296  -44.4033 H         1 UNK         0.0847 
     88 H88        23.3137  -31.7048  -45.7814 H         1 UNK         0.0847 
     89 H89        22.6244  -31.8118  -44.1623 H         1 UNK         0.0847 
     90 H90        23.4905  -27.6356  -43.4573 H         1 UNK         0.3040 
     91 H91        23.1557  -28.1545  -40.7662 H         1 UNK         0.1015 
     92 H92        24.4414  -25.7195  -42.1243 H         1 UNK         0.0786 
     93 H93        23.8672  -25.7405  -40.4631 H         1 UNK         0.0786 
     94 H94        22.7280  -25.9379  -41.7767 H         1 UNK         0.0786 
     95 H95        24.3861  -28.1277  -38.9491 H         1 UNK         0.3172 
     96 H96        25.9928  -28.4030  -37.4987 H         1 UNK         0.0595 
     97 H97        28.3327  -27.7616  -37.8579 H         1 UNK         0.0839 
     98 H98        28.0996  -27.6589  -39.5926 H         1 UNK         0.0839 
     99 H99        27.2778  -26.5242  -38.5215 H         1 UNK         0.0839 
    100 H100       26.7007  -29.9400  -40.6288 H         1 UNK         0.2998 
    101 H101       27.9206  -32.3288  -39.4756 H         1 UNK         0.0822 
    102 H102       27.6516  -33.2256  -41.7929 H         1 UNK         0.0787 
    103 H103       26.7143  -31.8101  -42.2511 H         1 UNK         0.0787 
    104 H104       28.4146  -31.6432  -41.8151 H         1 UNK         0.0787 
    105 H105       24.6695  -31.3390  -40.5857 H         1 UNK         0.3055 
    106 H106       23.3666  -33.2805  -38.8433 H         1 UNK         0.1106 
    107 H107       23.6742  -34.4890  -41.0767 H         1 UNK         0.0828 
    108 H108       21.9899  -34.2259  -40.6866 H         1 UNK         0.0828 
    109 H109       22.7884  -33.1891  -41.8676 H         1 UNK         0.0828 
    110 H110       20.8060  -32.7762  -39.9856 H         1 UNK         0.2931 
    111 H111       19.0764  -31.4593  -39.9016 H         1 UNK         0.0412 
    112 H112       18.5796  -28.7202  -38.9686 H         1 UNK         0.3472 
    113 H113       18.8510  -28.7959  -37.2498 H         1 UNK         0.3472 
    114 H114       20.8281  -29.0747  -40.6610 H         1 UNK         0.0970 
    115 H115       19.1037  -29.1995  -40.8934 H         1 UNK         0.0970 
    116 H116       18.0177  -31.1354  -42.0502 H         1 UNK         0.0612 
    117 H117       18.7982  -32.2392  -43.1501 H         1 UNK         0.0612 
@<TRIPOS>BOND
     1    1    2 1    
     2    1   62 1    
     3    1   63 1    
     4    1   64 1    
     5    2    3 2    
     6    2    4 am   BACKBONE|DICT|INTERRES
     7    4    5 1    
     8    4   65 1    
     9    5    6 1    
    10    5   25 1    
    11    5   66 1    
    12    6    7 1    
    13    6   67 1    
    14    6   68 1    
    15    7    8 1    
    16    8    9 1    
    17    8   69 1    
    18    8   70 1    
    19    9   10 ar   
    20    9   14 ar   
    21   10   11 ar   
    22   10   71 1    
    23   11   12 ar   
    24   11   61 1    
    25   12   13 ar   
    26   12   72 1    
    27   13   14 ar   
    28   13   15 1    
    29   14   73 1    
    30   15   16 1    
    31   15   74 1    
    32   15   75 1    
    33   16   17 1    
    34   17   18 1    
    35   17   76 1    
    36   17   77 1    
    37   18   19 1    
    38   18   27 1    
    39   18   78 1    
    40   19   20 am   BACKBONE|DICT|INTERRES
    41   19   79 1    
    42   20   21 2    
    43   20   22 1    
    44   22   23 1    
    45   22   24 1    
    46   22   80 1    
    47   23   81 1    
    48   23   82 1    
    49   23   83 1    
    50   24   25 am   BACKBONE|DICT|INTERRES
    51   24   84 1    
    52   25   26 2    
    53   27   28 2    
    54   27   29 am   BACKBONE|DICT|INTERRES
    55   29   30 1    
    56   29   85 1    
    57   30   31 1    
    58   30   32 1    
    59   30   86 1    
    60   31   87 1    
    61   31   88 1    
    62   31   89 1    
    63   32   33 2    
    64   32   34 am   BACKBONE|DICT|INTERRES
    65   34   35 1    
    66   34   90 1    
    67   35   36 1    
    68   35   37 1    
    69   35   91 1    
    70   36   92 1    
    71   36   93 1    
    72   36   94 1    
    73   37   38 2    
    74   37   39 am   BACKBONE|DICT|INTERRES
    75   39   40 1    
    76   39   95 1    
    77   40   41 1    
    78   40   42 1    
    79   40   96 1    
    80   41   97 1    
    81   41   98 1    
    82   41   99 1    
    83   42   43 2    
    84   42   44 am   BACKBONE|DICT|INTERRES
    85   44   45 1    
    86   44  100 1    
    87   45   46 1    
    88   45   47 1    
    89   45  101 1    
    90   46  102 1    
    91   46  103 1    
    92   46  104 1    
    93   47   48 2    
    94   47   49 am   BACKBONE|DICT|INTERRES
    95   49   50 1    
    96   49  105 1    
    97   50   51 1    
    98   50   52 1    
    99   50  106 1    
   100   51  107 1    
   101   51  108 1    
   102   51  109 1    
   103   52   53 2    
   104   52   54 am   BACKBONE|DICT|INTERRES
   105   54   55 1    
   106   54  110 1    
   107   55   56 1    
   108   55   59 1    
   109   55  111 1    
   110   56   57 am   BACKBONE|DICT|INTERRES
   111   56   58 2    
   112   57  112 1    
   113   57  113 1    
   114   59   60 1    
   115   59  114 1    
   116   59  115 1    
   117   60   61 1    
   118   61  116 1    
   119   61  117 1    
@<TRIPOS>SUBSTRUCTURE
     1 UNK         1 GROUP             0       ****    0 ROOT    
