@<TRIPOS>MOLECULE
3R8
117   119    1
SMALL
USER_CHARGES


@<TRIPOS>ATOM
      1 CA         17.2048  -24.0423  -40.7035 C.3       0 UNK        -0.2013 
      2 C          16.5856  -24.4301  -42.0383 C.2       0 UNK         0.4866 
      3 O          15.9867  -23.5847  -42.7029 O.2       0 UNK        -0.5176 
      4 N          16.7236  -25.7043  -42.4302 N.am      1 UNK        -0.4884 
      5 CA         16.2399  -26.2635  -43.7001 C.3       1 UNK         0.0853 
      6 C6         16.3777  -27.8054  -43.6946 C.3       10 UNK        -0.0849 
      7 S7         15.4483  -28.6563  -45.0182 S.3       10 UNK        -0.2776 
      8 C8         16.7553  -29.0663  -46.2373 C.3       10 UNK         0.0316 
      9 C9         17.9450  -29.8691  -45.7015 C.ar      10 UNK        -0.0863 
     10 C10        17.8467  -30.6833  -44.5646 C.ar      10 UNK        -0.1009 
     11 C11        18.9649  -31.3580  -44.0687 C.ar      10 UNK        -0.0712 
     12 C12        20.1859  -31.2449  -44.7371 C.ar      10 UNK        -0.0894 
     13 C13        20.2924  -30.4809  -45.9018 C.ar      10 UNK        -0.0745 
     14 C14        19.1703  -29.7933  -46.3754 C.ar      10 UNK        -0.0972 
     15 C15        21.6137  -30.4341  -46.6598 C.3       10 UNK         0.0209 
     16 S16        22.3858  -28.7839  -46.6786 S.3       10 UNK        -0.2568 
     17 C17        22.6298  -28.4162  -44.9060 C.3       10 UNK        -0.0983 
     18 CA         22.3553  -26.9249  -44.5989 C.3       3 UNK         0.0876 
     19 N          21.0163  -26.5066  -45.0259 N.am      3 UNK        -0.4424 
     20 C          20.6582  -25.2384  -45.2708 C.2       2 UNK         0.4918 
     21 O          21.3877  -24.2635  -45.0928 O.2       2 UNK        -0.4875 
     22 CA         19.2343  -25.0339  -45.7952 C.3       2 UNK         0.0481 
     23 CB         19.0912  -25.6395  -47.2092 C.3       2 UNK        -0.1831 
     24 N          18.3005  -25.6174  -44.8338 N.am      2 UNK        -0.4498 
     25 C          16.9637  -25.6331  -44.9085 C.2       1 UNK         0.5027 
     26 O          16.3101  -25.1682  -45.8433 O.2       1 UNK        -0.4969 
     27 C          22.6049  -26.5981  -43.1153 C.2       3 UNK         0.5005 
     28 O          23.6838  -26.1062  -42.7804 O.2       3 UNK        -0.5279 
     29 N          21.5929  -26.8452  -42.2671 N.am      4 UNK        -0.4463 
     30 CA         21.5259  -26.5235  -40.8365 C.3       4 UNK         0.0283 
     31 CB         21.3307  -25.0030  -40.6416 C.3       4 UNK        -0.1875 
     32 C          22.7147  -27.1004  -40.0441 C.2       4 UNK         0.4949 
     33 O          22.7026  -28.2855  -39.7184 O.2       4 UNK        -0.5039 
     34 N          23.7243  -26.2676  -39.7613 N.am      5 UNK        -0.4663 
     35 CA         24.9600  -26.6607  -39.0816 C.3       5 UNK         0.0242 
     36 CB         25.7007  -25.3962  -38.6174 C.3       5 UNK        -0.1982 
     37 C          25.8860  -27.5409  -39.9417 C.2       5 UNK         0.5017 
     38 O          26.6836  -28.2889  -39.3750 O.2       5 UNK        -0.5012 
     39 N          25.7837  -27.4406  -41.2766 N.am      6 UNK        -0.4439 
     40 CA         26.6009  -28.2123  -42.2193 C.3       6 UNK         0.0297 
     41 CB         26.6149  -27.5141  -43.5888 C.3       6 UNK        -0.2006 
     42 C          26.1471  -29.6761  -42.3600 C.2       6 UNK         0.4892 
     43 O          26.9775  -30.5288  -42.6762 O.2       6 UNK        -0.5089 
     44 N          24.8585  -29.9455  -42.1186 N.am      7 UNK        -0.4243 
     45 CA         24.2502  -31.2717  -42.1425 C.3       7 UNK         0.0196 
     46 CB         24.0746  -31.7804  -43.5869 C.3       7 UNK        -0.2007 
     47 C          22.9104  -31.1673  -41.4135 C.2       7 UNK         0.5020 
     48 O          21.9767  -30.5728  -41.9515 O.2       7 UNK        -0.5147 
     49 N          22.8528  -31.7106  -40.1925 N.am      8 UNK        -0.4734 
     50 CA         21.6812  -31.6297  -39.3135 C.3       8 UNK         0.0238 
     51 CB         22.1577  -31.6585  -37.8512 C.3       8 UNK        -0.1912 
     52 C          20.6412  -32.7367  -39.5633 C.2       8 UNK         0.5038 
     53 O          19.5317  -32.6333  -39.0391 O.2       8 UNK        -0.5046 
     54 N          21.0122  -33.7718  -40.3323 N.am      9 UNK        -0.4200 
     55 CA         20.2053  -34.9710  -40.6330 C.3       9 UNK         0.0839 
     56 C          19.9307  -35.8880  -39.3997 C.2       9 UNK         0.5513 
     57 N          20.6885  -35.7805  -38.3145 N.am      9 UNK        -0.7519 
     58 O          19.0411  -36.7348  -39.4330 O.2       9 UNK        -0.4960 
     59 C59        18.9151  -34.6597  -41.4490 C.3       10 UNK        -0.0876 
     60 S60        19.2626  -33.9359  -43.0873 S.3       10 UNK        -0.2414 
     61 C61        18.8611  -32.1853  -42.7957 C.3       10 UNK         0.0169 
     62 H62        16.4355  -23.6700  -40.0275 H         1 UNK         0.0903 
     63 H63        17.7007  -24.8844  -40.2212 H         1 UNK         0.0903 
     64 H64        17.9420  -23.2528  -40.8478 H         1 UNK         0.0903 
     65 H65        17.1990  -26.3522  -41.8180 H         1 UNK         0.3096 
     66 H66        15.1801  -26.0114  -43.7849 H         1 UNK         0.1121 
     67 H67        15.9852  -28.1977  -42.7549 H         1 UNK         0.0849 
     68 H68        17.4278  -28.0988  -43.7097 H         1 UNK         0.0849 
     69 H69        16.2995  -29.6316  -47.0512 H         1 UNK         0.0865 
     70 H70        17.1098  -28.1334  -46.6774 H         1 UNK         0.0865 
     71 H71        16.9042  -30.7767  -44.0441 H         1 UNK         0.1346 
     72 H72        21.0499  -31.7677  -44.3502 H         1 UNK         0.1412 
     73 H73        19.2564  -29.1986  -47.2747 H         1 UNK         0.1426 
     74 H74        21.4369  -30.7446  -47.6904 H         1 UNK         0.0716 
     75 H75        22.3245  -31.1522  -46.2495 H         1 UNK         0.0716 
     76 H76        23.6557  -28.6805  -44.6467 H         1 UNK         0.0695 
     77 H77        21.9873  -29.0551  -44.2989 H         1 UNK         0.0695 
     78 H78        23.0790  -26.3386  -45.1707 H         1 UNK         0.0983 
     79 H79        20.3704  -27.2502  -45.2464 H         1 UNK         0.3095 
     80 H80        19.0411  -23.9607  -45.8487 H         1 UNK         0.0454 
     81 H81        19.1555  -26.7270  -47.1979 H         1 UNK         0.0851 
     82 H82        19.8795  -25.2754  -47.8694 H         1 UNK         0.0851 
     83 H83        18.1446  -25.3663  -47.6741 H         1 UNK         0.0851 
     84 H84        18.7222  -25.9646  -43.9845 H         1 UNK         0.2976 
     85 H85        20.7871  -27.3266  -42.6380 H         1 UNK         0.3116 
     86 H86        20.6346  -27.0193  -40.4485 H         1 UNK         0.0646 
     87 H87        20.3953  -24.6702  -41.0910 H         1 UNK         0.0847 
     88 H88        22.1326  -24.4185  -41.0938 H         1 UNK         0.0847 
     89 H89        21.2858  -24.7435  -39.5829 H         1 UNK         0.0847 
     90 H90        23.6710  -25.3186  -40.1028 H         1 UNK         0.3040 
     91 H91        24.6905  -27.2436  -38.1977 H         1 UNK         0.1015 
     92 H92        26.6141  -25.6542  -38.0792 H         1 UNK         0.0786 
     93 H93        25.0862  -24.8013  -37.9413 H         1 UNK         0.0786 
     94 H94        25.9862  -24.7633  -39.4587 H         1 UNK         0.0786 
     95 H95        25.0838  -26.8173  -41.6751 H         1 UNK         0.3172 
     96 H96        27.6278  -28.2250  -41.8474 H         1 UNK         0.0595 
     97 H97        25.6236  -27.4762  -44.0385 H         1 UNK         0.0839 
     98 H98        27.2668  -28.0411  -44.2870 H         1 UNK         0.0839 
     99 H99        26.9853  -26.4919  -43.5096 H         1 UNK         0.0839 
    100 H100       24.2471  -29.1971  -41.8183 H         1 UNK         0.2998 
    101 H101       24.8977  -31.9673  -41.6042 H         1 UNK         0.0822 
    102 H102       25.0350  -31.9245  -44.0815 H         1 UNK         0.0787 
    103 H103       23.5555  -32.7395  -43.6025 H         1 UNK         0.0787 
    104 H104       23.4924  -31.0845  -44.1882 H         1 UNK         0.0787 
    105 H105       23.6752  -32.1588  -39.8134 H         1 UNK         0.3055 
    106 H106       21.1767  -30.6750  -39.4834 H         1 UNK         0.1106 
    107 H107       22.8303  -30.8265  -37.6406 H         1 UNK         0.0828 
    108 H108       22.6807  -32.5849  -37.6111 H         1 UNK         0.0828 
    109 H109       21.3158  -31.5712  -37.1629 H         1 UNK         0.0828 
    110 H110       21.9453  -33.7639  -40.7157 H         1 UNK         0.2931 
    111 H111       20.8417  -35.5817  -41.2745 H         1 UNK         0.0412 
    112 H112       21.4342  -35.1049  -38.2743 H         1 UNK         0.3472 
    113 H113       20.5111  -36.3850  -37.5273 H         1 UNK         0.3472 
    114 H114       18.3541  -35.5769  -41.6363 H         1 UNK         0.0970 
    115 H115       18.2398  -34.0157  -40.8842 H         1 UNK         0.0970 
    116 H116       19.5430  -31.7729  -42.0531 H         1 UNK         0.0612 
    117 H117       17.8583  -32.1151  -42.3717 H         1 UNK         0.0612 
@<TRIPOS>BOND
     1    1    2 1    
     2    1   62 1    
     3    1   63 1    
     4    1   64 1    
     5    2    3 2    
     6    2    4 am   BACKBONE|DICT|INTERRES
     7    4    5 1    
     8    4   65 1    
     9    5    6 1    
    10    5   25 1    
    11    5   66 1    
    12    6    7 1    
    13    6   67 1    
    14    6   68 1    
    15    7    8 1    
    16    8    9 1    
    17    8   69 1    
    18    8   70 1    
    19    9   10 ar   
    20    9   14 ar   
    21   10   11 ar   
    22   10   71 1    
    23   11   12 ar   
    24   11   61 1    
    25   12   13 ar   
    26   12   72 1    
    27   13   14 ar   
    28   13   15 1    
    29   14   73 1    
    30   15   16 1    
    31   15   74 1    
    32   15   75 1    
    33   16   17 1    
    34   17   18 1    
    35   17   76 1    
    36   17   77 1    
    37   18   19 1    
    38   18   27 1    
    39   18   78 1    
    40   19   20 am   BACKBONE|DICT|INTERRES
    41   19   79 1    
    42   20   21 2    
    43   20   22 1    
    44   22   23 1    
    45   22   24 1    
    46   22   80 1    
    47   23   81 1    
    48   23   82 1    
    49   23   83 1    
    50   24   25 am   BACKBONE|DICT|INTERRES
    51   24   84 1    
    52   25   26 2    
    53   27   28 2    
    54   27   29 am   BACKBONE|DICT|INTERRES
    55   29   30 1    
    56   29   85 1    
    57   30   31 1    
    58   30   32 1    
    59   30   86 1    
    60   31   87 1    
    61   31   88 1    
    62   31   89 1    
    63   32   33 2    
    64   32   34 am   BACKBONE|DICT|INTERRES
    65   34   35 1    
    66   34   90 1    
    67   35   36 1    
    68   35   37 1    
    69   35   91 1    
    70   36   92 1    
    71   36   93 1    
    72   36   94 1    
    73   37   38 2    
    74   37   39 am   BACKBONE|DICT|INTERRES
    75   39   40 1    
    76   39   95 1    
    77   40   41 1    
    78   40   42 1    
    79   40   96 1    
    80   41   97 1    
    81   41   98 1    
    82   41   99 1    
    83   42   43 2    
    84   42   44 am   BACKBONE|DICT|INTERRES
    85   44   45 1    
    86   44  100 1    
    87   45   46 1    
    88   45   47 1    
    89   45  101 1    
    90   46  102 1    
    91   46  103 1    
    92   46  104 1    
    93   47   48 2    
    94   47   49 am   BACKBONE|DICT|INTERRES
    95   49   50 1    
    96   49  105 1    
    97   50   51 1    
    98   50   52 1    
    99   50  106 1    
   100   51  107 1    
   101   51  108 1    
   102   51  109 1    
   103   52   53 2    
   104   52   54 am   BACKBONE|DICT|INTERRES
   105   54   55 1    
   106   54  110 1    
   107   55   56 1    
   108   55   59 1    
   109   55  111 1    
   110   56   57 am   BACKBONE|DICT|INTERRES
   111   56   58 2    
   112   57  112 1    
   113   57  113 1    
   114   59   60 1    
   115   59  114 1    
   116   59  115 1    
   117   60   61 1    
   118   61  116 1    
   119   61  117 1    
@<TRIPOS>SUBSTRUCTURE
     1 UNK         1 GROUP             0       ****    0 ROOT    
