@<TRIPOS>MOLECULE
3R8
117   119    1
SMALL
USER_CHARGES


@<TRIPOS>ATOM
      1 CA         16.4274  -23.9836  -49.3620 C.3       0 UNK        -0.2013 
      2 C          17.5704  -24.6111  -48.5779 C.2       0 UNK         0.4866 
      3 O          18.7335  -24.4327  -48.9418 O.2       0 UNK        -0.5176 
      4 N          17.2495  -25.3525  -47.5107 N.am      1 UNK        -0.4884 
      5 CA         18.2181  -25.9928  -46.6158 C.3       1 UNK         0.0853 
      6 C6         17.5342  -26.9889  -45.6473 C.3       10 UNK        -0.0849 
      7 S7         16.6967  -28.3900  -46.4616 S.3       10 UNK        -0.2776 
      8 C8         17.6512  -29.8271  -45.8392 C.3       10 UNK         0.0316 
      9 C9         17.7228  -30.0006  -44.3154 C.ar      10 UNK        -0.0863 
     10 C10        18.6768  -30.8828  -43.7931 C.ar      10 UNK        -0.1009 
     11 C11        18.8065  -31.0678  -42.4126 C.ar      10 UNK        -0.0712 
     12 C12        17.9738  -30.3592  -41.5452 C.ar      10 UNK        -0.0894 
     13 C13        17.0452  -29.4426  -42.0443 C.ar      10 UNK        -0.0745 
     14 C14        16.8962  -29.2977  -43.4263 C.ar      10 UNK        -0.0972 
     15 C15        16.2593  -28.5560  -41.0884 C.3       10 UNK         0.0209 
     16 S16        17.3625  -27.5597  -40.0243 S.3       10 UNK        -0.2568 
     17 C17        18.2579  -26.4951  -41.2157 C.3       10 UNK        -0.0983 
     18 CA         19.5676  -27.1113  -41.7969 C.3       3 UNK         0.0876 
     19 N          20.0576  -26.3825  -42.9674 N.am      3 UNK        -0.4424 
     20 C          20.5803  -25.1469  -42.9960 C.2       2 UNK         0.4918 
     21 O          20.7290  -24.4378  -42.0006 O.2       2 UNK        -0.4875 
     22 CA         21.0043  -24.6130  -44.3803 C.3       2 UNK         0.0481 
     23 CB         22.5077  -24.8371  -44.6031 C.3       2 UNK        -0.1831 
     24 N          20.2509  -25.2501  -45.4678 N.am      2 UNK        -0.4498 
     25 C          18.9784  -24.9522  -45.7679 C.2       1 UNK         0.5027 
     26 O          18.3783  -23.9720  -45.3188 O.2       1 UNK        -0.4969 
     27 C          20.7203  -27.3670  -40.8034 C.2       3 UNK         0.5005 
     28 O          21.7911  -27.7978  -41.2397 O.2       3 UNK        -0.5279 
     29 N          20.5073  -27.1008  -39.5082 N.am      4 UNK        -0.4463 
     30 CA         21.4409  -27.3512  -38.4026 C.3       4 UNK         0.0283 
     31 CB         20.7641  -26.9568  -37.0802 C.3       4 UNK        -0.1875 
     32 C          22.8159  -26.6662  -38.5265 C.2       4 UNK         0.4949 
     33 O          23.7612  -27.1068  -37.8729 O.2       4 UNK        -0.5039 
     34 N          22.9190  -25.6275  -39.3684 N.am      5 UNK        -0.4663 
     35 CA         24.1799  -24.9729  -39.7261 C.3       5 UNK         0.0242 
     36 CB         23.8751  -23.6521  -40.4506 C.3       5 UNK        -0.1982 
     37 C          25.1077  -25.8573  -40.5828 C.2       5 UNK         0.5017 
     38 O          26.3178  -25.6281  -40.5709 O.2       5 UNK        -0.5012 
     39 N          24.5385  -26.8369  -41.2999 N.am      6 UNK        -0.4439 
     40 CA         25.2659  -27.8202  -42.1051 C.3       6 UNK         0.0297 
     41 CB         24.7444  -27.7886  -43.5506 C.3       6 UNK        -0.2006 
     42 C          25.1288  -29.2315  -41.5156 C.2       6 UNK         0.4892 
     43 O          26.1328  -29.9394  -41.4244 O.2       6 UNK        -0.5089 
     44 N          23.8999  -29.6047  -41.1240 N.am      7 UNK        -0.4243 
     45 CA         23.4880  -30.9142  -40.6076 C.3       7 UNK         0.0196 
     46 CB         24.0840  -31.1515  -39.2012 C.3       7 UNK        -0.2007 
     47 C          23.7606  -32.0525  -41.6171 C.2       7 UNK         0.5020 
     48 O          23.6095  -31.8402  -42.8215 O.2       7 UNK        -0.5147 
     49 N          24.1293  -33.2396  -41.1121 N.am      8 UNK        -0.4734 
     50 CA         24.5590  -34.4377  -41.8539 C.3       8 UNK         0.0238 
     51 CB         25.8663  -34.1550  -42.6263 C.3       8 UNK        -0.1912 
     52 C          23.4852  -35.0928  -42.7506 C.2       8 UNK         0.5038 
     53 O          23.8354  -35.9067  -43.6073 O.2       8 UNK        -0.5046 
     54 N          22.2058  -34.7647  -42.5302 N.am      9 UNK        -0.4200 
     55 CA         21.0503  -35.3669  -43.2190 C.3       9 UNK         0.0839 
     56 C          20.6212  -36.7618  -42.6746 C.2       9 UNK         0.5513 
     57 N          21.1808  -37.2517  -41.5744 N.am      9 UNK        -0.7519 
     58 O          19.7747  -37.4200  -43.2741 O.2       9 UNK        -0.4960 
     59 C59        19.8561  -34.3798  -43.3216 C.3       10 UNK        -0.0876 
     60 S60        19.3229  -33.7020  -41.7100 S.3       10 UNK        -0.2414 
     61 C61        19.8832  -31.9776  -41.8414 C.3       10 UNK         0.0169 
     62 H62        16.5262  -22.8984  -49.3651 H         1 UNK         0.0903 
     63 H63        16.4457  -24.3308  -50.3948 H         1 UNK         0.0903 
     64 H64        15.4554  -24.2343  -48.9374 H         1 UNK         0.0903 
     65 H65        16.2792  -25.4638  -47.2529 H         1 UNK         0.3096 
     66 H66        18.9376  -26.5362  -47.2328 H         1 UNK         0.1121 
     67 H67        16.7944  -26.4734  -45.0307 H         1 UNK         0.0849 
     68 H68        18.2693  -27.3908  -44.9500 H         1 UNK         0.0849 
     69 H69        17.2185  -30.7327  -46.2665 H         1 UNK         0.0865 
     70 H70        18.6639  -29.7556  -46.2395 H         1 UNK         0.0865 
     71 H71        19.3326  -31.4173  -44.4660 H         1 UNK         0.1346 
     72 H72        18.0880  -30.4748  -40.4757 H         1 UNK         0.1412 
     73 H73        16.1577  -28.6030  -43.7989 H         1 UNK         0.1426 
     74 H74        15.6297  -29.1845  -40.4572 H         1 UNK         0.0716 
     75 H75        15.5876  -27.8881  -41.6300 H         1 UNK         0.0716 
     76 H76        17.5714  -26.2662  -42.0326 H         1 UNK         0.0695 
     77 H77        18.4659  -25.5371  -40.7362 H         1 UNK         0.0695 
     78 H78        19.3285  -28.0977  -42.1856 H         1 UNK         0.0983 
     79 H79        20.0538  -26.9059  -43.8280 H         1 UNK         0.3095 
     80 H80        20.8148  -23.5376  -44.3963 H         1 UNK         0.0454 
     81 H81        22.7545  -25.8977  -44.6387 H         1 UNK         0.0851 
     82 H82        22.8413  -24.3841  -45.5367 H         1 UNK         0.0851 
     83 H83        23.0960  -24.3910  -43.8003 H         1 UNK         0.0851 
     84 H84        20.6893  -26.0415  -45.9179 H         1 UNK         0.2976 
     85 H85        19.5857  -26.7708  -39.2525 H         1 UNK         0.3116 
     86 H86        21.6276  -28.4270  -38.3816 H         1 UNK         0.0646 
     87 H87        21.4157  -27.1630  -36.2297 H         1 UNK         0.0847 
     88 H88        19.8428  -27.5176  -36.9210 H         1 UNK         0.0847 
     89 H89        20.5210  -25.8939  -37.0534 H         1 UNK         0.0847 
     90 H90        22.0910  -25.3279  -39.8658 H         1 UNK         0.3040 
     91 H91        24.7154  -24.7413  -38.8024 H         1 UNK         0.1015 
     92 H92        23.2732  -22.9878  -39.8301 H         1 UNK         0.0786 
     93 H93        23.3368  -23.8184  -41.3838 H         1 UNK         0.0786 
     94 H94        24.7952  -23.1198  -40.6958 H         1 UNK         0.0786 
     95 H95        23.5351  -26.9757  -41.2155 H         1 UNK         0.3172 
     96 H96        26.3310  -27.5805  -42.1314 H         1 UNK         0.0595 
     97 H97        24.9310  -26.8198  -44.0134 H         1 UNK         0.0839 
     98 H98        23.6733  -27.9892  -43.6004 H         1 UNK         0.0839 
     99 H99        25.2452  -28.5403  -44.1625 H         1 UNK         0.0839 
    100 H100       23.1344  -28.9473  -41.2655 H         1 UNK         0.2998 
    101 H101       22.4051  -30.8572  -40.4988 H         1 UNK         0.0822 
    102 H102       23.9026  -30.2945  -38.5517 H         1 UNK         0.0787 
    103 H103       23.6314  -32.0157  -38.7142 H         1 UNK         0.0787 
    104 H104       25.1623  -31.3127  -39.2373 H         1 UNK         0.0787 
    105 H105       24.1971  -33.3107  -40.1056 H         1 UNK         0.3055 
    106 H106       24.7913  -35.1877  -41.0959 H         1 UNK         0.1106 
    107 H107       26.2845  -35.0713  -43.0448 H         1 UNK         0.0828 
    108 H108       25.7050  -33.4649  -43.4550 H         1 UNK         0.0828 
    109 H109       26.6270  -33.7238  -41.9756 H         1 UNK         0.0828 
    110 H110       21.9923  -34.1023  -41.8003 H         1 UNK         0.2931 
    111 H111       21.3606  -35.5602  -44.2478 H         1 UNK         0.0412 
    112 H112       20.8971  -38.1590  -41.2383 H         1 UNK         0.3472 
    113 H113       21.8734  -36.7214  -41.0716 H         1 UNK         0.3472 
    114 H114       18.9969  -34.8566  -43.7972 H         1 UNK         0.0970 
    115 H115       20.1295  -33.5637  -43.9899 H         1 UNK         0.0970 
    116 H116       20.1605  -31.6349  -40.8437 H         1 UNK         0.0612 
    117 H117       20.7902  -31.9144  -42.4437 H         1 UNK         0.0612 
@<TRIPOS>BOND
     1    1    2 1    
     2    1   62 1    
     3    1   63 1    
     4    1   64 1    
     5    2    3 2    
     6    2    4 am   BACKBONE|DICT|INTERRES
     7    4    5 1    
     8    4   65 1    
     9    5    6 1    
    10    5   25 1    
    11    5   66 1    
    12    6    7 1    
    13    6   67 1    
    14    6   68 1    
    15    7    8 1    
    16    8    9 1    
    17    8   69 1    
    18    8   70 1    
    19    9   10 ar   
    20    9   14 ar   
    21   10   11 ar   
    22   10   71 1    
    23   11   12 ar   
    24   11   61 1    
    25   12   13 ar   
    26   12   72 1    
    27   13   14 ar   
    28   13   15 1    
    29   14   73 1    
    30   15   16 1    
    31   15   74 1    
    32   15   75 1    
    33   16   17 1    
    34   17   18 1    
    35   17   76 1    
    36   17   77 1    
    37   18   19 1    
    38   18   27 1    
    39   18   78 1    
    40   19   20 am   BACKBONE|DICT|INTERRES
    41   19   79 1    
    42   20   21 2    
    43   20   22 1    
    44   22   23 1    
    45   22   24 1    
    46   22   80 1    
    47   23   81 1    
    48   23   82 1    
    49   23   83 1    
    50   24   25 am   BACKBONE|DICT|INTERRES
    51   24   84 1    
    52   25   26 2    
    53   27   28 2    
    54   27   29 am   BACKBONE|DICT|INTERRES
    55   29   30 1    
    56   29   85 1    
    57   30   31 1    
    58   30   32 1    
    59   30   86 1    
    60   31   87 1    
    61   31   88 1    
    62   31   89 1    
    63   32   33 2    
    64   32   34 am   BACKBONE|DICT|INTERRES
    65   34   35 1    
    66   34   90 1    
    67   35   36 1    
    68   35   37 1    
    69   35   91 1    
    70   36   92 1    
    71   36   93 1    
    72   36   94 1    
    73   37   38 2    
    74   37   39 am   BACKBONE|DICT|INTERRES
    75   39   40 1    
    76   39   95 1    
    77   40   41 1    
    78   40   42 1    
    79   40   96 1    
    80   41   97 1    
    81   41   98 1    
    82   41   99 1    
    83   42   43 2    
    84   42   44 am   BACKBONE|DICT|INTERRES
    85   44   45 1    
    86   44  100 1    
    87   45   46 1    
    88   45   47 1    
    89   45  101 1    
    90   46  102 1    
    91   46  103 1    
    92   46  104 1    
    93   47   48 2    
    94   47   49 am   BACKBONE|DICT|INTERRES
    95   49   50 1    
    96   49  105 1    
    97   50   51 1    
    98   50   52 1    
    99   50  106 1    
   100   51  107 1    
   101   51  108 1    
   102   51  109 1    
   103   52   53 2    
   104   52   54 am   BACKBONE|DICT|INTERRES
   105   54   55 1    
   106   54  110 1    
   107   55   56 1    
   108   55   59 1    
   109   55  111 1    
   110   56   57 am   BACKBONE|DICT|INTERRES
   111   56   58 2    
   112   57  112 1    
   113   57  113 1    
   114   59   60 1    
   115   59  114 1    
   116   59  115 1    
   117   60   61 1    
   118   61  116 1    
   119   61  117 1    
@<TRIPOS>SUBSTRUCTURE
     1 UNK         1 GROUP             0       ****    0 ROOT    
