@<TRIPOS>MOLECULE
3R8
117   119    1
SMALL
USER_CHARGES


@<TRIPOS>ATOM
      1 CA         14.8225  -25.6798  -43.6588 C.3       0 UNK        -0.2013 
      2 C          15.8879  -24.8794  -44.3926 C.2       0 UNK         0.4866 
      3 O          16.1048  -23.7127  -44.0654 O.2       0 UNK        -0.5176 
      4 N          16.5440  -25.4864  -45.3922 N.am      1 UNK        -0.4884 
      5 CA         17.5583  -24.8376  -46.2330 C.3       1 UNK         0.0853 
      6 C6         17.7735  -25.5981  -47.5713 C.3       10 UNK        -0.0849 
      7 S7         18.7217  -27.1605  -47.4537 S.3       10 UNK        -0.2776 
      8 C8         17.4289  -28.4393  -47.3797 C.3       10 UNK         0.0316 
      9 C9         17.6586  -29.3457  -46.1804 C.ar      10 UNK        -0.0863 
     10 C10        18.5977  -30.3794  -46.2497 C.ar      10 UNK        -0.1009 
     11 C11        18.8328  -31.1964  -45.1402 C.ar      10 UNK        -0.0712 
     12 C12        18.1220  -30.9773  -43.9565 C.ar      10 UNK        -0.0894 
     13 C13        17.1981  -29.9334  -43.8687 C.ar      10 UNK        -0.0745 
     14 C14        16.9553  -29.1366  -44.9912 C.ar      10 UNK        -0.0972 
     15 C15        16.4702  -29.6483  -42.5634 C.3       10 UNK         0.0209 
     16 S16        16.9372  -28.0216  -41.8889 S.3       10 UNK        -0.2568 
     17 C17        18.4205  -28.3863  -40.8897 C.3       10 UNK        -0.0983 
     18 CA         19.7331  -28.5763  -41.7070 C.3       3 UNK         0.0876 
     19 N          19.9662  -27.5257  -42.7062 N.am      3 UNK        -0.4424 
     20 C          20.3007  -26.2485  -42.4707 C.2       2 UNK         0.4918 
     21 O          20.4921  -25.7745  -41.3503 O.2       2 UNK        -0.4875 
     22 CA         20.4333  -25.3456  -43.7003 C.3       2 UNK         0.0481 
     23 CB         21.6540  -25.7452  -44.5536 C.3       2 UNK        -0.1831 
     24 N          19.2034  -25.3941  -44.4882 N.am      2 UNK        -0.4498 
     25 C          18.8842  -24.5606  -45.4881 C.2       1 UNK         0.5027 
     26 O          19.5840  -23.6088  -45.8392 O.2       1 UNK        -0.4969 
     27 C          20.9833  -28.7813  -40.8219 C.2       3 UNK         0.5005 
     28 O          21.9581  -29.3800  -41.2801 O.2       3 UNK        -0.5279 
     29 N          20.9672  -28.2433  -39.5928 N.am      4 UNK        -0.4463 
     30 CA         22.0940  -28.2185  -38.6541 C.3       4 UNK         0.0283 
     31 CB         21.6443  -27.5798  -37.3315 C.3       4 UNK        -0.1875 
     32 C          23.3367  -27.4956  -39.2037 C.2       4 UNK         0.4949 
     33 O          24.4548  -27.9125  -38.9030 O.2       4 UNK        -0.5039 
     34 N          23.1286  -26.4683  -40.0416 N.am      5 UNK        -0.4663 
     35 CA         24.1975  -25.7445  -40.7393 C.3       5 UNK         0.0242 
     36 CB         23.6584  -24.3990  -41.2515 C.3       5 UNK        -0.1982 
     37 C          24.8464  -26.5545  -41.8795 C.2       5 UNK         0.5017 
     38 O          25.9325  -26.1865  -42.3260 O.2       5 UNK        -0.5012 
     39 N          24.2004  -27.6498  -42.3050 N.am      6 UNK        -0.4439 
     40 CA         24.7224  -28.6392  -43.2499 C.3       6 UNK         0.0297 
     41 CB         23.6673  -28.9008  -44.3397 C.3       6 UNK        -0.2006 
     42 C          25.1524  -29.9221  -42.5095 C.2       6 UNK         0.4892 
     43 O          25.0293  -31.0193  -43.0547 O.2       6 UNK        -0.5089 
     44 N          25.6550  -29.7532  -41.2758 N.am      7 UNK        -0.4243 
     45 CA         26.1724  -30.7813  -40.3652 C.3       7 UNK         0.0196 
     46 CB         27.4232  -31.4667  -40.9575 C.3       7 UNK        -0.2007 
     47 C          25.1067  -31.7854  -39.8836 C.2       7 UNK         0.5020 
     48 O          25.4467  -32.9315  -39.5859 O.2       7 UNK        -0.5147 
     49 N          23.8482  -31.3290  -39.7864 N.am      8 UNK        -0.4734 
     50 CA         22.6688  -32.0729  -39.3248 C.3       8 UNK         0.0238 
     51 CB         22.7937  -32.4413  -37.8305 C.3       8 UNK        -0.1912 
     52 C          22.3523  -33.2771  -40.2281 C.2       8 UNK         0.5038 
     53 O          22.2193  -34.4030  -39.7444 O.2       8 UNK        -0.5046 
     54 N          22.2423  -33.0027  -41.5333 N.am      9 UNK        -0.4200 
     55 CA         21.9004  -33.9737  -42.5849 C.3       9 UNK         0.0839 
     56 C          20.4766  -34.6003  -42.4915 C.2       9 UNK         0.5513 
     57 N          19.5554  -34.0576  -41.7037 N.am      9 UNK        -0.7519 
     58 O          20.2068  -35.6020  -43.1491 O.2       9 UNK        -0.4960 
     59 C59        22.1856  -33.3997  -43.9997 C.3       10 UNK        -0.0876 
     60 S60        21.3745  -31.7930  -44.3091 S.3       10 UNK        -0.2414 
     61 C61        19.8731  -32.3004  -45.1986 C.3       10 UNK         0.0169 
     62 H62        13.8464  -25.2149  -43.7947 H         1 UNK         0.0903 
     63 H63        14.7592  -26.7075  -44.0136 H         1 UNK         0.0903 
     64 H64        15.0403  -25.7027  -42.5915 H         1 UNK         0.0903 
     65 H65        16.3228  -26.4398  -45.6327 H         1 UNK         0.3096 
     66 H66        17.1598  -23.8544  -46.4960 H         1 UNK         0.1121 
     67 H67        18.3188  -24.9508  -48.2608 H         1 UNK         0.0849 
     68 H68        16.8158  -25.7823  -48.0604 H         1 UNK         0.0849 
     69 H69        16.4360  -27.9906  -47.3341 H         1 UNK         0.0865 
     70 H70        17.4535  -29.0257  -48.2996 H         1 UNK         0.0865 
     71 H71        19.1570  -30.5356  -47.1622 H         1 UNK         0.1346 
     72 H72        18.3150  -31.6038  -43.0961 H         1 UNK         0.1412 
     73 H73        16.2298  -28.3406  -44.9239 H         1 UNK         0.1426 
     74 H74        16.6569  -30.4270  -41.8223 H         1 UNK         0.0716 
     75 H75        15.3957  -29.6541  -42.7513 H         1 UNK         0.0716 
     76 H76        18.2211  -29.2674  -40.2769 H         1 UNK         0.0695 
     77 H77        18.5135  -27.5481  -40.1977 H         1 UNK         0.0695 
     78 H78        19.6358  -29.5025  -42.2714 H         1 UNK         0.0983 
     79 H79        19.8764  -27.8284  -43.6655 H         1 UNK         0.3095 
     80 H80        20.5745  -24.3233  -43.3435 H         1 UNK         0.0454 
     81 H81        21.8752  -24.9919  -45.3094 H         1 UNK         0.0851 
     82 H82        21.4907  -26.6910  -45.0706 H         1 UNK         0.0851 
     83 H83        22.5502  -25.8537  -43.9433 H         1 UNK         0.0851 
     84 H84        18.5340  -26.1080  -44.2347 H         1 UNK         0.2976 
     85 H85        20.1436  -27.7284  -39.3157 H         1 UNK         0.3116 
     86 H86        22.3791  -29.2502  -38.4469 H         1 UNK         0.0646 
     87 H87        20.8216  -28.1351  -36.8807 H         1 UNK         0.0847 
     88 H88        22.4598  -27.5694  -36.6068 H         1 UNK         0.0847 
     89 H89        21.3190  -26.5478  -37.4698 H         1 UNK         0.0847 
     90 H90        22.1741  -26.2004  -40.2634 H         1 UNK         0.3040 
     91 H91        24.9883  -25.5323  -40.0159 H         1 UNK         0.1015 
     92 H92        22.8583  -24.5284  -41.9782 H         1 UNK         0.0786 
     93 H93        24.4467  -23.8212  -41.7361 H         1 UNK         0.0786 
     94 H94        23.2705  -23.7915  -40.4336 H         1 UNK         0.0786 
     95 H95        23.3379  -27.9157  -41.8420 H         1 UNK         0.3172 
     96 H96        25.6179  -28.2581  -43.7443 H         1 UNK         0.0595 
     97 H97        22.7099  -29.1941  -43.9096 H         1 UNK         0.0839 
     98 H98        23.9793  -29.6947  -45.0194 H         1 UNK         0.0839 
     99 H99        23.5059  -28.0122  -44.9477 H         1 UNK         0.0839 
    100 H100       25.6727  -28.8113  -40.9081 H         1 UNK         0.2998 
    101 H101       26.4907  -30.2457  -39.4694 H         1 UNK         0.0822 
    102 H102       27.9026  -32.1121  -40.2204 H         1 UNK         0.0787 
    103 H103       27.1748  -32.0880  -41.8186 H         1 UNK         0.0787 
    104 H104       28.1654  -30.7341  -41.2743 H         1 UNK         0.0787 
    105 H105       23.6632  -30.3933  -40.1266 H         1 UNK         0.3055 
    106 H106       21.8154  -31.4008  -39.4186 H         1 UNK         0.1106 
    107 H107       21.8730  -32.8971  -37.4643 H         1 UNK         0.0828 
    108 H108       23.5994  -33.1538  -37.6511 H         1 UNK         0.0828 
    109 H109       22.9835  -31.5595  -37.2187 H         1 UNK         0.0828 
    110 H110       22.3779  -32.0506  -41.8464 H         1 UNK         0.2931 
    111 H111       22.5858  -34.8123  -42.4483 H         1 UNK         0.0412 
    112 H112       18.6429  -34.4817  -41.6483 H         1 UNK         0.3472 
    113 H113       19.7704  -33.2448  -41.1512 H         1 UNK         0.3472 
    114 H114       21.9170  -34.1128  -44.7816 H         1 UNK         0.0970 
    115 H115       23.2601  -33.2428  -44.1091 H         1 UNK         0.0970 
    116 H116       19.4562  -33.2064  -44.7592 H         1 UNK         0.0612 
    117 H117       20.1302  -32.5444  -46.2304 H         1 UNK         0.0612 
@<TRIPOS>BOND
     1    1    2 1    
     2    1   62 1    
     3    1   63 1    
     4    1   64 1    
     5    2    3 2    
     6    2    4 am   BACKBONE|DICT|INTERRES
     7    4    5 1    
     8    4   65 1    
     9    5    6 1    
    10    5   25 1    
    11    5   66 1    
    12    6    7 1    
    13    6   67 1    
    14    6   68 1    
    15    7    8 1    
    16    8    9 1    
    17    8   69 1    
    18    8   70 1    
    19    9   10 ar   
    20    9   14 ar   
    21   10   11 ar   
    22   10   71 1    
    23   11   12 ar   
    24   11   61 1    
    25   12   13 ar   
    26   12   72 1    
    27   13   14 ar   
    28   13   15 1    
    29   14   73 1    
    30   15   16 1    
    31   15   74 1    
    32   15   75 1    
    33   16   17 1    
    34   17   18 1    
    35   17   76 1    
    36   17   77 1    
    37   18   19 1    
    38   18   27 1    
    39   18   78 1    
    40   19   20 am   BACKBONE|DICT|INTERRES
    41   19   79 1    
    42   20   21 2    
    43   20   22 1    
    44   22   23 1    
    45   22   24 1    
    46   22   80 1    
    47   23   81 1    
    48   23   82 1    
    49   23   83 1    
    50   24   25 am   BACKBONE|DICT|INTERRES
    51   24   84 1    
    52   25   26 2    
    53   27   28 2    
    54   27   29 am   BACKBONE|DICT|INTERRES
    55   29   30 1    
    56   29   85 1    
    57   30   31 1    
    58   30   32 1    
    59   30   86 1    
    60   31   87 1    
    61   31   88 1    
    62   31   89 1    
    63   32   33 2    
    64   32   34 am   BACKBONE|DICT|INTERRES
    65   34   35 1    
    66   34   90 1    
    67   35   36 1    
    68   35   37 1    
    69   35   91 1    
    70   36   92 1    
    71   36   93 1    
    72   36   94 1    
    73   37   38 2    
    74   37   39 am   BACKBONE|DICT|INTERRES
    75   39   40 1    
    76   39   95 1    
    77   40   41 1    
    78   40   42 1    
    79   40   96 1    
    80   41   97 1    
    81   41   98 1    
    82   41   99 1    
    83   42   43 2    
    84   42   44 am   BACKBONE|DICT|INTERRES
    85   44   45 1    
    86   44  100 1    
    87   45   46 1    
    88   45   47 1    
    89   45  101 1    
    90   46  102 1    
    91   46  103 1    
    92   46  104 1    
    93   47   48 2    
    94   47   49 am   BACKBONE|DICT|INTERRES
    95   49   50 1    
    96   49  105 1    
    97   50   51 1    
    98   50   52 1    
    99   50  106 1    
   100   51  107 1    
   101   51  108 1    
   102   51  109 1    
   103   52   53 2    
   104   52   54 am   BACKBONE|DICT|INTERRES
   105   54   55 1    
   106   54  110 1    
   107   55   56 1    
   108   55   59 1    
   109   55  111 1    
   110   56   57 am   BACKBONE|DICT|INTERRES
   111   56   58 2    
   112   57  112 1    
   113   57  113 1    
   114   59   60 1    
   115   59  114 1    
   116   59  115 1    
   117   60   61 1    
   118   61  116 1    
   119   61  117 1    
@<TRIPOS>SUBSTRUCTURE
     1 UNK         1 GROUP             0       ****    0 ROOT    
