@<TRIPOS>MOLECULE
3R8
117   119    1
SMALL
USER_CHARGES


@<TRIPOS>ATOM
      1 CA         15.0139  -23.0184  -44.8593 C.3       0 UNK        -0.2013 
      2 C          16.0949  -24.0820  -44.9760 C.2       0 UNK         0.4866 
      3 O          16.9260  -24.0167  -45.8834 O.2       0 UNK        -0.5176 
      4 N          16.0983  -25.0623  -44.0637 N.am      1 UNK        -0.4884 
      5 CA         17.0566  -26.1728  -44.0148 C.3       1 UNK         0.0853 
      6 C6         16.4810  -27.4025  -43.2689 C.3       10 UNK        -0.0849 
      7 S7         15.1003  -28.1519  -44.1945 S.3       10 UNK        -0.2776 
      8 C8         15.2582  -29.9094  -43.7210 C.3       10 UNK         0.0316 
      9 C9         16.3931  -30.7063  -44.3737 C.ar      10 UNK        -0.0863 
     10 C10        16.4874  -32.0646  -44.0546 C.ar      10 UNK        -0.1009 
     11 C11        17.4885  -32.8663  -44.6056 C.ar      10 UNK        -0.0712 
     12 C12        18.4163  -32.2978  -45.4813 C.ar      10 UNK        -0.0894 
     13 C13        18.3454  -30.9428  -45.8173 C.ar      10 UNK        -0.0745 
     14 C14        17.3236  -30.1553  -45.2696 C.ar      10 UNK        -0.0972 
     15 C15        19.3486  -30.3694  -46.8172 C.3       10 UNK         0.0209 
     16 S16        20.0711  -28.7672  -46.3301 S.3       10 UNK        -0.2568 
     17 C17        20.9222  -29.1890  -44.7695 C.3       10 UNK        -0.0983 
     18 CA         21.8297  -28.0513  -44.2223 C.3       3 UNK         0.0876 
     19 N          21.1589  -26.7517  -44.3267 N.am      3 UNK        -0.4424 
     20 C          21.5327  -25.5615  -43.8387 C.2       2 UNK         0.4918 
     21 O          22.6064  -25.3553  -43.2768 O.2       2 UNK        -0.4875 
     22 CA         20.4985  -24.4218  -43.9399 C.3       2 UNK         0.0481 
     23 CB         20.9115  -23.4190  -45.0278 C.3       2 UNK        -0.1831 
     24 N          19.1268  -24.8815  -44.2018 N.am      2 UNK        -0.4498 
     25 C          18.4079  -25.7119  -43.4311 C.2       1 UNK         0.5027 
     26 O          18.7969  -26.1372  -42.3405 O.2       1 UNK        -0.4969 
     27 C          22.2782  -28.3863  -42.7809 C.2       3 UNK         0.5005 
     28 O          23.3307  -28.9978  -42.5915 O.2       3 UNK        -0.5279 
     29 N          21.4972  -27.9405  -41.7841 N.am      4 UNK        -0.4463 
     30 CA         21.7949  -28.0691  -40.3559 C.3       4 UNK         0.0283 
     31 CB         20.6052  -27.5361  -39.5438 C.3       4 UNK        -0.1875 
     32 C          23.1021  -27.3802  -39.9188 C.2       4 UNK         0.4949 
     33 O          23.7303  -27.8459  -38.9687 O.2       4 UNK        -0.5039 
     34 N          23.5279  -26.3246  -40.6315 N.am      5 UNK        -0.4663 
     35 CA         24.8058  -25.6393  -40.3998 C.3       5 UNK         0.0242 
     36 CB         24.8020  -24.2774  -41.1123 C.3       5 UNK        -0.1982 
     37 C          26.0254  -26.4734  -40.8343 C.2       5 UNK         0.5017 
     38 O          27.1238  -26.2309  -40.3344 O.2       5 UNK        -0.5012 
     39 N          25.8107  -27.4561  -41.7214 N.am      6 UNK        -0.4439 
     40 CA         26.7978  -28.4609  -42.1243 C.3       6 UNK         0.0297 
     41 CB         26.6006  -28.7849  -43.6164 C.3       6 UNK        -0.2006 
     42 C          26.7130  -29.7351  -41.2579 C.2       6 UNK         0.4892 
     43 O          27.3606  -30.7271  -41.5941 O.2       6 UNK        -0.5089 
     44 N          25.9176  -29.6936  -40.1756 N.am      7 UNK        -0.4243 
     45 CA         25.6271  -30.7740  -39.2262 C.3       7 UNK         0.0196 
     46 CB         26.9046  -31.2403  -38.4946 C.3       7 UNK        -0.2007 
     47 C          24.8229  -31.9381  -39.8377 C.2       7 UNK         0.5020 
     48 O          24.8755  -33.0522  -39.3130 O.2       7 UNK        -0.5147 
     49 N          24.0738  -31.6667  -40.9152 N.am      8 UNK        -0.4734 
     50 CA         23.1268  -32.6054  -41.5183 C.3       8 UNK         0.0238 
     51 CB         23.0669  -32.3445  -43.0356 C.3       8 UNK        -0.1912 
     52 C          21.7404  -32.4843  -40.8560 C.2       8 UNK         0.5038 
     53 O          21.5755  -31.7651  -39.8678 O.2       8 UNK        -0.5046 
     54 N          20.7611  -33.1917  -41.4267 N.am      9 UNK        -0.4200 
     55 CA         19.3416  -33.1874  -41.0368 C.3       9 UNK         0.0839 
     56 C          18.5752  -31.8476  -41.2511 C.2       9 UNK         0.5513 
     57 N          19.1557  -30.8364  -41.8829 N.am      9 UNK        -0.7519 
     58 O          17.4359  -31.7194  -40.8101 O.2       9 UNK        -0.4960 
     59 C59        18.5852  -34.4101  -41.6339 C.3       10 UNK        -0.0876 
     60 S60        19.0315  -34.8200  -43.3623 S.3       10 UNK        -0.2414 
     61 C61        17.5409  -34.3554  -44.2954 C.3       10 UNK         0.0169 
     62 H62        14.4127  -22.9944  -45.7678 H         1 UNK         0.0903 
     63 H63        14.3479  -23.2039  -44.0168 H         1 UNK         0.0903 
     64 H64        15.4670  -22.0366  -44.7243 H         1 UNK         0.0903 
     65 H65        15.3982  -25.0622  -43.3351 H         1 UNK         0.3096 
     66 H66        17.2641  -26.4906  -45.0399 H         1 UNK         0.1121 
     67 H67        16.1383  -27.1309  -42.2687 H         1 UNK         0.0849 
     68 H68        17.2534  -28.1615  -43.1302 H         1 UNK         0.0849 
     69 H69        15.3609  -29.9714  -42.6361 H         1 UNK         0.0865 
     70 H70        14.3146  -30.3999  -43.9646 H         1 UNK         0.0865 
     71 H71        15.7716  -32.5024  -43.3719 H         1 UNK         0.1346 
     72 H72        19.1868  -32.9221  -45.9128 H         1 UNK         0.1412 
     73 H73        17.2635  -29.1148  -45.5518 H         1 UNK         0.1426 
     74 H74        20.1652  -31.0722  -46.9904 H         1 UNK         0.0716 
     75 H75        18.8448  -30.2442  -47.7763 H         1 UNK         0.0716 
     76 H76        21.5073  -30.0960  -44.9288 H         1 UNK         0.0695 
     77 H77        20.1446  -29.4432  -44.0481 H         1 UNK         0.0695 
     78 H78        22.7292  -27.9937  -44.8381 H         1 UNK         0.0983 
     79 H79        20.2766  -26.7861  -44.8150 H         1 UNK         0.3095 
     80 H80        20.4935  -23.9042  -42.9787 H         1 UNK         0.0454 
     81 H81        20.9141  -23.8759  -46.0181 H         1 UNK         0.0851 
     82 H82        20.2382  -22.5621  -45.0547 H         1 UNK         0.0851 
     83 H83        21.9156  -23.0338  -44.8436 H         1 UNK         0.0851 
     84 H84        18.6804  -24.5391  -45.0480 H         1 UNK         0.2976 
     85 H85        20.6582  -27.4252  -42.0236 H         1 UNK         0.3116 
     86 H86        21.9048  -29.1331  -40.1404 H         1 UNK         0.0646 
     87 H87        19.6936  -28.0907  -39.7678 H         1 UNK         0.0847 
     88 H88        20.7875  -27.6341  -38.4728 H         1 UNK         0.0847 
     89 H89        20.4156  -26.4817  -39.7497 H         1 UNK         0.0847 
     90 H90        22.9905  -26.0156  -41.4362 H         1 UNK         0.3040 
     91 H91        24.9017  -25.4587  -39.3266 H         1 UNK         0.1015 
     92 H92        24.7935  -24.3877  -42.1970 H         1 UNK         0.0786 
     93 H93        25.6925  -23.7027  -40.8542 H         1 UNK         0.0786 
     94 H94        23.9363  -23.6793  -40.8273 H         1 UNK         0.0786 
     95 H95        24.8647  -27.6128  -42.0521 H         1 UNK         0.3172 
     96 H96        27.8040  -28.0552  -42.0015 H         1 UNK         0.0595 
     97 H97        25.6461  -29.2774  -43.8031 H         1 UNK         0.0839 
     98 H98        27.3839  -29.4524  -43.9779 H         1 UNK         0.0839 
     99 H99        26.6394  -27.8835  -44.2279 H         1 UNK         0.0839 
    100 H100       25.4169  -28.8322  -39.9939 H         1 UNK         0.2998 
    101 H101       24.9696  -30.3329  -38.4754 H         1 UNK         0.0822 
    102 H102       26.6601  -31.9139  -37.6723 H         1 UNK         0.0787 
    103 H103       27.5815  -31.7766  -39.1601 H         1 UNK         0.0787 
    104 H104       27.4486  -30.3972  -38.0688 H         1 UNK         0.0787 
    105 H105       24.0520  -30.7187  -41.2718 H         1 UNK         0.3055 
    106 H106       23.4792  -33.6276  -41.3620 H         1 UNK         0.1106 
    107 H107       24.0657  -32.3000  -43.4705 H         1 UNK         0.0828 
    108 H108       22.5298  -33.1371  -43.5575 H         1 UNK         0.0828 
    109 H109       22.5640  -31.4069  -43.2640 H         1 UNK         0.0828 
    110 H110       20.9679  -33.7487  -42.2432 H         1 UNK         0.2931 
    111 H111       19.3332  -33.3235  -39.9535 H         1 UNK         0.0412 
    112 H112       18.6397  -29.9826  -42.0086 H         1 UNK         0.3472 
    113 H113       20.0939  -30.9299  -42.2295 H         1 UNK         0.3472 
    114 H114       18.8285  -35.2905  -41.0374 H         1 UNK         0.0970 
    115 H115       17.5032  -34.3011  -41.5388 H         1 UNK         0.0970 
    116 H116       17.5397  -34.9059  -45.2372 H         1 UNK         0.0612 
    117 H117       16.6509  -34.6811  -43.7549 H         1 UNK         0.0612 
@<TRIPOS>BOND
     1    1    2 1    
     2    1   62 1    
     3    1   63 1    
     4    1   64 1    
     5    2    3 2    
     6    2    4 am   BACKBONE|DICT|INTERRES
     7    4    5 1    
     8    4   65 1    
     9    5    6 1    
    10    5   25 1    
    11    5   66 1    
    12    6    7 1    
    13    6   67 1    
    14    6   68 1    
    15    7    8 1    
    16    8    9 1    
    17    8   69 1    
    18    8   70 1    
    19    9   10 ar   
    20    9   14 ar   
    21   10   11 ar   
    22   10   71 1    
    23   11   12 ar   
    24   11   61 1    
    25   12   13 ar   
    26   12   72 1    
    27   13   14 ar   
    28   13   15 1    
    29   14   73 1    
    30   15   16 1    
    31   15   74 1    
    32   15   75 1    
    33   16   17 1    
    34   17   18 1    
    35   17   76 1    
    36   17   77 1    
    37   18   19 1    
    38   18   27 1    
    39   18   78 1    
    40   19   20 am   BACKBONE|DICT|INTERRES
    41   19   79 1    
    42   20   21 2    
    43   20   22 1    
    44   22   23 1    
    45   22   24 1    
    46   22   80 1    
    47   23   81 1    
    48   23   82 1    
    49   23   83 1    
    50   24   25 am   BACKBONE|DICT|INTERRES
    51   24   84 1    
    52   25   26 2    
    53   27   28 2    
    54   27   29 am   BACKBONE|DICT|INTERRES
    55   29   30 1    
    56   29   85 1    
    57   30   31 1    
    58   30   32 1    
    59   30   86 1    
    60   31   87 1    
    61   31   88 1    
    62   31   89 1    
    63   32   33 2    
    64   32   34 am   BACKBONE|DICT|INTERRES
    65   34   35 1    
    66   34   90 1    
    67   35   36 1    
    68   35   37 1    
    69   35   91 1    
    70   36   92 1    
    71   36   93 1    
    72   36   94 1    
    73   37   38 2    
    74   37   39 am   BACKBONE|DICT|INTERRES
    75   39   40 1    
    76   39   95 1    
    77   40   41 1    
    78   40   42 1    
    79   40   96 1    
    80   41   97 1    
    81   41   98 1    
    82   41   99 1    
    83   42   43 2    
    84   42   44 am   BACKBONE|DICT|INTERRES
    85   44   45 1    
    86   44  100 1    
    87   45   46 1    
    88   45   47 1    
    89   45  101 1    
    90   46  102 1    
    91   46  103 1    
    92   46  104 1    
    93   47   48 2    
    94   47   49 am   BACKBONE|DICT|INTERRES
    95   49   50 1    
    96   49  105 1    
    97   50   51 1    
    98   50   52 1    
    99   50  106 1    
   100   51  107 1    
   101   51  108 1    
   102   51  109 1    
   103   52   53 2    
   104   52   54 am   BACKBONE|DICT|INTERRES
   105   54   55 1    
   106   54  110 1    
   107   55   56 1    
   108   55   59 1    
   109   55  111 1    
   110   56   57 am   BACKBONE|DICT|INTERRES
   111   56   58 2    
   112   57  112 1    
   113   57  113 1    
   114   59   60 1    
   115   59  114 1    
   116   59  115 1    
   117   60   61 1    
   118   61  116 1    
   119   61  117 1    
@<TRIPOS>SUBSTRUCTURE
     1 UNK         1 GROUP             0       ****    0 ROOT    
