@<TRIPOS>MOLECULE
3R8
117   119    1
SMALL
USER_CHARGES


@<TRIPOS>ATOM
      1 CA         21.0611  -30.5650  -48.5218 C.3       0 UNK        -0.2013 
      2 C          20.1627  -29.4628  -47.9811 C.2       0 UNK         0.4866 
      3 O          20.0290  -28.4182  -48.6185 O.2       0 UNK        -0.5176 
      4 N          19.5567  -29.6914  -46.8082 N.am      1 UNK        -0.4884 
      5 CA         18.6214  -28.7966  -46.1078 C.3       1 UNK         0.0853 
      6 C6         17.2697  -28.6070  -46.8507 C.3       10 UNK        -0.0849 
      7 S7         16.3976  -30.1971  -47.0731 S.3       10 UNK        -0.2776 
      8 C8         15.1661  -30.1508  -45.7281 C.3       10 UNK         0.0316 
      9 C9         15.8061  -29.9799  -44.3558 C.ar      10 UNK        -0.0863 
     10 C10        16.5525  -31.0163  -43.7872 C.ar      10 UNK        -0.1009 
     11 C11        17.1467  -30.8601  -42.5305 C.ar      10 UNK        -0.0712 
     12 C12        16.9842  -29.6535  -41.8394 C.ar      10 UNK        -0.0894 
     13 C13        16.2421  -28.6088  -42.3982 C.ar      10 UNK        -0.0745 
     14 C14        15.6501  -28.7821  -43.6528 C.ar      10 UNK        -0.0972 
     15 C15        16.0571  -27.2990  -41.6450 C.3       10 UNK         0.0209 
     16 S16        16.8305  -25.9111  -42.5350 S.3       10 UNK        -0.2568 
     17 C17        18.0542  -25.2888  -41.3341 C.3       10 UNK        -0.0983 
     18 CA         19.4506  -25.9497  -41.4612 C.3       3 UNK         0.0876 
     19 N          19.9432  -25.9446  -42.8444 N.am      3 UNK        -0.4424 
     20 C          21.1404  -26.3705  -43.2669 C.2       2 UNK         0.4918 
     21 O          22.0297  -26.7809  -42.5217 O.2       2 UNK        -0.4875 
     22 CA         21.3472  -26.4042  -44.7904 C.3       2 UNK         0.0481 
     23 CB         22.8274  -26.5713  -45.1810 C.3       2 UNK        -0.1831 
     24 N          20.5768  -27.5073  -45.3640 N.am      2 UNK        -0.4498 
     25 C          19.2708  -27.4660  -45.6645 C.2       1 UNK         0.5027 
     26 O          18.5925  -26.4414  -45.5708 O.2       1 UNK        -0.4969 
     27 C          20.4343  -25.2748  -40.4818 C.2       3 UNK         0.5005 
     28 O          20.9239  -24.1802  -40.7727 O.2       3 UNK        -0.5279 
     29 N          20.7123  -25.9439  -39.3540 N.am      4 UNK        -0.4463 
     30 CA         21.6222  -25.5662  -38.2603 C.3       4 UNK         0.0283 
     31 CB         21.2242  -24.2213  -37.6205 C.3       4 UNK        -0.1875 
     32 C          23.1203  -25.5882  -38.6220 C.2       4 UNK         0.4949 
     33 O          23.9277  -25.9546  -37.7677 O.2       4 UNK        -0.5039 
     34 N          23.4753  -25.2197  -39.8602 N.am      5 UNK        -0.4663 
     35 CA         24.8304  -25.3201  -40.4108 C.3       5 UNK         0.0242 
     36 CB         24.9007  -24.5615  -41.7461 C.3       5 UNK        -0.1982 
     37 C          25.2676  -26.7844  -40.5829 C.2       5 UNK         0.5017 
     38 O          26.3817  -27.1388  -40.1959 O.2       5 UNK        -0.5012 
     39 N          24.3588  -27.6029  -41.1218 N.am      6 UNK        -0.4439 
     40 CA         24.4228  -29.0584  -41.1486 C.3       6 UNK         0.0297 
     41 CB         24.0547  -29.5218  -42.5674 C.3       6 UNK        -0.2006 
     42 C          23.4217  -29.5759  -40.0941 C.2       6 UNK         0.4892 
     43 O          22.3307  -29.0097  -40.0101 O.2       6 UNK        -0.5089 
     44 N          23.7077  -30.6027  -39.2746 N.am      7 UNK        -0.4243 
     45 CA         24.8569  -31.5152  -39.1876 C.3       7 UNK         0.0196 
     46 CB         26.1503  -30.8058  -38.7263 C.3       7 UNK        -0.2007 
     47 C          25.0064  -32.3490  -40.4687 C.2       7 UNK         0.5020 
     48 O          25.8577  -32.0501  -41.3054 O.2       7 UNK        -0.5147 
     49 N          24.1234  -33.3507  -40.5987 N.am      8 UNK        -0.4734 
     50 CA         23.8865  -34.1922  -41.7813 C.3       8 UNK         0.0238 
     51 CB         25.1601  -34.9443  -42.2280 C.3       8 UNK        -0.1912 
     52 C          23.2098  -33.3968  -42.9139 C.2       8 UNK         0.5038 
     53 O          23.6552  -33.4411  -44.0617 O.2       8 UNK        -0.5046 
     54 N          22.1410  -32.6734  -42.5521 N.am      9 UNK        -0.4200 
     55 CA         21.2920  -31.8788  -43.4545 C.3       9 UNK         0.0839 
     56 C          20.4372  -32.6954  -44.4658 C.2       9 UNK         0.5513 
     57 N          20.2905  -34.0060  -44.3171 N.am      9 UNK        -0.7519 
     58 O          19.9031  -32.1196  -45.4093 O.2       9 UNK        -0.4960 
     59 C59        20.4253  -30.8482  -42.6770 C.3       10 UNK        -0.0876 
     60 S60        19.5485  -31.5319  -41.2257 S.3       10 UNK        -0.2414 
     61 C61        17.9317  -32.0156  -41.9185 C.3       10 UNK         0.0169 
     62 H62        22.0807  -30.1975  -48.6341 H         1 UNK         0.0903 
     63 H63        21.0837  -31.4330  -47.8628 H         1 UNK         0.0903 
     64 H64        20.7062  -30.8918  -49.4988 H         1 UNK         0.0903 
     65 H65        19.6914  -30.5962  -46.3562 H         1 UNK         0.3096 
     66 H66        18.3972  -29.3001  -45.1675 H         1 UNK         0.1121 
     67 H67        17.4297  -28.1543  -47.8303 H         1 UNK         0.0849 
     68 H68        16.6137  -27.9228  -46.3098 H         1 UNK         0.0849 
     69 H69        14.4523  -29.3497  -45.9266 H         1 UNK         0.0865 
     70 H70        14.5917  -31.0781  -45.7430 H         1 UNK         0.0865 
     71 H71        16.6733  -31.9439  -44.3307 H         1 UNK         0.1346 
     72 H72        17.4346  -29.5320  -40.8638 H         1 UNK         0.1412 
     73 H73        15.0746  -27.9739  -44.0838 H         1 UNK         0.1426 
     74 H74        16.4573  -27.3762  -40.6333 H         1 UNK         0.0716 
     75 H75        14.9907  -27.0969  -41.5361 H         1 UNK         0.0716 
     76 H76        17.6597  -25.4067  -40.3231 H         1 UNK         0.0695 
     77 H77        18.1334  -24.2118  -41.4971 H         1 UNK         0.0695 
     78 H78        19.3552  -27.0011  -41.1814 H         1 UNK         0.0983 
     79 H79        19.2629  -25.6776  -43.5452 H         1 UNK         0.3095 
     80 H80        20.9973  -25.4556  -45.2030 H         1 UNK         0.0454 
     81 H81        23.2442  -27.5101  -44.8154 H         1 UNK         0.0851 
     82 H82        23.4324  -25.7639  -44.7671 H         1 UNK         0.0851 
     83 H83        22.9555  -26.5481  -46.2632 H         1 UNK         0.0851 
     84 H84        21.0579  -28.3880  -45.4729 H         1 UNK         0.2976 
     85 H85        20.3077  -26.8652  -39.2506 H         1 UNK         0.3116 
     86 H86        21.4841  -26.3366  -37.4997 H         1 UNK         0.0646 
     87 H87        21.3701  -23.3830  -38.3021 H         1 UNK         0.0847 
     88 H88        20.1803  -24.2228  -37.3075 H         1 UNK         0.0847 
     89 H89        21.8277  -24.0215  -36.7341 H         1 UNK         0.0847 
     90 H90        22.7378  -24.8980  -40.4800 H         1 UNK         0.3040 
     91 H91        25.5198  -24.8467  -39.7081 H         1 UNK         0.1015 
     92 H92        25.9015  -24.6207  -42.1761 H         1 UNK         0.0786 
     93 H93        24.6665  -23.5050  -41.6136 H         1 UNK         0.0786 
     94 H94        24.2045  -24.9685  -42.4800 H         1 UNK         0.0786 
     95 H95        23.4583  -27.2151  -41.3989 H         1 UNK         0.3172 
     96 H96        25.4334  -29.3889  -40.9384 H         1 UNK         0.0595 
     97 H97        23.0659  -29.1791  -42.8657 H         1 UNK         0.0839 
     98 H98        24.0658  -30.6061  -42.6475 H         1 UNK         0.0839 
     99 H99        24.7681  -29.1419  -43.2986 H         1 UNK         0.0839 
    100 H100       22.9719  -30.8359  -38.6230 H         1 UNK         0.2998 
    101 H101       24.6015  -32.2135  -38.3884 H         1 UNK         0.0822 
    102 H102       26.8535  -31.5382  -38.3284 H         1 UNK         0.0787 
    103 H103       26.6809  -30.2829  -39.5191 H         1 UNK         0.0787 
    104 H104       25.9504  -30.0898  -37.9290 H         1 UNK         0.0787 
    105 H105       23.4800  -33.5027  -39.8332 H         1 UNK         0.3055 
    106 H106       23.1629  -34.9505  -41.4767 H         1 UNK         0.1106 
    107 H107       25.6131  -35.4873  -41.3988 H         1 UNK         0.0828 
    108 H108       24.9252  -35.6745  -43.0034 H         1 UNK         0.0828 
    109 H109       25.9124  -34.2723  -42.6413 H         1 UNK         0.0828 
    110 H110       21.8356  -32.6981  -41.5904 H         1 UNK         0.2931 
    111 H111       21.9744  -31.2981  -44.0782 H         1 UNK         0.0412 
    112 H112       19.7385  -34.5171  -44.9876 H         1 UNK         0.3472 
    113 H113       20.7208  -34.4882  -43.5454 H         1 UNK         0.3472 
    114 H114       21.0671  -30.0561  -42.2934 H         1 UNK         0.0970 
    115 H115       19.7222  -30.3368  -43.3357 H         1 UNK         0.0970 
    116 H116       18.0888  -32.8083  -42.6508 H         1 UNK         0.0612 
    117 H117       17.3324  -32.4540  -41.1198 H         1 UNK         0.0612 
@<TRIPOS>BOND
     1    1    2 1    
     2    1   62 1    
     3    1   63 1    
     4    1   64 1    
     5    2    3 2    
     6    2    4 am   BACKBONE|DICT|INTERRES
     7    4    5 1    
     8    4   65 1    
     9    5    6 1    
    10    5   25 1    
    11    5   66 1    
    12    6    7 1    
    13    6   67 1    
    14    6   68 1    
    15    7    8 1    
    16    8    9 1    
    17    8   69 1    
    18    8   70 1    
    19    9   10 ar   
    20    9   14 ar   
    21   10   11 ar   
    22   10   71 1    
    23   11   12 ar   
    24   11   61 1    
    25   12   13 ar   
    26   12   72 1    
    27   13   14 ar   
    28   13   15 1    
    29   14   73 1    
    30   15   16 1    
    31   15   74 1    
    32   15   75 1    
    33   16   17 1    
    34   17   18 1    
    35   17   76 1    
    36   17   77 1    
    37   18   19 1    
    38   18   27 1    
    39   18   78 1    
    40   19   20 am   BACKBONE|DICT|INTERRES
    41   19   79 1    
    42   20   21 2    
    43   20   22 1    
    44   22   23 1    
    45   22   24 1    
    46   22   80 1    
    47   23   81 1    
    48   23   82 1    
    49   23   83 1    
    50   24   25 am   BACKBONE|DICT|INTERRES
    51   24   84 1    
    52   25   26 2    
    53   27   28 2    
    54   27   29 am   BACKBONE|DICT|INTERRES
    55   29   30 1    
    56   29   85 1    
    57   30   31 1    
    58   30   32 1    
    59   30   86 1    
    60   31   87 1    
    61   31   88 1    
    62   31   89 1    
    63   32   33 2    
    64   32   34 am   BACKBONE|DICT|INTERRES
    65   34   35 1    
    66   34   90 1    
    67   35   36 1    
    68   35   37 1    
    69   35   91 1    
    70   36   92 1    
    71   36   93 1    
    72   36   94 1    
    73   37   38 2    
    74   37   39 am   BACKBONE|DICT|INTERRES
    75   39   40 1    
    76   39   95 1    
    77   40   41 1    
    78   40   42 1    
    79   40   96 1    
    80   41   97 1    
    81   41   98 1    
    82   41   99 1    
    83   42   43 2    
    84   42   44 am   BACKBONE|DICT|INTERRES
    85   44   45 1    
    86   44  100 1    
    87   45   46 1    
    88   45   47 1    
    89   45  101 1    
    90   46  102 1    
    91   46  103 1    
    92   46  104 1    
    93   47   48 2    
    94   47   49 am   BACKBONE|DICT|INTERRES
    95   49   50 1    
    96   49  105 1    
    97   50   51 1    
    98   50   52 1    
    99   50  106 1    
   100   51  107 1    
   101   51  108 1    
   102   51  109 1    
   103   52   53 2    
   104   52   54 am   BACKBONE|DICT|INTERRES
   105   54   55 1    
   106   54  110 1    
   107   55   56 1    
   108   55   59 1    
   109   55  111 1    
   110   56   57 am   BACKBONE|DICT|INTERRES
   111   56   58 2    
   112   57  112 1    
   113   57  113 1    
   114   59   60 1    
   115   59  114 1    
   116   59  115 1    
   117   60   61 1    
   118   61  116 1    
   119   61  117 1    
@<TRIPOS>SUBSTRUCTURE
     1 UNK         1 GROUP             0       ****    0 ROOT    
