@<TRIPOS>MOLECULE
3R8
117   119    1
SMALL
USER_CHARGES


@<TRIPOS>ATOM
      1 CA         15.1266  -23.1522  -45.2087 C.3       0 UNK        -0.2013 
      2 C          16.1748  -24.2463  -45.0758 C.2       0 UNK         0.4866 
      3 O          16.0436  -25.1178  -44.2167 O.2       0 UNK        -0.5176 
      4 N          17.2274  -24.1965  -45.9041 N.am      1 UNK        -0.4884 
      5 CA         18.3487  -25.1479  -46.0082 C.3       1 UNK         0.0853 
      6 C6         17.8868  -26.5975  -46.3210 C.3       10 UNK        -0.0849 
      7 S7         19.0589  -27.4838  -47.4026 S.3       10 UNK        -0.2776 
      8 C8         18.3975  -29.1791  -47.3425 C.3       10 UNK         0.0316 
      9 C9         18.7110  -29.8548  -46.0164 C.ar      10 UNK        -0.0863 
     10 C10        19.9626  -30.4399  -45.8056 C.ar      10 UNK        -0.1009 
     11 C11        20.2644  -31.0476  -44.5839 C.ar      10 UNK        -0.0712 
     12 C12        19.3092  -31.0571  -43.5631 C.ar      10 UNK        -0.0894 
     13 C13        18.0505  -30.4869  -43.7684 C.ar      10 UNK        -0.0745 
     14 C14        17.7540  -29.8948  -44.9990 C.ar      10 UNK        -0.0972 
     15 C15        17.0025  -30.5072  -42.6690 C.3       10 UNK         0.0209 
     16 S16        16.9272  -28.9100  -41.8027 S.3       10 UNK        -0.2568 
     17 C17        18.2323  -29.0866  -40.5365 C.3       10 UNK        -0.0983 
     18 CA         19.5553  -28.3262  -40.8407 C.3       3 UNK         0.0876 
     19 N          19.2938  -26.9549  -41.3119 N.am      3 UNK        -0.4424 
     20 C          20.1429  -26.0995  -41.8974 C.2       2 UNK         0.4918 
     21 O          21.3425  -26.3269  -42.0793 O.2       2 UNK        -0.4875 
     22 CA         19.5328  -24.7537  -42.3210 C.3       2 UNK         0.0481 
     23 CB         20.5645  -23.6068  -42.3293 C.3       2 UNK        -0.1831 
     24 N          18.8316  -24.8582  -43.6040 N.am      2 UNK        -0.4498 
     25 C          19.3422  -25.0971  -44.8217 C.2       1 UNK         0.5027 
     26 O          20.5441  -25.2326  -45.0487 O.2       1 UNK        -0.4969 
     27 C          20.5274  -28.4022  -39.6298 C.2       3 UNK         0.5005 
     28 O          20.2834  -29.1516  -38.6810 O.2       3 UNK        -0.5279 
     29 N          21.6061  -27.6181  -39.6728 N.am      4 UNK        -0.4463 
     30 CA         22.6953  -27.5625  -38.7051 C.3       4 UNK         0.0283 
     31 CB         22.3052  -26.7209  -37.4768 C.3       4 UNK        -0.1875 
     32 C          23.9417  -27.0085  -39.4003 C.2       4 UNK         0.4949 
     33 O          24.9983  -27.6342  -39.3345 O.2       4 UNK        -0.5039 
     34 N          23.7879  -25.8796  -40.1106 N.am      5 UNK        -0.4663 
     35 CA         24.8358  -25.2733  -40.9408 C.3       5 UNK         0.0242 
     36 CB         24.3994  -23.8667  -41.3781 C.3       5 UNK        -0.1982 
     37 C          25.1948  -26.1354  -42.1638 C.2       5 UNK         0.5017 
     38 O          26.3695  -26.2200  -42.5212 O.2       5 UNK        -0.5012 
     39 N          24.1861  -26.7991  -42.7455 N.am      6 UNK        -0.4439 
     40 CA         24.3330  -27.8002  -43.8062 C.3       6 UNK         0.0297 
     41 CB         23.0290  -27.8347  -44.6246 C.3       6 UNK        -0.2006 
     42 C          24.6709  -29.2088  -43.2711 C.2       6 UNK         0.4892 
     43 O          24.7091  -30.1449  -44.0693 O.2       6 UNK        -0.5089 
     44 N          24.8815  -29.3368  -41.9506 N.am      7 UNK        -0.4243 
     45 CA         24.8575  -30.5567  -41.1329 C.3       7 UNK         0.0196 
     46 CB         25.7511  -31.6804  -41.7042 C.3       7 UNK        -0.2007 
     47 C          23.4088  -31.0114  -40.8753 C.2       7 UNK         0.5020 
     48 O          22.4634  -30.3430  -41.2962 O.2       7 UNK        -0.5147 
     49 N          23.2490  -32.1212  -40.1449 N.am      8 UNK        -0.4734 
     50 CA         21.9372  -32.6600  -39.7702 C.3       8 UNK         0.0238 
     51 CB         22.0905  -33.5364  -38.5163 C.3       8 UNK        -0.1912 
     52 C          21.2537  -33.4562  -40.8960 C.2       8 UNK         0.5038 
     53 O          20.0234  -33.5068  -40.9200 O.2       8 UNK        -0.5046 
     54 N          22.0523  -34.0691  -41.7847 N.am      9 UNK        -0.4200 
     55 CA         21.6264  -35.0209  -42.8297 C.3       9 UNK         0.0839 
     56 C          20.9859  -36.3239  -42.2513 C.2       9 UNK         0.5513 
     57 N          20.4411  -37.1930  -43.0929 N.am      9 UNK        -0.7519 
     58 O          21.0271  -36.5952  -41.0524 O.2       9 UNK        -0.4960 
     59 C59        20.7786  -34.3452  -43.9531 C.3       10 UNK        -0.0876 
     60 S60        21.7944  -33.3244  -45.0742 S.3       10 UNK        -0.2414 
     61 C61        21.6364  -31.6606  -44.3605 C.3       10 UNK         0.0169 
     62 H62        15.3700  -22.4465  -46.0027 H         1 UNK         0.0903 
     63 H63        14.1543  -23.5909  -45.4317 H         1 UNK         0.0903 
     64 H64        15.0434  -22.5969  -44.2748 H         1 UNK         0.0903 
     65 H65        17.2820  -23.4239  -46.5547 H         1 UNK         0.3096 
     66 H66        18.9115  -24.7859  -46.8708 H         1 UNK         0.1121 
     67 H67        16.9282  -26.5849  -46.8422 H         1 UNK         0.0849 
     68 H68        17.7165  -27.1585  -45.4009 H         1 UNK         0.0849 
     69 H69        17.3219  -29.1625  -47.5262 H         1 UNK         0.0865 
     70 H70        18.8347  -29.7577  -48.1577 H         1 UNK         0.0865 
     71 H71        20.7070  -30.4148  -46.5899 H         1 UNK         0.1346 
     72 H72        19.5456  -31.5074  -42.6092 H         1 UNK         0.1412 
     73 H73        16.7813  -29.4482  -45.1553 H         1 UNK         0.1426 
     74 H74        17.1890  -31.3175  -41.9625 H         1 UNK         0.0716 
     75 H75        16.0248  -30.7109  -43.1081 H         1 UNK         0.0716 
     76 H76        18.4377  -30.1468  -40.3774 H         1 UNK         0.0695 
     77 H77        17.8002  -28.7250  -39.6013 H         1 UNK         0.0695 
     78 H78        20.0547  -28.8494  -41.6595 H         1 UNK         0.0983 
     79 H79        18.3306  -26.6661  -41.2199 H         1 UNK         0.3095 
     80 H80        18.7747  -24.4935  -41.5806 H         1 UNK         0.0454 
     81 H81        20.0948  -22.6548  -42.5757 H         1 UNK         0.0851 
     82 H82        21.3654  -23.7782  -43.0482 H         1 UNK         0.0851 
     83 H83        21.0280  -23.4949  -41.3487 H         1 UNK         0.0851 
     84 H84        17.8163  -24.8226  -43.5584 H         1 UNK         0.2976 
     85 H85        21.7326  -27.0862  -40.5317 H         1 UNK         0.3116 
     86 H86        22.9222  -28.5800  -38.3787 H         1 UNK         0.0646 
     87 H87        22.0194  -25.7054  -37.7525 H         1 UNK         0.0847 
     88 H88        23.1365  -26.6488  -36.7743 H         1 UNK         0.0847 
     89 H89        21.4683  -27.1683  -36.9406 H         1 UNK         0.0847 
     90 H90        22.8936  -25.4110  -40.1007 H         1 UNK         0.3040 
     91 H91        25.7363  -25.1777  -40.3294 H         1 UNK         0.1015 
     92 H92        24.1776  -23.2322  -40.5197 H         1 UNK         0.0786 
     93 H93        23.5146  -23.8989  -42.0130 H         1 UNK         0.0786 
     94 H94        25.1892  -23.3750  -41.9479 H         1 UNK         0.0786 
     95 H95        23.2383  -26.6357  -42.4159 H         1 UNK         0.3172 
     96 H96        25.1446  -27.4989  -44.4715 H         1 UNK         0.0595 
     97 H97        23.1159  -28.5050  -45.4805 H         1 UNK         0.0839 
     98 H98        22.1859  -28.1827  -44.0253 H         1 UNK         0.0839 
     99 H99        22.7760  -26.8483  -45.0134 H         1 UNK         0.0839 
    100 H100       24.8478  -28.4858  -41.4050 H         1 UNK         0.2998 
    101 H101       25.2679  -30.2662  -40.1648 H         1 UNK         0.0822 
    102 H102       26.7230  -31.2955  -42.0133 H         1 UNK         0.0787 
    103 H103       25.9375  -32.4541  -40.9592 H         1 UNK         0.0787 
    104 H104       25.2939  -32.1675  -42.5663 H         1 UNK         0.0787 
    105 H105       24.0637  -32.6120  -39.8044 H         1 UNK         0.3055 
    106 H106       21.2762  -31.8264  -39.5176 H         1 UNK         0.1106 
    107 H107       21.1244  -33.9302  -38.1968 H         1 UNK         0.0828 
    108 H108       22.7451  -34.3903  -38.6953 H         1 UNK         0.0828 
    109 H109       22.4978  -32.9669  -37.6806 H         1 UNK         0.0828 
    110 H110       23.0490  -33.9703  -41.6674 H         1 UNK         0.2931 
    111 H111       22.5561  -35.3696  -43.2810 H         1 UNK         0.0412 
    112 H112       20.0475  -38.0453  -42.7247 H         1 UNK         0.3472 
    113 H113       20.4321  -37.0286  -44.0872 H         1 UNK         0.3472 
    114 H114       19.9565  -33.7638  -43.5381 H         1 UNK         0.0970 
    115 H115       20.3027  -35.0861  -44.5952 H         1 UNK         0.0970 
    116 H116       22.3900  -31.0171  -44.8130 H         1 UNK         0.0612 
    117 H117       21.8697  -31.7091  -43.3009 H         1 UNK         0.0612 
@<TRIPOS>BOND
     1    1    2 1    
     2    1   62 1    
     3    1   63 1    
     4    1   64 1    
     5    2    3 2    
     6    2    4 am   BACKBONE|DICT|INTERRES
     7    4    5 1    
     8    4   65 1    
     9    5    6 1    
    10    5   25 1    
    11    5   66 1    
    12    6    7 1    
    13    6   67 1    
    14    6   68 1    
    15    7    8 1    
    16    8    9 1    
    17    8   69 1    
    18    8   70 1    
    19    9   10 ar   
    20    9   14 ar   
    21   10   11 ar   
    22   10   71 1    
    23   11   12 ar   
    24   11   61 1    
    25   12   13 ar   
    26   12   72 1    
    27   13   14 ar   
    28   13   15 1    
    29   14   73 1    
    30   15   16 1    
    31   15   74 1    
    32   15   75 1    
    33   16   17 1    
    34   17   18 1    
    35   17   76 1    
    36   17   77 1    
    37   18   19 1    
    38   18   27 1    
    39   18   78 1    
    40   19   20 am   BACKBONE|DICT|INTERRES
    41   19   79 1    
    42   20   21 2    
    43   20   22 1    
    44   22   23 1    
    45   22   24 1    
    46   22   80 1    
    47   23   81 1    
    48   23   82 1    
    49   23   83 1    
    50   24   25 am   BACKBONE|DICT|INTERRES
    51   24   84 1    
    52   25   26 2    
    53   27   28 2    
    54   27   29 am   BACKBONE|DICT|INTERRES
    55   29   30 1    
    56   29   85 1    
    57   30   31 1    
    58   30   32 1    
    59   30   86 1    
    60   31   87 1    
    61   31   88 1    
    62   31   89 1    
    63   32   33 2    
    64   32   34 am   BACKBONE|DICT|INTERRES
    65   34   35 1    
    66   34   90 1    
    67   35   36 1    
    68   35   37 1    
    69   35   91 1    
    70   36   92 1    
    71   36   93 1    
    72   36   94 1    
    73   37   38 2    
    74   37   39 am   BACKBONE|DICT|INTERRES
    75   39   40 1    
    76   39   95 1    
    77   40   41 1    
    78   40   42 1    
    79   40   96 1    
    80   41   97 1    
    81   41   98 1    
    82   41   99 1    
    83   42   43 2    
    84   42   44 am   BACKBONE|DICT|INTERRES
    85   44   45 1    
    86   44  100 1    
    87   45   46 1    
    88   45   47 1    
    89   45  101 1    
    90   46  102 1    
    91   46  103 1    
    92   46  104 1    
    93   47   48 2    
    94   47   49 am   BACKBONE|DICT|INTERRES
    95   49   50 1    
    96   49  105 1    
    97   50   51 1    
    98   50   52 1    
    99   50  106 1    
   100   51  107 1    
   101   51  108 1    
   102   51  109 1    
   103   52   53 2    
   104   52   54 am   BACKBONE|DICT|INTERRES
   105   54   55 1    
   106   54  110 1    
   107   55   56 1    
   108   55   59 1    
   109   55  111 1    
   110   56   57 am   BACKBONE|DICT|INTERRES
   111   56   58 2    
   112   57  112 1    
   113   57  113 1    
   114   59   60 1    
   115   59  114 1    
   116   59  115 1    
   117   60   61 1    
   118   61  116 1    
   119   61  117 1    
@<TRIPOS>SUBSTRUCTURE
     1 UNK         1 GROUP             0       ****    0 ROOT    
