@<TRIPOS>MOLECULE
3R8
117   119    1
SMALL
USER_CHARGES


@<TRIPOS>ATOM
      1 CA         17.1893  -28.4839  -41.9509 C.3       0 UNK        -0.2013 
      2 C          17.4461  -27.7394  -43.2514 C.2       0 UNK         0.4866 
      3 O          18.5999  -27.5300  -43.6178 O.2       0 UNK        -0.5176 
      4 N          16.3731  -27.3045  -43.9290 N.am      1 UNK        -0.4884 
      5 CA         16.3520  -26.6922  -45.2731 C.3       1 UNK         0.0853 
      6 C6         16.6451  -27.7075  -46.4127 C.3       10 UNK        -0.0849 
      7 S7         15.6571  -29.2436  -46.2965 S.3       10 UNK        -0.2776 
      8 C8         16.8469  -30.5184  -46.8344 C.3       10 UNK         0.0316 
      9 C9         18.0526  -30.6211  -45.9093 C.ar      10 UNK        -0.0863 
     10 C10        17.9555  -31.2878  -44.6850 C.ar      10 UNK        -0.1009 
     11 C11        19.0596  -31.3742  -43.8286 C.ar      10 UNK        -0.0712 
     12 C12        20.2640  -30.7643  -44.2028 C.ar      10 UNK        -0.0894 
     13 C13        20.3767  -30.1057  -45.4321 C.ar      10 UNK        -0.0745 
     14 C14        19.2729  -30.0559  -46.2857 C.ar      10 UNK        -0.0972 
     15 C15        21.6889  -29.4685  -45.8682 C.3       10 UNK         0.0209 
     16 S16        21.5529  -27.6571  -46.0279 S.3       10 UNK        -0.2568 
     17 C17        21.8633  -27.1468  -44.3116 C.3       10 UNK        -0.0983 
     18 CA         21.6772  -25.6221  -44.1017 C.3       3 UNK         0.0876 
     19 N          20.2721  -25.2064  -44.1549 N.am      3 UNK        -0.4424 
     20 C          19.8737  -23.9320  -44.2998 C.2       2 UNK         0.4918 
     21 O          20.6564  -23.0128  -44.5486 O.2       2 UNK        -0.4875 
     22 CA         18.3780  -23.6019  -44.0909 C.3       2 UNK         0.0481 
     23 CB         17.9159  -22.3800  -44.9143 C.3       2 UNK        -0.1831 
     24 N          17.4746  -24.7423  -44.2734 N.am      2 UNK        -0.4498 
     25 C          17.2329  -25.4233  -45.4039 C.2       1 UNK         0.5027 
     26 O          17.6816  -25.0980  -46.5048 O.2       1 UNK        -0.4969 
     27 C          22.2677  -25.1954  -42.7453 C.2       3 UNK         0.5005 
     28 O          21.9541  -25.8185  -41.7297 O.2       3 UNK        -0.5279 
     29 N          23.1181  -24.1586  -42.7429 N.am      4 UNK        -0.4463 
     30 CA         23.7747  -23.6232  -41.5421 C.3       4 UNK         0.0283 
     31 CB         24.5258  -22.3311  -41.9006 C.3       4 UNK        -0.1875 
     32 C          24.7225  -24.6255  -40.8572 C.2       4 UNK         0.4949 
     33 O          24.8439  -24.6070  -39.6326 O.2       4 UNK        -0.5039 
     34 N          25.3525  -25.4950  -41.6580 N.am      5 UNK        -0.4663 
     35 CA         26.1967  -26.5999  -41.1945 C.3       5 UNK         0.0242 
     36 CB         27.2707  -26.8742  -42.2615 C.3       5 UNK        -0.1982 
     37 C          25.3993  -27.8847  -40.8917 C.2       5 UNK         0.5017 
     38 O          25.9877  -28.8356  -40.3747 O.2       5 UNK        -0.5012 
     39 N          24.0991  -27.9011  -41.2287 N.am      6 UNK        -0.4439 
     40 CA         23.1741  -29.0384  -41.1713 C.3       6 UNK         0.0297 
     41 CB         22.8619  -29.4031  -39.7046 C.3       6 UNK        -0.2006 
     42 C          23.6485  -30.2287  -42.0355 C.2       6 UNK         0.4892 
     43 O          24.2873  -30.0119  -43.0677 O.2       6 UNK        -0.5089 
     44 N          23.3104  -31.4538  -41.6203 N.am      7 UNK        -0.4243 
     45 CA         23.7234  -32.7162  -42.2306 C.3       7 UNK         0.0196 
     46 CB         22.9886  -32.9662  -43.5687 C.3       7 UNK        -0.2007 
     47 C          23.5020  -33.8051  -41.1733 C.2       7 UNK         0.5020 
     48 O          24.1014  -33.7249  -40.1011 O.2       7 UNK        -0.5147 
     49 N          22.6208  -34.7742  -41.4575 N.am      8 UNK        -0.4734 
     50 CA         22.1326  -35.7579  -40.4835 C.3       8 UNK         0.0238 
     51 CB         21.4279  -36.9038  -41.2278 C.3       8 UNK        -0.1912 
     52 C          21.1915  -35.1360  -39.4329 C.2       8 UNK         0.5038 
     53 O          21.0973  -35.6589  -38.3216 O.2       8 UNK        -0.5046 
     54 N          20.5207  -34.0376  -39.8052 N.am      9 UNK        -0.4200 
     55 CA         19.7224  -33.1828  -38.9192 C.3       9 UNK         0.0839 
     56 C          20.5842  -32.3839  -37.9013 C.2       9 UNK         0.5513 
     57 N          19.9808  -31.9143  -36.8178 N.am      9 UNK        -0.7519 
     58 O          21.7788  -32.1671  -38.0893 O.2       9 UNK        -0.4960 
     59 C59        18.7559  -32.2708  -39.7244 C.3       10 UNK        -0.0876 
     60 S60        19.5353  -31.2836  -41.0581 S.3       10 UNK        -0.2414 
     61 C61        18.9423  -32.1749  -42.5347 C.3       10 UNK         0.0169 
     62 H62        16.2140  -28.2409  -41.5301 H         1 UNK         0.0903 
     63 H63        17.2297  -29.5581  -42.1267 H         1 UNK         0.0903 
     64 H64        17.9502  -28.2322  -41.2125 H         1 UNK         0.0903 
     65 H65        15.4573  -27.4959  -43.5463 H         1 UNK         0.3096 
     66 H66        15.3295  -26.3393  -45.4168 H         1 UNK         0.1121 
     67 H67        16.4378  -27.2589  -47.3860 H         1 UNK         0.0849 
     68 H68        17.7076  -27.9439  -46.4157 H         1 UNK         0.0849 
     69 H69        16.3375  -31.4824  -46.8725 H         1 UNK         0.0865 
     70 H70        17.1626  -30.3040  -47.8567 H         1 UNK         0.0865 
     71 H71        17.0159  -31.7440  -44.4048 H         1 UNK         0.1346 
     72 H72        21.1158  -30.8112  -43.5411 H         1 UNK         0.1412 
     73 H73        19.3619  -29.5490  -47.2370 H         1 UNK         0.1426 
     74 H74        21.9748  -29.8830  -46.8358 H         1 UNK         0.0716 
     75 H75        22.4972  -29.7193  -45.1796 H         1 UNK         0.0716 
     76 H76        22.8853  -27.4481  -44.0717 H         1 UNK         0.0695 
     77 H77        21.2130  -27.7166  -43.6458 H         1 UNK         0.0695 
     78 H78        22.2230  -25.1056  -44.8946 H         1 UNK         0.0983 
     79 H79        19.5894  -25.9353  -43.9571 H         1 UNK         0.3095 
     80 H80        18.2876  -23.3297  -43.0385 H         1 UNK         0.0454 
     81 H81        18.4762  -21.4866  -44.6364 H         1 UNK         0.0851 
     82 H82        18.0623  -22.5309  -45.9840 H         1 UNK         0.0851 
     83 H83        16.8614  -22.1622  -44.7462 H         1 UNK         0.0851 
     84 H84        17.0679  -25.1155  -43.4265 H         1 UNK         0.2976 
     85 H85        23.2939  -23.6718  -43.6114 H         1 UNK         0.3116 
     86 H86        22.9917  -23.3722  -40.8232 H         1 UNK         0.0646 
     87 H87        25.0014  -21.8994  -41.0187 H         1 UNK         0.0847 
     88 H88        23.8496  -21.5762  -42.3023 H         1 UNK         0.0847 
     89 H89        25.3095  -22.5085  -42.6381 H         1 UNK         0.0847 
     90 H90        25.2068  -25.4205  -42.6547 H         1 UNK         0.3040 
     91 H91        26.7009  -26.3075  -40.2704 H         1 UNK         0.1015 
     92 H92        27.8720  -25.9862  -42.4579 H         1 UNK         0.0786 
     93 H93        26.8292  -27.1987  -43.2048 H         1 UNK         0.0786 
     94 H94        27.9543  -27.6596  -41.9358 H         1 UNK         0.0786 
     95 H95        23.6940  -27.0451  -41.5863 H         1 UNK         0.3172 
     96 H96        22.2448  -28.6900  -41.6235 H         1 UNK         0.0595 
     97 H97        22.6297  -28.5141  -39.1183 H         1 UNK         0.0839 
     98 H98        23.6968  -29.9115  -39.2203 H         1 UNK         0.0839 
     99 H99        21.9900  -30.0529  -39.6407 H         1 UNK         0.0839 
    100 H100       22.8336  -31.5450  -40.7316 H         1 UNK         0.2998 
    101 H101       24.7972  -32.6719  -42.4246 H         1 UNK         0.0822 
    102 H102       23.1899  -32.1725  -44.2879 H         1 UNK         0.0787 
    103 H103       23.3237  -33.8954  -44.0316 H         1 UNK         0.0787 
    104 H104       21.9082  -33.0281  -43.4414 H         1 UNK         0.0787 
    105 H105       22.1976  -34.7879  -42.3747 H         1 UNK         0.3055 
    106 H106       22.9913  -36.1704  -39.9483 H         1 UNK         0.1106 
    107 H107       20.5608  -36.5517  -41.7880 H         1 UNK         0.0828 
    108 H108       22.1029  -37.3979  -41.9268 H         1 UNK         0.0828 
    109 H109       21.0765  -37.6639  -40.5285 H         1 UNK         0.0828 
    110 H110       20.6896  -33.6672  -40.7267 H         1 UNK         0.2931 
    111 H111       19.1003  -33.8546  -38.3239 H         1 UNK         0.0412 
    112 H112       20.5205  -31.3865  -36.1495 H         1 UNK         0.3472 
    113 H113       19.0017  -32.0844  -36.6473 H         1 UNK         0.3472 
    114 H114       18.2343  -31.5815  -39.0579 H         1 UNK         0.0970 
    115 H115       17.9659  -32.8909  -40.1490 H         1 UNK         0.0970 
    116 H116       19.5013  -33.1050  -42.6403 H         1 UNK         0.0612 
    117 H117       17.9007  -32.4580  -42.3772 H         1 UNK         0.0612 
@<TRIPOS>BOND
     1    1    2 1    
     2    1   62 1    
     3    1   63 1    
     4    1   64 1    
     5    2    3 2    
     6    2    4 am   BACKBONE|DICT|INTERRES
     7    4    5 1    
     8    4   65 1    
     9    5    6 1    
    10    5   25 1    
    11    5   66 1    
    12    6    7 1    
    13    6   67 1    
    14    6   68 1    
    15    7    8 1    
    16    8    9 1    
    17    8   69 1    
    18    8   70 1    
    19    9   10 ar   
    20    9   14 ar   
    21   10   11 ar   
    22   10   71 1    
    23   11   12 ar   
    24   11   61 1    
    25   12   13 ar   
    26   12   72 1    
    27   13   14 ar   
    28   13   15 1    
    29   14   73 1    
    30   15   16 1    
    31   15   74 1    
    32   15   75 1    
    33   16   17 1    
    34   17   18 1    
    35   17   76 1    
    36   17   77 1    
    37   18   19 1    
    38   18   27 1    
    39   18   78 1    
    40   19   20 am   BACKBONE|DICT|INTERRES
    41   19   79 1    
    42   20   21 2    
    43   20   22 1    
    44   22   23 1    
    45   22   24 1    
    46   22   80 1    
    47   23   81 1    
    48   23   82 1    
    49   23   83 1    
    50   24   25 am   BACKBONE|DICT|INTERRES
    51   24   84 1    
    52   25   26 2    
    53   27   28 2    
    54   27   29 am   BACKBONE|DICT|INTERRES
    55   29   30 1    
    56   29   85 1    
    57   30   31 1    
    58   30   32 1    
    59   30   86 1    
    60   31   87 1    
    61   31   88 1    
    62   31   89 1    
    63   32   33 2    
    64   32   34 am   BACKBONE|DICT|INTERRES
    65   34   35 1    
    66   34   90 1    
    67   35   36 1    
    68   35   37 1    
    69   35   91 1    
    70   36   92 1    
    71   36   93 1    
    72   36   94 1    
    73   37   38 2    
    74   37   39 am   BACKBONE|DICT|INTERRES
    75   39   40 1    
    76   39   95 1    
    77   40   41 1    
    78   40   42 1    
    79   40   96 1    
    80   41   97 1    
    81   41   98 1    
    82   41   99 1    
    83   42   43 2    
    84   42   44 am   BACKBONE|DICT|INTERRES
    85   44   45 1    
    86   44  100 1    
    87   45   46 1    
    88   45   47 1    
    89   45  101 1    
    90   46  102 1    
    91   46  103 1    
    92   46  104 1    
    93   47   48 2    
    94   47   49 am   BACKBONE|DICT|INTERRES
    95   49   50 1    
    96   49  105 1    
    97   50   51 1    
    98   50   52 1    
    99   50  106 1    
   100   51  107 1    
   101   51  108 1    
   102   51  109 1    
   103   52   53 2    
   104   52   54 am   BACKBONE|DICT|INTERRES
   105   54   55 1    
   106   54  110 1    
   107   55   56 1    
   108   55   59 1    
   109   55  111 1    
   110   56   57 am   BACKBONE|DICT|INTERRES
   111   56   58 2    
   112   57  112 1    
   113   57  113 1    
   114   59   60 1    
   115   59  114 1    
   116   59  115 1    
   117   60   61 1    
   118   61  116 1    
   119   61  117 1    
@<TRIPOS>SUBSTRUCTURE
     1 UNK         1 GROUP             0       ****    0 ROOT    
