@<TRIPOS>MOLECULE
3R8
117   119    1
SMALL
USER_CHARGES


@<TRIPOS>ATOM
      1 CA         18.9150  -22.3063  -43.0096 C.3       0 UNK        -0.2013 
      2 C          18.9788  -23.2634  -44.1900 C.2       0 UNK         0.4866 
      3 O          18.6306  -22.8837  -45.3084 O.2       0 UNK        -0.5176 
      4 N          19.4166  -24.5022  -43.9483 N.am      1 UNK        -0.4884 
      5 CA         19.5673  -25.5599  -44.9458 C.3       1 UNK         0.0853 
      6 C6         18.2091  -26.2311  -45.2948 C.3       10 UNK        -0.0849 
      7 S7         18.2118  -27.0261  -46.9395 S.3       10 UNK        -0.2776 
      8 C8         16.7501  -28.1057  -46.8295 C.3       10 UNK         0.0316 
      9 C9         16.9948  -29.3147  -45.9373 C.ar      10 UNK        -0.0863 
     10 C10        17.6476  -30.4436  -46.4414 C.ar      10 UNK        -0.1009 
     11 C11        17.8534  -31.5731  -45.6412 C.ar      10 UNK        -0.0712 
     12 C12        17.3933  -31.5572  -44.3165 C.ar      10 UNK        -0.0894 
     13 C13        16.7530  -30.4295  -43.7968 C.ar      10 UNK        -0.0745 
     14 C14        16.5452  -29.3171  -44.6150 C.ar      10 UNK        -0.0972 
     15 C15        16.2602  -30.4158  -42.3583 C.3       10 UNK         0.0209 
     16 S16        17.2186  -29.2659  -41.3231 S.3       10 UNK        -0.2568 
     17 C17        18.7571  -30.2065  -41.0057 C.3       10 UNK        -0.0983 
     18 CA         20.0838  -29.4136  -41.1667 C.3       3 UNK         0.0876 
     19 N          20.3430  -29.0495  -42.5537 N.am      3 UNK        -0.4424 
     20 C          21.3336  -29.5280  -43.3134 C.2       2 UNK         0.4918 
     21 O          22.0421  -30.4818  -42.9880 O.2       2 UNK        -0.4875 
     22 CA         21.5836  -28.8523  -44.6781 C.3       2 UNK         0.0481 
     23 CB         21.5422  -29.8846  -45.8168 C.3       2 UNK        -0.1831 
     24 N          20.6586  -27.7606  -45.0008 N.am      2 UNK        -0.4498 
     25 C          20.6487  -26.5412  -44.4476 C.2       1 UNK         0.5027 
     26 O          21.4371  -26.1891  -43.5674 O.2       1 UNK        -0.4969 
     27 C          20.1104  -28.1183  -40.3321 C.2       3 UNK         0.5005 
     28 O          19.7940  -27.0452  -40.8586 O.2       3 UNK        -0.5279 
     29 N          20.4655  -28.2464  -39.0449 N.am      4 UNK        -0.4463 
     30 CA         20.5138  -27.2159  -37.9958 C.3       4 UNK         0.0283 
     31 CB         19.1146  -26.6305  -37.7175 C.3       4 UNK        -0.1875 
     32 C          21.5487  -26.1002  -38.2322 C.2       4 UNK         0.4949 
     33 O          22.4267  -25.9038  -37.3921 O.2       4 UNK        -0.5039 
     34 N          21.4304  -25.3907  -39.3596 N.am      5 UNK        -0.4663 
     35 CA         22.3335  -24.3154  -39.7797 C.3       5 UNK         0.0242 
     36 CB         21.6063  -23.4208  -40.7953 C.3       5 UNK        -0.1982 
     37 C          23.6506  -24.8402  -40.3760 C.2       5 UNK         0.5017 
     38 O          24.6351  -24.1007  -40.4064 O.2       5 UNK        -0.5012 
     39 N          23.6467  -26.0951  -40.8337 N.am      6 UNK        -0.4439 
     40 CA         24.7831  -26.8181  -41.3874 C.3       6 UNK         0.0297 
     41 CB         24.9150  -26.5084  -42.8905 C.3       6 UNK        -0.2006 
     42 C          24.5752  -28.3163  -41.1359 C.2       6 UNK         0.4892 
     43 O          23.4930  -28.7253  -40.7054 O.2       6 UNK        -0.5089 
     44 N          25.6239  -29.0972  -41.4109 N.am      7 UNK        -0.4243 
     45 CA         25.6135  -30.5598  -41.3942 C.3       7 UNK         0.0196 
     46 CB         26.9761  -31.0318  -40.8541 C.3       7 UNK        -0.2007 
     47 C          25.3643  -31.0937  -42.8224 C.2       7 UNK         0.5020 
     48 O          25.5390  -30.3399  -43.7811 O.2       7 UNK        -0.5147 
     49 N          24.9957  -32.3676  -43.0167 N.am      8 UNK        -0.4734 
     50 CA         24.7923  -33.4362  -42.0301 C.3       8 UNK         0.0238 
     51 CB         25.9262  -34.4699  -42.1822 C.3       8 UNK        -0.1912 
     52 C          23.4070  -34.0892  -42.1924 C.2       8 UNK         0.5038 
     53 O          23.2376  -35.2498  -41.8152 O.2       8 UNK        -0.5046 
     54 N          22.4443  -33.3486  -42.7563 N.am      9 UNK        -0.4200 
     55 CA         21.0632  -33.7975  -42.9891 C.3       9 UNK         0.0839 
     56 C          20.1446  -33.6992  -41.7325 C.2       9 UNK         0.5513 
     57 N          20.6029  -33.1508  -40.6126 N.am      9 UNK        -0.7519 
     58 O          19.0000  -34.1417  -41.7629 O.2       9 UNK        -0.4960 
     59 C59        20.4700  -33.0742  -44.2270 C.3       10 UNK        -0.0876 
     60 S60        19.1890  -34.0371  -45.0948 S.3       10 UNK        -0.2414 
     61 C61        18.5518  -32.7859  -46.2639 C.3       10 UNK         0.0169 
     62 H62        19.7969  -21.6665  -42.9945 H         1 UNK         0.0903 
     63 H63        18.0330  -21.6706  -43.0848 H         1 UNK         0.0903 
     64 H64        18.8588  -22.8419  -42.0623 H         1 UNK         0.0903 
     65 H65        19.7610  -24.7582  -43.0310 H         1 UNK         0.3096 
     66 H66        19.9763  -25.1005  -45.8490 H         1 UNK         0.1121 
     67 H67        17.4140  -25.4842  -45.3155 H         1 UNK         0.0849 
     68 H68        17.9228  -26.9412  -44.5185 H         1 UNK         0.0849 
     69 H69        16.4871  -28.4437  -47.8331 H         1 UNK         0.0865 
     70 H70        15.8951  -27.5282  -46.4739 H         1 UNK         0.0865 
     71 H71        17.9906  -30.4444  -47.4674 H         1 UNK         0.1346 
     72 H72        17.5282  -32.4195  -43.6790 H         1 UNK         0.1412 
     73 H73        16.0341  -28.4515  -44.2156 H         1 UNK         0.1426 
     74 H74        16.2907  -31.4143  -41.9189 H         1 UNK         0.0716 
     75 H75        15.2135  -30.1089  -42.3454 H         1 UNK         0.0716 
     76 H76        18.7812  -31.0749  -41.6640 H         1 UNK         0.0695 
     77 H77        18.6915  -30.6106  -39.9944 H         1 UNK         0.0695 
     78 H78        20.9002  -30.0431  -40.8052 H         1 UNK         0.0983 
     79 H79        19.8501  -28.2233  -42.8600 H         1 UNK         0.3095 
     80 H80        22.5924  -28.4374  -44.6412 H         1 UNK         0.0454 
     81 H81        20.5639  -30.3582  -45.8930 H         1 UNK         0.0851 
     82 H82        22.2788  -30.6732  -45.6584 H         1 UNK         0.0851 
     83 H83        21.7693  -29.4254  -46.7789 H         1 UNK         0.0851 
     84 H84        19.9541  -27.9591  -45.7013 H         1 UNK         0.2976 
     85 H85        20.7468  -29.1663  -38.7336 H         1 UNK         0.3116 
     86 H86        20.8262  -27.7389  -37.0903 H         1 UNK         0.0646 
     87 H87        18.7099  -26.1004  -38.5801 H         1 UNK         0.0847 
     88 H88        19.1474  -25.9214  -36.8893 H         1 UNK         0.0847 
     89 H89        18.4059  -27.4126  -37.4457 H         1 UNK         0.0847 
     90 H90        20.7125  -25.6904  -40.0178 H         1 UNK         0.3040 
     91 H91        22.5870  -23.7101  -38.9064 H         1 UNK         0.1015 
     92 H92        22.2363  -22.5841  -41.1006 H         1 UNK         0.0786 
     93 H93        21.3411  -23.9739  -41.6966 H         1 UNK         0.0786 
     94 H94        20.6944  -23.0010  -40.3707 H         1 UNK         0.0786 
     95 H95        22.8093  -26.6548  -40.7282 H         1 UNK         0.3172 
     96 H96        25.6934  -26.5118  -40.8675 H         1 UNK         0.0595 
     97 H97        25.7804  -27.0084  -43.3265 H         1 UNK         0.0839 
     98 H98        25.0374  -25.4399  -43.0679 H         1 UNK         0.0839 
     99 H99        24.0364  -26.8387  -43.4446 H         1 UNK         0.0839 
    100 H100       26.4461  -28.6715  -41.8141 H         1 UNK         0.2998 
    101 H101       24.8164  -30.8986  -40.7308 H         1 UNK         0.0822 
    102 H102       27.0010  -32.1105  -40.7087 H         1 UNK         0.0787 
    103 H103       27.7903  -30.7764  -41.5339 H         1 UNK         0.0787 
    104 H104       27.1958  -30.5789  -39.8870 H         1 UNK         0.0787 
    105 H105       24.8339  -32.6512  -43.9731 H         1 UNK         0.3055 
    106 H106       24.8178  -33.0574  -41.0094 H         1 UNK         0.1106 
    107 H107       25.8709  -35.2329  -41.4045 H         1 UNK         0.0828 
    108 H108       25.8762  -34.9814  -43.1442 H         1 UNK         0.0828 
    109 H109       26.9096  -34.0068  -42.1067 H         1 UNK         0.0828 
    110 H110       22.6257  -32.3698  -42.9597 H         1 UNK         0.2931 
    111 H111       21.1158  -34.8606  -43.2322 H         1 UNK         0.0412 
    112 H112       20.0064  -33.1197  -39.8014 H         1 UNK         0.3472 
    113 H113       21.5437  -32.7967  -40.5657 H         1 UNK         0.3472 
    114 H114       21.2549  -32.8800  -44.9593 H         1 UNK         0.0970 
    115 H115       20.0767  -32.0973  -43.9467 H         1 UNK         0.0970 
    116 H116       17.8457  -33.2783  -46.9334 H         1 UNK         0.0612 
    117 H117       19.3824  -32.4490  -46.8861 H         1 UNK         0.0612 
@<TRIPOS>BOND
     1    1    2 1    
     2    1   62 1    
     3    1   63 1    
     4    1   64 1    
     5    2    3 2    
     6    2    4 am   BACKBONE|DICT|INTERRES
     7    4    5 1    
     8    4   65 1    
     9    5    6 1    
    10    5   25 1    
    11    5   66 1    
    12    6    7 1    
    13    6   67 1    
    14    6   68 1    
    15    7    8 1    
    16    8    9 1    
    17    8   69 1    
    18    8   70 1    
    19    9   10 ar   
    20    9   14 ar   
    21   10   11 ar   
    22   10   71 1    
    23   11   12 ar   
    24   11   61 1    
    25   12   13 ar   
    26   12   72 1    
    27   13   14 ar   
    28   13   15 1    
    29   14   73 1    
    30   15   16 1    
    31   15   74 1    
    32   15   75 1    
    33   16   17 1    
    34   17   18 1    
    35   17   76 1    
    36   17   77 1    
    37   18   19 1    
    38   18   27 1    
    39   18   78 1    
    40   19   20 am   BACKBONE|DICT|INTERRES
    41   19   79 1    
    42   20   21 2    
    43   20   22 1    
    44   22   23 1    
    45   22   24 1    
    46   22   80 1    
    47   23   81 1    
    48   23   82 1    
    49   23   83 1    
    50   24   25 am   BACKBONE|DICT|INTERRES
    51   24   84 1    
    52   25   26 2    
    53   27   28 2    
    54   27   29 am   BACKBONE|DICT|INTERRES
    55   29   30 1    
    56   29   85 1    
    57   30   31 1    
    58   30   32 1    
    59   30   86 1    
    60   31   87 1    
    61   31   88 1    
    62   31   89 1    
    63   32   33 2    
    64   32   34 am   BACKBONE|DICT|INTERRES
    65   34   35 1    
    66   34   90 1    
    67   35   36 1    
    68   35   37 1    
    69   35   91 1    
    70   36   92 1    
    71   36   93 1    
    72   36   94 1    
    73   37   38 2    
    74   37   39 am   BACKBONE|DICT|INTERRES
    75   39   40 1    
    76   39   95 1    
    77   40   41 1    
    78   40   42 1    
    79   40   96 1    
    80   41   97 1    
    81   41   98 1    
    82   41   99 1    
    83   42   43 2    
    84   42   44 am   BACKBONE|DICT|INTERRES
    85   44   45 1    
    86   44  100 1    
    87   45   46 1    
    88   45   47 1    
    89   45  101 1    
    90   46  102 1    
    91   46  103 1    
    92   46  104 1    
    93   47   48 2    
    94   47   49 am   BACKBONE|DICT|INTERRES
    95   49   50 1    
    96   49  105 1    
    97   50   51 1    
    98   50   52 1    
    99   50  106 1    
   100   51  107 1    
   101   51  108 1    
   102   51  109 1    
   103   52   53 2    
   104   52   54 am   BACKBONE|DICT|INTERRES
   105   54   55 1    
   106   54  110 1    
   107   55   56 1    
   108   55   59 1    
   109   55  111 1    
   110   56   57 am   BACKBONE|DICT|INTERRES
   111   56   58 2    
   112   57  112 1    
   113   57  113 1    
   114   59   60 1    
   115   59  114 1    
   116   59  115 1    
   117   60   61 1    
   118   61  116 1    
   119   61  117 1    
@<TRIPOS>SUBSTRUCTURE
     1 UNK         1 GROUP             0       ****    0 ROOT    
