@<TRIPOS>MOLECULE
3R8
117   119    1
SMALL
USER_CHARGES


@<TRIPOS>ATOM
      1 CA         13.7106  -24.9025  -42.6722 C.3       0 UNK        -0.2013 
      2 C          14.5378  -24.9549  -43.9477 C.2       0 UNK         0.4866 
      3 O          14.4055  -24.0767  -44.8003 O.2       0 UNK        -0.5176 
      4 N          15.3919  -25.9778  -44.0854 N.am      1 UNK        -0.4884 
      5 CA         16.2502  -26.2015  -45.2590 C.3       1 UNK         0.0853 
      6 C6         16.7836  -27.6524  -45.3187 C.3       10 UNK        -0.0849 
      7 S7         15.4717  -28.9225  -45.2535 S.3       10 UNK        -0.2776 
      8 C8         16.2895  -30.3386  -46.0618 C.3       10 UNK         0.0316 
      9 C9         17.6070  -30.6898  -45.3847 C.ar      10 UNK        -0.0863 
     10 C10        17.6265  -31.4696  -44.2252 C.ar      10 UNK        -0.1009 
     11 C11        18.8367  -31.7541  -43.5845 C.ar      10 UNK        -0.0712 
     12 C12        20.0306  -31.2351  -44.0974 C.ar      10 UNK        -0.0894 
     13 C13        20.0219  -30.4615  -45.2624 C.ar      10 UNK        -0.0745 
     14 C14        18.8100  -30.2134  -45.9114 C.ar      10 UNK        -0.0972 
     15 C15        21.3125  -29.8970  -45.8382 C.3       10 UNK         0.0209 
     16 S16        21.2905  -28.0754  -45.8945 S.3       10 UNK        -0.2568 
     17 C17        21.6641  -27.6687  -44.1615 C.3       10 UNK        -0.0983 
     18 CA         21.7820  -26.1364  -43.9552 C.3       3 UNK         0.0876 
     19 N          20.4769  -25.4719  -43.9638 N.am      3 UNK        -0.4424 
     20 C          20.2852  -24.1733  -44.2326 C.2       2 UNK         0.4918 
     21 O          21.1879  -23.4212  -44.6055 O.2       2 UNK        -0.4875 
     22 CA         18.8650  -23.6122  -44.0083 C.3       2 UNK         0.0481 
     23 CB         18.5937  -22.3283  -44.8216 C.3       2 UNK        -0.1831 
     24 N          17.7919  -24.5975  -44.1982 N.am      2 UNK        -0.4498 
     25 C          17.4330  -25.2093  -45.3392 C.2       1 UNK         0.5027 
     26 O          17.9941  -25.0317  -46.4210 O.2       1 UNK        -0.4969 
     27 C          22.5047  -25.7965  -42.6391 C.2       3 UNK         0.5005 
     28 O          22.3676  -26.5301  -41.6587 O.2       3 UNK        -0.5279 
     29 N          23.2691  -24.6944  -42.6370 N.am      4 UNK        -0.4463 
     30 CA         24.0604  -24.2131  -41.4952 C.3       4 UNK         0.0283 
     31 CB         24.6866  -22.8549  -41.8491 C.3       4 UNK        -0.1875 
     32 C          25.1466  -25.1988  -41.0208 C.2       4 UNK         0.4949 
     33 O          25.5354  -25.1562  -39.8539 O.2       4 UNK        -0.5039 
     34 N          25.5918  -26.0851  -41.9221 N.am      5 UNK        -0.4663 
     35 CA         26.5010  -27.1975  -41.6378 C.3       5 UNK         0.0242 
     36 CB         27.1129  -27.6821  -42.9634 C.3       5 UNK        -0.1982 
     37 C          25.8328  -28.3735  -40.8968 C.2       5 UNK         0.5017 
     38 O          26.5487  -29.2798  -40.4685 O.2       5 UNK        -0.5012 
     39 N          24.4936  -28.3709  -40.7855 N.am      6 UNK        -0.4439 
     40 CA         23.6127  -29.3691  -40.1600 C.3       6 UNK         0.0297 
     41 CB         23.9617  -29.5740  -38.6739 C.3       6 UNK        -0.2006 
     42 C          23.5287  -30.7074  -40.9189 C.2       6 UNK         0.4892 
     43 O          22.4247  -31.2140  -41.1207 O.2       6 UNK        -0.5089 
     44 N          24.6809  -31.2360  -41.3539 N.am      7 UNK        -0.4243 
     45 CA         24.8649  -32.4446  -42.1615 C.3       7 UNK         0.0196 
     46 CB         24.4098  -32.1824  -43.6162 C.3       7 UNK        -0.2007 
     47 C          24.2159  -33.6811  -41.5090 C.2       7 UNK         0.5020 
     48 O          24.7024  -34.1410  -40.4756 O.2       7 UNK        -0.5147 
     49 N          23.1398  -34.1957  -42.1166 N.am      8 UNK        -0.4734 
     50 CA         22.3863  -35.3637  -41.6546 C.3       8 UNK         0.0238 
     51 CB         21.6220  -35.9582  -42.8510 C.3       8 UNK        -0.1912 
     52 C          21.4263  -35.0796  -40.4819 C.2       8 UNK         0.5038 
     53 O          20.8517  -36.0332  -39.9538 O.2       8 UNK        -0.5046 
     54 N          21.2439  -33.8085  -40.1049 N.am      9 UNK        -0.4200 
     55 CA         20.3383  -33.3667  -39.0379 C.3       9 UNK         0.0839 
     56 C          21.0331  -32.3245  -38.1214 C.2       9 UNK         0.5513 
     57 N          20.3611  -31.2551  -37.7157 N.am      9 UNK        -0.7519 
     58 O          22.1747  -32.5207  -37.7113 O.2       9 UNK        -0.4960 
     59 C59        18.9233  -33.0005  -39.5749 C.3       10 UNK        -0.0876 
     60 S60        18.8984  -31.6618  -40.8193 S.3       10 UNK        -0.2414 
     61 C61        18.8573  -32.6396  -42.3503 C.3       10 UNK         0.0169 
     62 H62        13.9272  -25.7407  -42.0101 H         1 UNK         0.0903 
     63 H63        13.9152  -23.9799  -42.1296 H         1 UNK         0.0903 
     64 H64        12.6483  -24.9275  -42.9133 H         1 UNK         0.0903 
     65 H65        15.4349  -26.6929  -43.3722 H         1 UNK         0.3096 
     66 H66        15.6422  -26.0325  -46.1511 H         1 UNK         0.1121 
     67 H67        17.3488  -27.7910  -46.2422 H         1 UNK         0.0849 
     68 H68        17.4809  -27.8442  -44.5002 H         1 UNK         0.0849 
     69 H69        15.6200  -31.1996  -46.0366 H         1 UNK         0.0865 
     70 H70        16.4492  -30.1094  -47.1167 H         1 UNK         0.0865 
     71 H71        16.6988  -31.8489  -43.8184 H         1 UNK         0.1346 
     72 H72        20.9619  -31.4368  -43.5860 H         1 UNK         0.1412 
     73 H73        18.8050  -29.6166  -46.8133 H         1 UNK         0.1426 
     74 H74        21.4396  -30.2773  -46.8526 H         1 UNK         0.0716 
     75 H75        22.1814  -30.2361  -45.2720 H         1 UNK         0.0716 
     76 H76        22.6017  -28.1681  -43.9072 H         1 UNK         0.0695 
     77 H77        20.8998  -28.0997  -43.5115 H         1 UNK         0.0695 
     78 H78        22.3883  -25.7382  -44.7726 H         1 UNK         0.0983 
     79 H79        19.6936  -26.0198  -43.6425 H         1 UNK         0.3095 
     80 H80        18.8247  -23.3365  -42.9537 H         1 UNK         0.0454 
     81 H81        19.2937  -21.5373  -44.5500 H         1 UNK         0.0851 
     82 H82        18.6980  -22.4966  -45.8938 H         1 UNK         0.0851 
     83 H83        17.5896  -21.9462  -44.6378 H         1 UNK         0.0851 
     84 H84        17.2536  -24.8227  -43.3729 H         1 UNK         0.2976 
     85 H85        23.2780  -24.1182  -43.4690 H         1 UNK         0.3116 
     86 H86        23.3727  -24.0648  -40.6599 H         1 UNK         0.0646 
     87 H87        25.2558  -22.4564  -41.0079 H         1 UNK         0.0847 
     88 H88        23.9235  -22.1173  -42.0983 H         1 UNK         0.0847 
     89 H89        25.3697  -22.9326  -42.6959 H         1 UNK         0.0847 
     90 H90        25.2310  -26.0239  -42.8630 H         1 UNK         0.3040 
     91 H91        27.3076  -26.8317  -40.9983 H         1 UNK         0.1015 
     92 H92        27.6422  -26.8775  -43.4744 H         1 UNK         0.0786 
     93 H93        26.3524  -28.0703  -43.6422 H         1 UNK         0.0786 
     94 H94        27.8349  -28.4821  -42.7925 H         1 UNK         0.0786 
     95 H95        23.9902  -27.5840  -41.1853 H         1 UNK         0.3172 
     96 H96        22.6142  -28.9302  -40.1976 H         1 UNK         0.0595 
     97 H97        24.0319  -28.6223  -38.1473 H         1 UNK         0.0839 
     98 H98        24.9058  -30.1030  -38.5411 H         1 UNK         0.0839 
     99 H99        23.1916  -30.1595  -38.1747 H         1 UNK         0.0839 
    100 H100       25.5293  -30.7425  -41.0874 H         1 UNK         0.2998 
    101 H101       25.9379  -32.6414  -42.1831 H         1 UNK         0.0822 
    102 H102       24.9790  -31.3645  -44.0585 H         1 UNK         0.0787 
    103 H103       24.5720  -33.0583  -44.2460 H         1 UNK         0.0787 
    104 H104       23.3553  -31.9141  -43.6793 H         1 UNK         0.0787 
    105 H105       22.7999  -33.7350  -42.9482 H         1 UNK         0.3055 
    106 H106       23.0974  -36.1139  -41.3008 H         1 UNK         0.1106 
    107 H107       20.8978  -35.2543  -43.2618 H         1 UNK         0.0828 
    108 H108       22.3023  -36.2460  -43.6527 H         1 UNK         0.0828 
    109 H109       21.0737  -36.8555  -42.5604 H         1 UNK         0.0828 
    110 H110       21.7679  -33.0654  -40.5578 H         1 UNK         0.2931 
    111 H111       20.1849  -34.2076  -38.3591 H         1 UNK         0.0412 
    112 H112       20.8059  -30.6000  -37.0927 H         1 UNK         0.3472 
    113 H113       19.4329  -31.0702  -38.0623 H         1 UNK         0.3472 
    114 H114       18.2650  -32.7204  -38.7512 H         1 UNK         0.0970 
    115 H115       18.4635  -33.8918  -40.0045 H         1 UNK         0.0970 
    116 H116       19.7300  -33.2909  -42.3877 H         1 UNK         0.0612 
    117 H117       17.9835  -33.2929  -42.3397 H         1 UNK         0.0612 
@<TRIPOS>BOND
     1    1    2 1    
     2    1   62 1    
     3    1   63 1    
     4    1   64 1    
     5    2    3 2    
     6    2    4 am   BACKBONE|DICT|INTERRES
     7    4    5 1    
     8    4   65 1    
     9    5    6 1    
    10    5   25 1    
    11    5   66 1    
    12    6    7 1    
    13    6   67 1    
    14    6   68 1    
    15    7    8 1    
    16    8    9 1    
    17    8   69 1    
    18    8   70 1    
    19    9   10 ar   
    20    9   14 ar   
    21   10   11 ar   
    22   10   71 1    
    23   11   12 ar   
    24   11   61 1    
    25   12   13 ar   
    26   12   72 1    
    27   13   14 ar   
    28   13   15 1    
    29   14   73 1    
    30   15   16 1    
    31   15   74 1    
    32   15   75 1    
    33   16   17 1    
    34   17   18 1    
    35   17   76 1    
    36   17   77 1    
    37   18   19 1    
    38   18   27 1    
    39   18   78 1    
    40   19   20 am   BACKBONE|DICT|INTERRES
    41   19   79 1    
    42   20   21 2    
    43   20   22 1    
    44   22   23 1    
    45   22   24 1    
    46   22   80 1    
    47   23   81 1    
    48   23   82 1    
    49   23   83 1    
    50   24   25 am   BACKBONE|DICT|INTERRES
    51   24   84 1    
    52   25   26 2    
    53   27   28 2    
    54   27   29 am   BACKBONE|DICT|INTERRES
    55   29   30 1    
    56   29   85 1    
    57   30   31 1    
    58   30   32 1    
    59   30   86 1    
    60   31   87 1    
    61   31   88 1    
    62   31   89 1    
    63   32   33 2    
    64   32   34 am   BACKBONE|DICT|INTERRES
    65   34   35 1    
    66   34   90 1    
    67   35   36 1    
    68   35   37 1    
    69   35   91 1    
    70   36   92 1    
    71   36   93 1    
    72   36   94 1    
    73   37   38 2    
    74   37   39 am   BACKBONE|DICT|INTERRES
    75   39   40 1    
    76   39   95 1    
    77   40   41 1    
    78   40   42 1    
    79   40   96 1    
    80   41   97 1    
    81   41   98 1    
    82   41   99 1    
    83   42   43 2    
    84   42   44 am   BACKBONE|DICT|INTERRES
    85   44   45 1    
    86   44  100 1    
    87   45   46 1    
    88   45   47 1    
    89   45  101 1    
    90   46  102 1    
    91   46  103 1    
    92   46  104 1    
    93   47   48 2    
    94   47   49 am   BACKBONE|DICT|INTERRES
    95   49   50 1    
    96   49  105 1    
    97   50   51 1    
    98   50   52 1    
    99   50  106 1    
   100   51  107 1    
   101   51  108 1    
   102   51  109 1    
   103   52   53 2    
   104   52   54 am   BACKBONE|DICT|INTERRES
   105   54   55 1    
   106   54  110 1    
   107   55   56 1    
   108   55   59 1    
   109   55  111 1    
   110   56   57 am   BACKBONE|DICT|INTERRES
   111   56   58 2    
   112   57  112 1    
   113   57  113 1    
   114   59   60 1    
   115   59  114 1    
   116   59  115 1    
   117   60   61 1    
   118   61  116 1    
   119   61  117 1    
@<TRIPOS>SUBSTRUCTURE
     1 UNK         1 GROUP             0       ****    0 ROOT    
