@<TRIPOS>MOLECULE
3R8
117   119    1
SMALL
USER_CHARGES


@<TRIPOS>ATOM
      1 CA         22.3355  -23.8017  -41.4861 C.3       0 UNK        -0.2013 
      2 C          21.0621  -24.5642  -41.8217 C.2       0 UNK         0.4866 
      3 O          20.9060  -25.0115  -42.9583 O.2       0 UNK        -0.5176 
      4 N          20.1544  -24.6948  -40.8438 N.am      1 UNK        -0.4884 
      5 CA         18.8233  -25.3117  -40.9315 C.3       1 UNK         0.0853 
      6 C6         18.8192  -26.8561  -40.7112 C.3       10 UNK        -0.0849 
      7 S7         19.6617  -27.8829  -41.9676 S.3       10 UNK        -0.2776 
      8 C8         18.5137  -29.2863  -42.1027 C.3       10 UNK         0.0316 
      9 C9         18.8945  -30.1787  -43.2710 C.ar      10 UNK        -0.0863 
     10 C10        19.6730  -31.3214  -43.0721 C.ar      10 UNK        -0.1009 
     11 C11        20.0230  -32.1354  -44.1537 C.ar      10 UNK        -0.0712 
     12 C12        19.6113  -31.7837  -45.4428 C.ar      10 UNK        -0.0894 
     13 C13        18.8416  -30.6356  -45.6587 C.ar      10 UNK        -0.0745 
     14 C14        18.4692  -29.8517  -44.5602 C.ar      10 UNK        -0.0972 
     15 C15        18.4197  -30.2772  -47.0840 C.3       10 UNK         0.0209 
     16 S16        18.2058  -28.4896  -47.3999 S.3       10 UNK        -0.2568 
     17 C17        19.8854  -27.8532  -47.0729 C.3       10 UNK        -0.0983 
     18 CA         19.9123  -26.3279  -46.7742 C.3       3 UNK         0.0876 
     19 N          19.1112  -25.9827  -45.5854 N.am      3 UNK        -0.4424 
     20 C          17.9251  -25.3569  -45.6440 C.2       2 UNK         0.4918 
     21 O          17.4766  -24.8486  -46.6727 O.2       2 UNK        -0.4875 
     22 CA         17.0542  -25.2995  -44.3750 C.3       2 UNK         0.0481 
     23 CB         15.8601  -26.2600  -44.5110 C.3       2 UNK        -0.1831 
     24 N          17.7817  -25.6302  -43.1483 N.am      2 UNK        -0.4498 
     25 C          18.0107  -24.7836  -42.1376 C.2       1 UNK         0.5027 
     26 O          17.6200  -23.6139  -42.1197 O.2       1 UNK        -0.4969 
     27 C          21.3654  -25.8128  -46.6932 C.2       3 UNK         0.5005 
     28 O          22.1613  -26.1613  -47.5672 O.2       3 UNK        -0.5279 
     29 N          21.7036  -25.0153  -45.6667 N.am      4 UNK        -0.4463 
     30 CA         23.0630  -24.6062  -45.2802 C.3       4 UNK         0.0283 
     31 CB         23.7494  -23.7582  -46.3733 C.3       4 UNK        -0.1875 
     32 C          23.8897  -25.8269  -44.8305 C.2       4 UNK         0.4949 
     33 O          25.0114  -26.0300  -45.2986 O.2       4 UNK        -0.5039 
     34 N          23.2860  -26.6352  -43.9518 N.am      5 UNK        -0.4663 
     35 CA         23.8075  -27.9080  -43.4581 C.3       5 UNK         0.0242 
     36 CB         22.9379  -29.0406  -44.0370 C.3       5 UNK        -0.1982 
     37 C          23.7912  -27.9339  -41.9226 C.2       5 UNK         0.5017 
     38 O          23.2523  -27.0246  -41.2883 O.2       5 UNK        -0.5012 
     39 N          24.3849  -28.9862  -41.3465 N.am      6 UNK        -0.4439 
     40 CA         24.2975  -29.2949  -39.9176 C.3       6 UNK         0.0297 
     41 CB         25.4007  -30.3029  -39.5528 C.3       6 UNK        -0.2006 
     42 C          22.9097  -29.8555  -39.5603 C.2       6 UNK         0.4892 
     43 O          22.2165  -30.3781  -40.4370 O.2       6 UNK        -0.5089 
     44 N          22.5497  -29.7750  -38.2712 N.am      7 UNK        -0.4243 
     45 CA         21.3015  -30.2968  -37.7036 C.3       7 UNK         0.0196 
     46 CB         21.2677  -30.0097  -36.1932 C.3       7 UNK        -0.2007 
     47 C          21.1352  -31.8000  -37.9870 C.2       7 UNK         0.5020 
     48 O          21.9164  -32.6062  -37.4766 O.2       7 UNK        -0.5147 
     49 N          20.1724  -32.1266  -38.8622 N.am      8 UNK        -0.4734 
     50 CA         19.9021  -33.4553  -39.4341 C.3       8 UNK         0.0238 
     51 CB         19.3385  -34.4012  -38.3522 C.3       8 UNK        -0.1912 
     52 C          21.1039  -34.0744  -40.1845 C.2       8 UNK         0.5038 
     53 O          21.1566  -35.2963  -40.3344 O.2       8 UNK        -0.5046 
     54 N          22.0449  -33.2298  -40.6343 N.am      9 UNK        -0.4200 
     55 CA         23.3444  -33.5985  -41.2182 C.3       9 UNK         0.0839 
     56 C          24.2767  -34.3883  -40.2478 C.2       9 UNK         0.5513 
     57 N          24.0984  -34.2843  -38.9347 N.am      9 UNK        -0.7519 
     58 O          25.1968  -35.0767  -40.6818 O.2       9 UNK        -0.4960 
     59 C59        23.2172  -34.2299  -42.6348 C.3       10 UNK        -0.0876 
     60 S60        22.6160  -33.0100  -43.8523 S.3       10 UNK        -0.2414 
     61 C61        20.8420  -33.3951  -43.9239 C.3       10 UNK         0.0169 
     62 H62        22.3592  -22.8568  -42.0280 H         1 UNK         0.0903 
     63 H63        22.4135  -23.5875  -40.4206 H         1 UNK         0.0903 
     64 H64        23.2104  -24.3823  -41.7760 H         1 UNK         0.0903 
     65 H65        20.3621  -24.2790  -39.9467 H         1 UNK         0.3096 
     66 H66        18.2901  -24.9038  -40.0706 H         1 UNK         0.1121 
     67 H67        19.2946  -27.0764  -39.7542 H         1 UNK         0.0849 
     68 H68        17.7886  -27.1973  -40.5983 H         1 UNK         0.0849 
     69 H69        18.5218  -29.8511  -41.1694 H         1 UNK         0.0865 
     70 H70        17.4933  -28.9241  -42.2379 H         1 UNK         0.0865 
     71 H71        20.0149  -31.5731  -42.0781 H         1 UNK         0.1346 
     72 H72        19.8942  -32.4064  -46.2807 H         1 UNK         0.1412 
     73 H73        17.8651  -28.9688  -44.7067 H         1 UNK         0.1426 
     74 H74        17.4781  -30.7823  -47.3022 H         1 UNK         0.0716 
     75 H75        19.1503  -30.6613  -47.7978 H         1 UNK         0.0716 
     76 H76        20.3317  -28.4011  -46.2414 H         1 UNK         0.0695 
     77 H77        20.4878  -28.0922  -47.9513 H         1 UNK         0.0695 
     78 H78        19.5030  -25.8249  -47.6527 H         1 UNK         0.0983 
     79 H79        19.4493  -26.3263  -44.6977 H         1 UNK         0.3095 
     80 H80        16.6566  -24.2844  -44.3184 H         1 UNK         0.0454 
     81 H81        15.2710  -26.0296  -45.3998 H         1 UNK         0.0851 
     82 H82        16.1807  -27.2982  -44.5954 H         1 UNK         0.0851 
     83 H83        15.1912  -26.1840  -43.6537 H         1 UNK         0.0851 
     84 H84        18.1794  -26.5578  -43.0713 H         1 UNK         0.2976 
     85 H85        21.0008  -24.8257  -44.9587 H         1 UNK         0.3116 
     86 H86        22.9551  -23.9667  -44.4039 H         1 UNK         0.0646 
     87 H87        24.6918  -23.3490  -46.0079 H         1 UNK         0.0847 
     88 H88        23.1252  -22.9168  -46.6734 H         1 UNK         0.0847 
     89 H89        23.9794  -24.3414  -47.2650 H         1 UNK         0.0847 
     90 H90        22.4066  -26.3346  -43.5408 H         1 UNK         0.3040 
     91 H91        24.8414  -28.0470  -43.7815 H         1 UNK         0.1015 
     92 H92        22.9295  -29.0183  -45.1269 H         1 UNK         0.0786 
     93 H93        21.9039  -28.9714  -43.6960 H         1 UNK         0.0786 
     94 H94        23.3087  -30.0212  -43.7384 H         1 UNK         0.0786 
     95 H95        24.7681  -29.7073  -41.9394 H         1 UNK         0.3172 
     96 H96        24.4597  -28.3772  -39.3480 H         1 UNK         0.0595 
     97 H97        25.2953  -31.2396  -40.0996 H         1 UNK         0.0839 
     98 H98        25.3769  -30.5458  -38.4896 H         1 UNK         0.0839 
     99 H99        26.3910  -29.9006  -39.7673 H         1 UNK         0.0839 
    100 H100       23.1963  -29.3584  -37.6172 H         1 UNK         0.2998 
    101 H101       20.4770  -29.7532  -38.1701 H         1 UNK         0.0822 
    102 H102       21.3142  -28.9396  -35.9902 H         1 UNK         0.0787 
    103 H103       20.3453  -30.3836  -35.7467 H         1 UNK         0.0787 
    104 H104       22.0984  -30.4876  -35.6720 H         1 UNK         0.0787 
    105 H105       19.6191  -31.3731  -39.2463 H         1 UNK         0.3055 
    106 H106       19.1251  -33.3152  -40.1875 H         1 UNK         0.1106 
    107 H107       20.0880  -34.6451  -37.5987 H         1 UNK         0.0828 
    108 H108       18.4828  -33.9577  -37.8432 H         1 UNK         0.0828 
    109 H109       18.9999  -35.3416  -38.7889 H         1 UNK         0.0828 
    110 H110       21.9213  -32.2321  -40.4797 H         1 UNK         0.2931 
    111 H111       23.8647  -32.6497  -41.3488 H         1 UNK         0.0412 
    112 H112       23.3480  -33.7201  -38.5523 H         1 UNK         0.3472 
    113 H113       24.7116  -34.7885  -38.3142 H         1 UNK         0.3472 
    114 H114       22.5780  -35.1137  -42.6232 H         1 UNK         0.0970 
    115 H115       24.1893  -34.5705  -42.9950 H         1 UNK         0.0970 
    116 H116       20.6666  -34.1213  -44.7188 H         1 UNK         0.0612 
    117 H117       20.5154  -33.8718  -43.0003 H         1 UNK         0.0612 
@<TRIPOS>BOND
     1    1    2 1    
     2    1   62 1    
     3    1   63 1    
     4    1   64 1    
     5    2    3 2    
     6    2    4 am   BACKBONE|DICT|INTERRES
     7    4    5 1    
     8    4   65 1    
     9    5    6 1    
    10    5   25 1    
    11    5   66 1    
    12    6    7 1    
    13    6   67 1    
    14    6   68 1    
    15    7    8 1    
    16    8    9 1    
    17    8   69 1    
    18    8   70 1    
    19    9   10 ar   
    20    9   14 ar   
    21   10   11 ar   
    22   10   71 1    
    23   11   12 ar   
    24   11   61 1    
    25   12   13 ar   
    26   12   72 1    
    27   13   14 ar   
    28   13   15 1    
    29   14   73 1    
    30   15   16 1    
    31   15   74 1    
    32   15   75 1    
    33   16   17 1    
    34   17   18 1    
    35   17   76 1    
    36   17   77 1    
    37   18   19 1    
    38   18   27 1    
    39   18   78 1    
    40   19   20 am   BACKBONE|DICT|INTERRES
    41   19   79 1    
    42   20   21 2    
    43   20   22 1    
    44   22   23 1    
    45   22   24 1    
    46   22   80 1    
    47   23   81 1    
    48   23   82 1    
    49   23   83 1    
    50   24   25 am   BACKBONE|DICT|INTERRES
    51   24   84 1    
    52   25   26 2    
    53   27   28 2    
    54   27   29 am   BACKBONE|DICT|INTERRES
    55   29   30 1    
    56   29   85 1    
    57   30   31 1    
    58   30   32 1    
    59   30   86 1    
    60   31   87 1    
    61   31   88 1    
    62   31   89 1    
    63   32   33 2    
    64   32   34 am   BACKBONE|DICT|INTERRES
    65   34   35 1    
    66   34   90 1    
    67   35   36 1    
    68   35   37 1    
    69   35   91 1    
    70   36   92 1    
    71   36   93 1    
    72   36   94 1    
    73   37   38 2    
    74   37   39 am   BACKBONE|DICT|INTERRES
    75   39   40 1    
    76   39   95 1    
    77   40   41 1    
    78   40   42 1    
    79   40   96 1    
    80   41   97 1    
    81   41   98 1    
    82   41   99 1    
    83   42   43 2    
    84   42   44 am   BACKBONE|DICT|INTERRES
    85   44   45 1    
    86   44  100 1    
    87   45   46 1    
    88   45   47 1    
    89   45  101 1    
    90   46  102 1    
    91   46  103 1    
    92   46  104 1    
    93   47   48 2    
    94   47   49 am   BACKBONE|DICT|INTERRES
    95   49   50 1    
    96   49  105 1    
    97   50   51 1    
    98   50   52 1    
    99   50  106 1    
   100   51  107 1    
   101   51  108 1    
   102   51  109 1    
   103   52   53 2    
   104   52   54 am   BACKBONE|DICT|INTERRES
   105   54   55 1    
   106   54  110 1    
   107   55   56 1    
   108   55   59 1    
   109   55  111 1    
   110   56   57 am   BACKBONE|DICT|INTERRES
   111   56   58 2    
   112   57  112 1    
   113   57  113 1    
   114   59   60 1    
   115   59  114 1    
   116   59  115 1    
   117   60   61 1    
   118   61  116 1    
   119   61  117 1    
@<TRIPOS>SUBSTRUCTURE
     1 UNK         1 GROUP             0       ****    0 ROOT    
