@<TRIPOS>MOLECULE
3R8
117   119    1
SMALL
USER_CHARGES


@<TRIPOS>ATOM
      1 CA         16.7955  -22.6146  -43.8912 C.3       0 UNK        -0.2013 
      2 C          16.3954  -23.5591  -42.7597 C.2       0 UNK         0.4866 
      3 O          15.9320  -23.0893  -41.7221 O.2       0 UNK        -0.5176 
      4 N          16.5314  -24.8851  -42.9044 N.am      1 UNK        -0.4884 
      5 CA         17.1259  -25.6119  -44.0339 C.3       1 UNK         0.0853 
      6 C6         16.9148  -27.1403  -43.8963 C.3       10 UNK        -0.0849 
      7 S7         15.1547  -27.6209  -43.8212 S.3       10 UNK        -0.2776 
      8 C8         15.0104  -28.8004  -45.2066 C.3       10 UNK         0.0316 
      9 C9         15.9699  -29.9777  -45.0731 C.ar      10 UNK        -0.0863 
     10 C10        15.8742  -30.8508  -43.9846 C.ar      10 UNK        -0.1009 
     11 C11        16.7687  -31.9169  -43.8450 C.ar      10 UNK        -0.0712 
     12 C12        17.7545  -32.1158  -44.8157 C.ar      10 UNK        -0.0894 
     13 C13        17.8744  -31.2378  -45.8973 C.ar      10 UNK        -0.0745 
     14 C14        16.9683  -30.1819  -46.0306 C.ar      10 UNK        -0.0972 
     15 C15        19.0188  -31.3980  -46.8897 C.3       10 UNK         0.0209 
     16 S16        20.1985  -30.0051  -46.8163 S.3       10 UNK        -0.2568 
     17 C17        20.6198  -29.9630  -45.0391 C.3       10 UNK        -0.0983 
     18 CA         21.4322  -28.7165  -44.6060 C.3       3 UNK         0.0876 
     19 N          20.8429  -27.4733  -45.1103 N.am      3 UNK        -0.4424 
     20 C          21.4433  -26.2767  -45.1422 C.2       2 UNK         0.4918 
     21 O          22.5882  -26.0736  -44.7403 O.2       2 UNK        -0.4875 
     22 CA         20.5928  -25.0994  -45.6577 C.3       2 UNK         0.0481 
     23 CB         20.8043  -24.9069  -47.1674 C.3       2 UNK        -0.1831 
     24 N          19.1575  -25.2535  -45.3772 N.am      2 UNK        -0.4498 
     25 C          18.6369  -25.3293  -44.1434 C.2       1 UNK         0.5027 
     26 O          19.3150  -25.2527  -43.1172 O.2       1 UNK        -0.4969 
     27 C          21.6121  -28.7310  -43.0698 C.2       3 UNK         0.5005 
     28 O          22.2430  -29.6578  -42.5632 O.2       3 UNK        -0.5279 
     29 N          21.0385  -27.7569  -42.3438 N.am      4 UNK        -0.4463 
     30 CA         21.1551  -27.6343  -40.8873 C.3       4 UNK         0.0283 
     31 CB         19.9254  -26.8938  -40.3374 C.3       4 UNK        -0.1875 
     32 C          22.4484  -26.9267  -40.4415 C.2       4 UNK         0.4949 
     33 O          22.7716  -26.9711  -39.2536 O.2       4 UNK        -0.5039 
     34 N          23.1588  -26.2711  -41.3716 N.am      5 UNK        -0.4663 
     35 CA         24.3736  -25.4869  -41.1262 C.3       5 UNK         0.0242 
     36 CB         24.5767  -24.5164  -42.3050 C.3       5 UNK        -0.1982 
     37 C          25.6091  -26.3753  -40.8692 C.2       5 UNK         0.5017 
     38 O          26.5240  -26.4035  -41.6946 O.2       5 UNK        -0.5012 
     39 N          25.5920  -27.0704  -39.7221 N.am      6 UNK        -0.4439 
     40 CA         26.5368  -28.0796  -39.2216 C.3       6 UNK         0.0297 
     41 CB         27.9960  -27.5813  -39.2306 C.3       6 UNK        -0.2006 
     42 C          26.3895  -29.4247  -39.9543 C.2       6 UNK         0.4892 
     43 O          26.1724  -29.4491  -41.1667 O.2       6 UNK        -0.5089 
     44 N          26.5010  -30.5217  -39.1858 N.am      7 UNK        -0.4243 
     45 CA         26.2247  -31.9112  -39.5888 C.3       7 UNK         0.0196 
     46 CB         27.2877  -32.4221  -40.5853 C.3       7 UNK        -0.2007 
     47 C          24.7811  -32.0534  -40.1115 C.2       7 UNK         0.5020 
     48 O          24.5703  -32.4502  -41.2590 O.2       7 UNK        -0.5147 
     49 N          23.8299  -31.6388  -39.2602 N.am      8 UNK        -0.4734 
     50 CA         22.4231  -31.3820  -39.5790 C.3       8 UNK         0.0238 
     51 CB         21.6587  -31.0321  -38.2915 C.3       8 UNK        -0.1912 
     52 C          21.7214  -32.5159  -40.3450 C.2       8 UNK         0.5038 
     53 O          21.6346  -33.6329  -39.8301 O.2       8 UNK        -0.5046 
     54 N          21.2459  -32.1868  -41.5519 N.am      9 UNK        -0.4200 
     55 CA         20.5884  -33.0814  -42.5188 C.3       9 UNK         0.0839 
     56 C          21.5400  -34.1053  -43.2090 C.2       9 UNK         0.5513 
     57 N          22.8535  -34.0402  -43.0279 N.am      9 UNK        -0.7519 
     58 O          21.0797  -34.9596  -43.9619 O.2       9 UNK        -0.4960 
     59 C59        19.2888  -33.7511  -41.9807 C.3       10 UNK        -0.0876 
     60 S60        18.0158  -32.5541  -41.4411 S.3       10 UNK        -0.2414 
     61 C61        16.6711  -32.8442  -42.6411 C.3       10 UNK         0.0169 
     62 H62        16.3440  -21.6340  -43.7411 H         1 UNK         0.0903 
     63 H63        16.4617  -22.9781  -44.8619 H         1 UNK         0.0903 
     64 H64        17.8765  -22.4804  -43.9150 H         1 UNK         0.0903 
     65 H65        16.2443  -25.4749  -42.1368 H         1 UNK         0.3096 
     66 H66        16.6358  -25.2816  -44.9516 H         1 UNK         0.1121 
     67 H67        17.4008  -27.5199  -42.9946 H         1 UNK         0.0849 
     68 H68        17.3906  -27.6588  -44.7300 H         1 UNK         0.0849 
     69 H69        13.9877  -29.1781  -45.2449 H         1 UNK         0.0865 
     70 H70        15.1737  -28.2670  -46.1445 H         1 UNK         0.0865 
     71 H71        15.1105  -30.6860  -43.2365 H         1 UNK         0.1346 
     72 H72        18.4481  -32.9378  -44.7120 H         1 UNK         0.1412 
     73 H73        17.0651  -29.5022  -46.8665 H         1 UNK         0.1426 
     74 H74        19.5616  -32.3274  -46.7096 H         1 UNK         0.0716 
     75 H75        18.6135  -31.4687  -47.8999 H         1 UNK         0.0716 
     76 H76        21.1801  -30.8719  -44.8142 H         1 UNK         0.0695 
     77 H77        19.6979  -30.0137  -44.4577 H         1 UNK         0.0695 
     78 H78        22.4321  -28.8003  -45.0378 H         1 UNK         0.0983 
     79 H79        19.9139  -27.5549  -45.4944 H         1 UNK         0.3095 
     80 H80        20.9369  -24.1972  -45.1476 H         1 UNK         0.0454 
     81 H81        20.2760  -24.0268  -47.5342 H         1 UNK         0.0851 
     82 H82        20.4601  -25.7697  -47.7391 H         1 UNK         0.0851 
     83 H83        21.8614  -24.7656  -47.3974 H         1 UNK         0.0851 
     84 H84        18.5474  -25.3282  -46.1794 H         1 UNK         0.2976 
     85 H85        20.5266  -27.0200  -42.8156 H         1 UNK         0.3116 
     86 H86        21.1535  -28.6315  -40.4467 H         1 UNK         0.0646 
     87 H87        18.9963  -27.3598  -40.6659 H         1 UNK         0.0847 
     88 H88        19.9238  -26.9030  -39.2467 H         1 UNK         0.0847 
     89 H89        19.9079  -25.8491  -40.6488 H         1 UNK         0.0847 
     90 H90        22.8450  -26.3155  -42.3322 H         1 UNK         0.3040 
     91 H91        24.2191  -24.8828  -40.2290 H         1 UNK         0.1015 
     92 H92        23.7188  -23.8550  -42.4279 H         1 UNK         0.0786 
     93 H93        24.7249  -25.0487  -43.2456 H         1 UNK         0.0786 
     94 H94        25.4518  -23.8850  -42.1455 H         1 UNK         0.0786 
     95 H95        24.7233  -27.0056  -39.1971 H         1 UNK         0.3172 
     96 H96        26.2522  -28.2373  -38.1799 H         1 UNK         0.0595 
     97 H97        28.0903  -26.6131  -38.7390 H         1 UNK         0.0839 
     98 H98        28.3898  -27.4856  -40.2428 H         1 UNK         0.0839 
     99 H99        28.6462  -28.2788  -38.7014 H         1 UNK         0.0839 
    100 H100       26.7015  -30.3896  -38.2036 H         1 UNK         0.2998 
    101 H101       26.2950  -32.5252  -38.6893 H         1 UNK         0.0822 
    102 H102       28.2929  -32.3307  -40.1739 H         1 UNK         0.0787 
    103 H103       27.1261  -33.4753  -40.8184 H         1 UNK         0.0787 
    104 H104       27.2606  -31.8749  -41.5281 H         1 UNK         0.0787 
    105 H105       24.1253  -31.3571  -38.3370 H         1 UNK         0.3055 
    106 H106       22.4281  -30.4933  -40.2071 H         1 UNK         0.1106 
    107 H107       22.0708  -30.1442  -37.8112 H         1 UNK         0.0828 
    108 H108       20.6096  -30.8231  -38.5062 H         1 UNK         0.0828 
    109 H109       21.6868  -31.8512  -37.5718 H         1 UNK         0.0828 
    110 H110       21.4642  -31.2590  -41.9061 H         1 UNK         0.2931 
    111 H111       20.2841  -32.4190  -43.3270 H         1 UNK         0.0412 
    112 H112       23.2728  -33.3550  -42.4053 H         1 UNK         0.3472 
    113 H113       23.4445  -34.7056  -43.4996 H         1 UNK         0.3472 
    114 H114       18.8564  -34.4031  -42.7405 H         1 UNK         0.0970 
    115 H115       19.5170  -34.4083  -41.1408 H         1 UNK         0.0970 
    116 H116       15.7221  -32.6869  -42.1262 H         1 UNK         0.0612 
    117 H117       16.6599  -33.8843  -42.9688 H         1 UNK         0.0612 
@<TRIPOS>BOND
     1    1    2 1    
     2    1   62 1    
     3    1   63 1    
     4    1   64 1    
     5    2    3 2    
     6    2    4 am   BACKBONE|DICT|INTERRES
     7    4    5 1    
     8    4   65 1    
     9    5    6 1    
    10    5   25 1    
    11    5   66 1    
    12    6    7 1    
    13    6   67 1    
    14    6   68 1    
    15    7    8 1    
    16    8    9 1    
    17    8   69 1    
    18    8   70 1    
    19    9   10 ar   
    20    9   14 ar   
    21   10   11 ar   
    22   10   71 1    
    23   11   12 ar   
    24   11   61 1    
    25   12   13 ar   
    26   12   72 1    
    27   13   14 ar   
    28   13   15 1    
    29   14   73 1    
    30   15   16 1    
    31   15   74 1    
    32   15   75 1    
    33   16   17 1    
    34   17   18 1    
    35   17   76 1    
    36   17   77 1    
    37   18   19 1    
    38   18   27 1    
    39   18   78 1    
    40   19   20 am   BACKBONE|DICT|INTERRES
    41   19   79 1    
    42   20   21 2    
    43   20   22 1    
    44   22   23 1    
    45   22   24 1    
    46   22   80 1    
    47   23   81 1    
    48   23   82 1    
    49   23   83 1    
    50   24   25 am   BACKBONE|DICT|INTERRES
    51   24   84 1    
    52   25   26 2    
    53   27   28 2    
    54   27   29 am   BACKBONE|DICT|INTERRES
    55   29   30 1    
    56   29   85 1    
    57   30   31 1    
    58   30   32 1    
    59   30   86 1    
    60   31   87 1    
    61   31   88 1    
    62   31   89 1    
    63   32   33 2    
    64   32   34 am   BACKBONE|DICT|INTERRES
    65   34   35 1    
    66   34   90 1    
    67   35   36 1    
    68   35   37 1    
    69   35   91 1    
    70   36   92 1    
    71   36   93 1    
    72   36   94 1    
    73   37   38 2    
    74   37   39 am   BACKBONE|DICT|INTERRES
    75   39   40 1    
    76   39   95 1    
    77   40   41 1    
    78   40   42 1    
    79   40   96 1    
    80   41   97 1    
    81   41   98 1    
    82   41   99 1    
    83   42   43 2    
    84   42   44 am   BACKBONE|DICT|INTERRES
    85   44   45 1    
    86   44  100 1    
    87   45   46 1    
    88   45   47 1    
    89   45  101 1    
    90   46  102 1    
    91   46  103 1    
    92   46  104 1    
    93   47   48 2    
    94   47   49 am   BACKBONE|DICT|INTERRES
    95   49   50 1    
    96   49  105 1    
    97   50   51 1    
    98   50   52 1    
    99   50  106 1    
   100   51  107 1    
   101   51  108 1    
   102   51  109 1    
   103   52   53 2    
   104   52   54 am   BACKBONE|DICT|INTERRES
   105   54   55 1    
   106   54  110 1    
   107   55   56 1    
   108   55   59 1    
   109   55  111 1    
   110   56   57 am   BACKBONE|DICT|INTERRES
   111   56   58 2    
   112   57  112 1    
   113   57  113 1    
   114   59   60 1    
   115   59  114 1    
   116   59  115 1    
   117   60   61 1    
   118   61  116 1    
   119   61  117 1    
@<TRIPOS>SUBSTRUCTURE
     1 UNK         1 GROUP             0       ****    0 ROOT    
