@<TRIPOS>MOLECULE
3R8
117   119    1
SMALL
USER_CHARGES


@<TRIPOS>ATOM
      1 CA         11.9573  -29.5449  -43.8158 C.3       0 UNK        -0.2013 
      2 C          13.0683  -28.5884  -43.4084 C.2       0 UNK         0.4866 
      3 O          13.1396  -28.1925  -42.2442 O.2       0 UNK        -0.5176 
      4 N          13.9259  -28.2043  -44.3615 N.am      1 UNK        -0.4884 
      5 CA         15.0961  -27.3471  -44.1473 C.3       1 UNK         0.0853 
      6 C6         15.5997  -26.6847  -45.4658 C.3       10 UNK        -0.0849 
      7 S7         15.5538  -27.6814  -47.0024 S.3       10 UNK        -0.2776 
      8 C8         16.5073  -29.1948  -46.6245 C.3       10 UNK         0.0316 
      9 C9         17.9910  -29.0087  -46.2977 C.ar      10 UNK        -0.0863 
     10 C10        18.6392  -30.0252  -45.5876 C.ar      10 UNK        -0.1009 
     11 C11        20.0061  -29.9481  -45.3137 C.ar      10 UNK        -0.0712 
     12 C12        20.7332  -28.8401  -45.7513 C.ar      10 UNK        -0.0894 
     13 C13        20.1034  -27.8064  -46.4481 C.ar      10 UNK        -0.0745 
     14 C14        18.7336  -27.8976  -46.7234 C.ar      10 UNK        -0.0972 
     15 C15        20.9141  -26.6162  -46.9438 C.3       10 UNK         0.0209 
     16 S16        20.9958  -25.2658  -45.7230 S.3       10 UNK        -0.2568 
     17 C17        22.2873  -25.8405  -44.5641 C.3       10 UNK        -0.0983 
     18 CA         21.8020  -25.8680  -43.0920 C.3       3 UNK         0.0876 
     19 N          20.7277  -26.8337  -42.8644 N.am      3 UNK        -0.4424 
     20 C          19.4514  -26.5052  -42.6518 C.2       2 UNK         0.4918 
     21 O          19.0248  -25.3463  -42.6500 O.2       2 UNK        -0.4875 
     22 CA         18.4766  -27.6524  -42.3727 C.3       2 UNK         0.0481 
     23 CB         18.3614  -27.9294  -40.8639 C.3       2 UNK        -0.1831 
     24 N          17.1872  -27.2461  -42.9115 N.am      2 UNK        -0.4498 
     25 C          16.2336  -28.0558  -43.3787 C.2       1 UNK         0.5027 
     26 O          16.2489  -29.2834  -43.2536 O.2       1 UNK        -0.4969 
     27 C          22.9487  -26.2330  -42.1392 C.2       3 UNK         0.5005 
     28 O          23.2758  -27.4146  -42.0117 O.2       3 UNK        -0.5279 
     29 N          23.5565  -25.2192  -41.5059 N.am      4 UNK        -0.4463 
     30 CA         24.6138  -25.3637  -40.4944 C.3       4 UNK         0.0283 
     31 CB         24.8818  -23.9943  -39.8483 C.3       4 UNK        -0.1875 
     32 C          25.9286  -25.9766  -41.0135 C.2       4 UNK         0.4949 
     33 O          26.7231  -26.4651  -40.2103 O.2       4 UNK        -0.5039 
     34 N          26.1366  -25.9449  -42.3362 N.am      5 UNK        -0.4663 
     35 CA         27.2629  -26.5840  -43.0200 C.3       5 UNK         0.0242 
     36 CB         27.4040  -25.9672  -44.4217 C.3       5 UNK        -0.1982 
     37 C          27.1316  -28.1169  -43.1185 C.2       5 UNK         0.5017 
     38 O          28.1330  -28.7791  -43.3951 O.2       5 UNK        -0.5012 
     39 N          25.9198  -28.6510  -42.9160 N.am      6 UNK        -0.4439 
     40 CA         25.6088  -30.0780  -42.9563 C.3       6 UNK         0.0297 
     41 CB         24.3458  -30.2705  -43.8091 C.3       6 UNK        -0.2006 
     42 C          25.4148  -30.6287  -41.5341 C.2       6 UNK         0.4892 
     43 O          25.2816  -29.8632  -40.5753 O.2       6 UNK        -0.5089 
     44 N          25.4143  -31.9629  -41.4216 N.am      7 UNK        -0.4243 
     45 CA         25.3178  -32.7139  -40.1674 C.3       7 UNK         0.0196 
     46 CB         25.8655  -34.1349  -40.4000 C.3       7 UNK        -0.2007 
     47 C          23.8894  -32.7231  -39.5884 C.2       7 UNK         0.5020 
     48 O          23.2321  -33.7651  -39.5861 O.2       7 UNK        -0.5147 
     49 N          23.4309  -31.5546  -39.1209 N.am      8 UNK        -0.4734 
     50 CA         22.1715  -31.2559  -38.4143 C.3       8 UNK         0.0238 
     51 CB         22.0771  -32.0435  -37.0926 C.3       8 UNK        -0.1912 
     52 C          20.8768  -31.4136  -39.2358 C.2       8 UNK         0.5038 
     53 O          19.9269  -30.6717  -38.9838 O.2       8 UNK        -0.5046 
     54 N          20.8596  -32.3463  -40.1947 N.am      9 UNK        -0.4200 
     55 CA         19.7750  -32.6107  -41.1583 C.3       9 UNK         0.0839 
     56 C          18.5068  -33.2762  -40.5446 C.2       9 UNK         0.5513 
     57 N          18.5570  -33.7977  -39.3246 N.am      9 UNK        -0.7519 
     58 O          17.4682  -33.3554  -41.1955 O.2       9 UNK        -0.4960 
     59 C59        19.4305  -31.3805  -42.0489 C.3       10 UNK        -0.0876 
     60 S60        20.9149  -30.6370  -42.8088 S.3       10 UNK        -0.2414 
     61 C61        20.7123  -31.0636  -44.5622 C.3       10 UNK         0.0169 
     62 H62        12.0302  -30.4690  -43.2429 H         1 UNK         0.0903 
     63 H63        10.9841  -29.0965  -43.6176 H         1 UNK         0.0903 
     64 H64        12.0047  -29.7981  -44.8748 H         1 UNK         0.0903 
     65 H65        13.8274  -28.5619  -45.3013 H         1 UNK         0.3096 
     66 H66        14.7703  -26.5361  -43.4909 H         1 UNK         0.1121 
     67 H67        14.9693  -25.8163  -45.6632 H         1 UNK         0.0849 
     68 H68        16.6033  -26.2692  -45.3567 H         1 UNK         0.0849 
     69 H69        16.0066  -29.7347  -45.8209 H         1 UNK         0.0865 
     70 H70        16.4447  -29.8474  -47.4961 H         1 UNK         0.0865 
     71 H71        18.0782  -30.8878  -45.2542 H         1 UNK         0.1346 
     72 H72        21.7937  -28.7904  -45.5501 H         1 UNK         0.1412 
     73 H73        18.2565  -27.1076  -47.2860 H         1 UNK         0.1426 
     74 H74        20.4659  -26.2261  -47.8588 H         1 UNK         0.0716 
     75 H75        21.9236  -26.9280  -47.2163 H         1 UNK         0.0716 
     76 H76        22.6579  -26.8199  -44.8669 H         1 UNK         0.0695 
     77 H77        23.1334  -25.1588  -44.6685 H         1 UNK         0.0695 
     78 H78        21.4615  -24.8644  -42.8270 H         1 UNK         0.0983 
     79 H79        21.0241  -27.7987  -42.7934 H         1 UNK         0.3095 
     80 H80        18.8193  -28.5454  -42.8968 H         1 UNK         0.0454 
     81 H81        19.3175  -28.2583  -40.4544 H         1 UNK         0.0851 
     82 H82        18.0574  -27.0388  -40.3126 H         1 UNK         0.0851 
     83 H83        17.6333  -28.7135  -40.6565 H         1 UNK         0.0851 
     84 H84        17.1203  -26.2465  -43.0632 H         1 UNK         0.2976 
     85 H85        23.2391  -24.2763  -41.6838 H         1 UNK         0.3116 
     86 H86        24.2358  -26.0361  -39.7211 H         1 UNK         0.0646 
     87 H87        25.6394  -24.0722  -39.0671 H         1 UNK         0.0847 
     88 H88        23.9830  -23.5900  -39.3824 H         1 UNK         0.0847 
     89 H89        25.2413  -23.2668  -40.5772 H         1 UNK         0.0847 
     90 H90        25.4382  -25.5055  -42.9174 H         1 UNK         0.3040 
     91 H91        28.1755  -26.3730  -42.4577 H         1 UNK         0.1015 
     92 H92        26.5181  -26.1454  -45.0328 H         1 UNK         0.0786 
     93 H93        28.2566  -26.3938  -44.9522 H         1 UNK         0.0786 
     94 H94        27.5655  -24.8903  -44.3677 H         1 UNK         0.0786 
     95 H95        25.1659  -28.0539  -42.5896 H         1 UNK         0.3172 
     96 H96        26.4247  -30.6347  -43.4218 H         1 UNK         0.0595 
     97 H97        24.0187  -31.3108  -43.8182 H         1 UNK         0.0839 
     98 H98        23.5203  -29.6683  -43.4325 H         1 UNK         0.0839 
     99 H99        24.5210  -29.9776  -44.8443 H         1 UNK         0.0839 
    100 H100       25.4974  -32.5150  -42.2632 H         1 UNK         0.2998 
    101 H101       25.9610  -32.2330  -39.4268 H         1 UNK         0.0822 
    102 H102       25.8294  -34.7223  -39.4814 H         1 UNK         0.0787 
    103 H103       25.2895  -34.6733  -41.1539 H         1 UNK         0.0787 
    104 H104       26.9057  -34.1114  -40.7255 H         1 UNK         0.0787 
    105 H105       24.0266  -30.7493  -39.2985 H         1 UNK         0.3055 
    106 H106       22.2308  -30.1965  -38.1579 H         1 UNK         0.1106 
    107 H107       22.0083  -33.1185  -37.2610 H         1 UNK         0.0828 
    108 H108       22.9435  -31.8582  -36.4577 H         1 UNK         0.0828 
    109 H109       21.1929  -31.7484  -36.5258 H         1 UNK         0.0828 
    110 H110       21.6744  -32.9489  -40.2605 H         1 UNK         0.2931 
    111 H111       20.1824  -33.3724  -41.8240 H         1 UNK         0.0412 
    112 H112       17.7359  -34.2376  -38.9394 H         1 UNK         0.3472 
    113 H113       19.4073  -33.7512  -38.7864 H         1 UNK         0.3472 
    114 H114       18.9287  -30.6174  -41.4559 H         1 UNK         0.0970 
    115 H115       18.7201  -31.6543  -42.8305 H         1 UNK         0.0970 
    116 H116       20.1790  -32.0096  -44.6658 H         1 UNK         0.0612 
    117 H117       21.6987  -31.2252  -44.9986 H         1 UNK         0.0612 
@<TRIPOS>BOND
     1    1    2 1    
     2    1   62 1    
     3    1   63 1    
     4    1   64 1    
     5    2    3 2    
     6    2    4 am   BACKBONE|DICT|INTERRES
     7    4    5 1    
     8    4   65 1    
     9    5    6 1    
    10    5   25 1    
    11    5   66 1    
    12    6    7 1    
    13    6   67 1    
    14    6   68 1    
    15    7    8 1    
    16    8    9 1    
    17    8   69 1    
    18    8   70 1    
    19    9   10 ar   
    20    9   14 ar   
    21   10   11 ar   
    22   10   71 1    
    23   11   12 ar   
    24   11   61 1    
    25   12   13 ar   
    26   12   72 1    
    27   13   14 ar   
    28   13   15 1    
    29   14   73 1    
    30   15   16 1    
    31   15   74 1    
    32   15   75 1    
    33   16   17 1    
    34   17   18 1    
    35   17   76 1    
    36   17   77 1    
    37   18   19 1    
    38   18   27 1    
    39   18   78 1    
    40   19   20 am   BACKBONE|DICT|INTERRES
    41   19   79 1    
    42   20   21 2    
    43   20   22 1    
    44   22   23 1    
    45   22   24 1    
    46   22   80 1    
    47   23   81 1    
    48   23   82 1    
    49   23   83 1    
    50   24   25 am   BACKBONE|DICT|INTERRES
    51   24   84 1    
    52   25   26 2    
    53   27   28 2    
    54   27   29 am   BACKBONE|DICT|INTERRES
    55   29   30 1    
    56   29   85 1    
    57   30   31 1    
    58   30   32 1    
    59   30   86 1    
    60   31   87 1    
    61   31   88 1    
    62   31   89 1    
    63   32   33 2    
    64   32   34 am   BACKBONE|DICT|INTERRES
    65   34   35 1    
    66   34   90 1    
    67   35   36 1    
    68   35   37 1    
    69   35   91 1    
    70   36   92 1    
    71   36   93 1    
    72   36   94 1    
    73   37   38 2    
    74   37   39 am   BACKBONE|DICT|INTERRES
    75   39   40 1    
    76   39   95 1    
    77   40   41 1    
    78   40   42 1    
    79   40   96 1    
    80   41   97 1    
    81   41   98 1    
    82   41   99 1    
    83   42   43 2    
    84   42   44 am   BACKBONE|DICT|INTERRES
    85   44   45 1    
    86   44  100 1    
    87   45   46 1    
    88   45   47 1    
    89   45  101 1    
    90   46  102 1    
    91   46  103 1    
    92   46  104 1    
    93   47   48 2    
    94   47   49 am   BACKBONE|DICT|INTERRES
    95   49   50 1    
    96   49  105 1    
    97   50   51 1    
    98   50   52 1    
    99   50  106 1    
   100   51  107 1    
   101   51  108 1    
   102   51  109 1    
   103   52   53 2    
   104   52   54 am   BACKBONE|DICT|INTERRES
   105   54   55 1    
   106   54  110 1    
   107   55   56 1    
   108   55   59 1    
   109   55  111 1    
   110   56   57 am   BACKBONE|DICT|INTERRES
   111   56   58 2    
   112   57  112 1    
   113   57  113 1    
   114   59   60 1    
   115   59  114 1    
   116   59  115 1    
   117   60   61 1    
   118   61  116 1    
   119   61  117 1    
@<TRIPOS>SUBSTRUCTURE
     1 UNK         1 GROUP             0       ****    0 ROOT    
