@<TRIPOS>MOLECULE
3R8
117   119    1
SMALL
USER_CHARGES


@<TRIPOS>ATOM
      1 CA         19.0384  -26.7467  -38.7595 C.3       0 UNK        -0.2013 
      2 C          18.7034  -26.3318  -40.1837 C.2       0 UNK         0.4866 
      3 O          18.5768  -25.1379  -40.4588 O.2       0 UNK        -0.5176 
      4 N          18.5433  -27.3057  -41.0875 N.am      1 UNK        -0.4884 
      5 CA         18.2487  -27.0815  -42.5053 C.3       1 UNK         0.0853 
      6 C6         17.7724  -28.3700  -43.2109 C.3       10 UNK        -0.0849 
      7 S7         16.2215  -29.0490  -42.5222 S.3       10 UNK        -0.2776 
      8 C8         15.3784  -29.6836  -44.0172 C.3       10 UNK         0.0316 
      9 C9         16.3288  -30.4543  -44.9251 C.ar      10 UNK        -0.0863 
     10 C10        16.9674  -31.6047  -44.4559 C.ar      10 UNK        -0.1009 
     11 C11        17.9561  -32.2397  -45.2193 C.ar      10 UNK        -0.0712 
     12 C12        18.2440  -31.7414  -46.4949 C.ar      10 UNK        -0.0894 
     13 C13        17.5849  -30.6119  -46.9927 C.ar      10 UNK        -0.0745 
     14 C14        16.6256  -29.9743  -46.2034 C.ar      10 UNK        -0.0972 
     15 C15        17.9331  -30.0561  -48.3682 C.3       10 UNK         0.0209 
     16 S16        18.8751  -28.4967  -48.2645 S.3       10 UNK        -0.2568 
     17 C17        20.3790  -29.0606  -47.4037 C.3       10 UNK        -0.0983 
     18 CA         21.3323  -27.9169  -46.9757 C.3       3 UNK         0.0876 
     19 N          20.6404  -26.8790  -46.2023 N.am      3 UNK        -0.4424 
     20 C          21.1851  -25.7262  -45.7890 C.2       2 UNK         0.4918 
     21 O          22.3221  -25.3603  -46.0862 O.2       2 UNK        -0.4875 
     22 CA         20.3308  -24.8342  -44.8671 C.3       2 UNK         0.0481 
     23 CB         19.6896  -23.6956  -45.6762 C.3       2 UNK        -0.1831 
     24 N          19.2849  -25.5361  -44.1093 N.am      2 UNK        -0.4498 
     25 C          19.4902  -26.5282  -43.2303 C.2       1 UNK         0.5027 
     26 O          20.5921  -27.0455  -43.0276 O.2       1 UNK        -0.4969 
     27 C          22.5125  -28.5323  -46.1941 C.2       3 UNK         0.5005 
     28 O          23.5412  -28.8532  -46.7913 O.2       3 UNK        -0.5279 
     29 N          22.3155  -28.7120  -44.8813 N.am      4 UNK        -0.4463 
     30 CA         23.2497  -29.3628  -43.9660 C.3       4 UNK         0.0283 
     31 CB         22.4510  -30.3309  -43.0836 C.3       4 UNK        -0.1875 
     32 C          24.0177  -28.3466  -43.1088 C.2       4 UNK         0.4949 
     33 O          25.1523  -28.6303  -42.7228 O.2       4 UNK        -0.5039 
     34 N          23.3984  -27.1894  -42.8272 N.am      5 UNK        -0.4663 
     35 CA         23.9273  -26.0571  -42.0618 C.3       5 UNK         0.0242 
     36 CB         25.0281  -25.3295  -42.8662 C.3       5 UNK        -0.1982 
     37 C          24.3555  -26.4930  -40.6503 C.2       5 UNK         0.5017 
     38 O          23.4864  -26.7912  -39.8312 O.2       5 UNK        -0.5012 
     39 N          25.6704  -26.5747  -40.4050 N.am      6 UNK        -0.4439 
     40 CA         26.2722  -27.0488  -39.1554 C.3       6 UNK         0.0297 
     41 CB         27.7932  -26.8341  -39.2127 C.3       6 UNK        -0.2006 
     42 C          25.9493  -28.5173  -38.8168 C.2       6 UNK         0.4892 
     43 O          25.9346  -28.8631  -37.6351 O.2       6 UNK        -0.5089 
     44 N          25.6816  -29.3475  -39.8373 N.am      7 UNK        -0.4243 
     45 CA         25.2438  -30.7374  -39.6679 C.3       7 UNK         0.0196 
     46 CB         25.6615  -31.5611  -40.8978 C.3       7 UNK        -0.2007 
     47 C          23.7338  -30.8658  -39.3838 C.2       7 UNK         0.5020 
     48 O          23.2939  -31.9478  -38.9957 O.2       7 UNK        -0.5147 
     49 N          22.9713  -29.7770  -39.5732 N.am      8 UNK        -0.4734 
     50 CA         21.5550  -29.5465  -39.2449 C.3       8 UNK         0.0238 
     51 CB         21.3435  -29.5971  -37.7198 C.3       8 UNK        -0.1912 
     52 C          20.5031  -30.4182  -39.9570 C.2       8 UNK         0.5038 
     53 O          19.4099  -29.9137  -40.2185 O.2       8 UNK        -0.5046 
     54 N          20.8163  -31.6884  -40.2357 N.am      9 UNK        -0.4200 
     55 CA         19.9189  -32.7449  -40.7358 C.3       9 UNK         0.0839 
     56 C          18.8736  -33.1984  -39.6756 C.2       9 UNK         0.5513 
     57 N          18.0863  -32.2902  -39.1145 N.am      9 UNK        -0.7519 
     58 O          18.7902  -34.3796  -39.3495 O.2       9 UNK        -0.4960 
     59 C59        19.2626  -32.4029  -42.1037 C.3       10 UNK        -0.0876 
     60 S60        18.5594  -33.8674  -42.9446 S.3       10 UNK        -0.2414 
     61 C61        18.7552  -33.4453  -44.7137 C.3       10 UNK         0.0169 
     62 H62        18.4593  -26.1576  -38.0489 H         1 UNK         0.0903 
     63 H63        18.8098  -27.7973  -38.5843 H         1 UNK         0.0903 
     64 H64        20.0964  -26.5814  -38.5575 H         1 UNK         0.0903 
     65 H65        18.6988  -28.2747  -40.8174 H         1 UNK         0.3096 
     66 H66        17.4493  -26.3396  -42.5675 H         1 UNK         0.1121 
     67 H67        17.6198  -28.1640  -44.2716 H         1 UNK         0.0849 
     68 H68        18.5369  -29.1486  -43.1569 H         1 UNK         0.0849 
     69 H69        14.5555  -30.3336  -43.7170 H         1 UNK         0.0865 
     70 H70        14.9288  -28.8441  -44.5499 H         1 UNK         0.0865 
     71 H71        16.7150  -31.9628  -43.4688 H         1 UNK         0.1346 
     72 H72        19.0025  -32.2242  -47.0963 H         1 UNK         0.1412 
     73 H73        16.1403  -29.0815  -46.5742 H         1 UNK         0.1426 
     74 H74        17.0137  -29.8771  -48.9275 H         1 UNK         0.0716 
     75 H75        18.5059  -30.7827  -48.9466 H         1 UNK         0.0716 
     76 H76        20.0726  -29.6298  -46.5246 H         1 UNK         0.0695 
     77 H77        20.8975  -29.7636  -48.0589 H         1 UNK         0.0695 
     78 H78        21.7377  -27.4457  -47.8737 H         1 UNK         0.0983 
     79 H79        19.6813  -27.0737  -45.9583 H         1 UNK         0.3095 
     80 H80        21.0106  -24.3894  -44.1373 H         1 UNK         0.0454 
     81 H81        20.4451  -23.1336  -46.2272 H         1 UNK         0.0851 
     82 H82        18.9700  -24.0725  -46.4042 H         1 UNK         0.0851 
     83 H83        19.1741  -22.9870  -45.0278 H         1 UNK         0.0851 
     84 H84        18.3447  -25.1862  -44.2294 H         1 UNK         0.2976 
     85 H85        21.4630  -28.3515  -44.4700 H         1 UNK         0.3116 
     86 H86        23.9859  -29.9433  -44.5262 H         1 UNK         0.0646 
     87 H87        23.0840  -30.8214  -42.3472 H         1 UNK         0.0847 
     88 H88        21.9957  -31.1164  -43.6861 H         1 UNK         0.0847 
     89 H89        21.6558  -29.8151  -42.5453 H         1 UNK         0.0847 
     90 H90        22.4180  -27.1031  -43.0855 H         1 UNK         0.3040 
     91 H91        23.0989  -25.3594  -41.9259 H         1 UNK         0.1015 
     92 H92        24.6288  -24.9494  -43.8070 H         1 UNK         0.0786 
     93 H93        25.8680  -25.9806  -43.1110 H         1 UNK         0.0786 
     94 H94        25.4178  -24.4717  -42.3163 H         1 UNK         0.0786 
     95 H95        26.3038  -26.3470  -41.1580 H         1 UNK         0.3172 
     96 H96        25.8719  -26.4343  -38.3463 H         1 UNK         0.0595 
     97 H97        28.2671  -27.1511  -38.2824 H         1 UNK         0.0839 
     98 H98        28.0422  -25.7827  -39.3575 H         1 UNK         0.0839 
     99 H99        28.2518  -27.4043  -40.0217 H         1 UNK         0.0839 
    100 H100       25.7020  -28.9873  -40.7872 H         1 UNK         0.2998 
    101 H101       25.7570  -31.1640  -38.8032 H         1 UNK         0.0822 
    102 H102       26.7469  -31.6002  -40.9903 H         1 UNK         0.0787 
    103 H103       25.3085  -32.5906  -40.8219 H         1 UNK         0.0787 
    104 H104       25.2692  -31.1475  -41.8251 H         1 UNK         0.0787 
    105 H105       23.4501  -28.9393  -39.8837 H         1 UNK         0.3055 
    106 H106       21.3545  -28.5244  -39.5700 H         1 UNK         0.1106 
    107 H107       21.5692  -30.5825  -37.3110 H         1 UNK         0.0828 
    108 H108       21.9759  -28.8699  -37.2102 H         1 UNK         0.0828 
    109 H109       20.3106  -29.3689  -37.4550 H         1 UNK         0.0828 
    110 H110       21.7246  -32.0049  -39.9035 H         1 UNK         0.2931 
    111 H111       20.5812  -33.5958  -40.9031 H         1 UNK         0.0412 
    112 H112       18.1831  -31.3192  -39.3860 H         1 UNK         0.3472 
    113 H113       17.4073  -32.5671  -38.4234 H         1 UNK         0.3472 
    114 H114       18.4819  -31.6509  -41.9804 H         1 UNK         0.0970 
    115 H115       20.0035  -31.9556  -42.7647 H         1 UNK         0.0970 
    116 H116       18.4650  -34.3173  -45.3009 H         1 UNK         0.0612 
    117 H117       19.8162  -33.2815  -44.9092 H         1 UNK         0.0612 
@<TRIPOS>BOND
     1    1    2 1    
     2    1   62 1    
     3    1   63 1    
     4    1   64 1    
     5    2    3 2    
     6    2    4 am   BACKBONE|DICT|INTERRES
     7    4    5 1    
     8    4   65 1    
     9    5    6 1    
    10    5   25 1    
    11    5   66 1    
    12    6    7 1    
    13    6   67 1    
    14    6   68 1    
    15    7    8 1    
    16    8    9 1    
    17    8   69 1    
    18    8   70 1    
    19    9   10 ar   
    20    9   14 ar   
    21   10   11 ar   
    22   10   71 1    
    23   11   12 ar   
    24   11   61 1    
    25   12   13 ar   
    26   12   72 1    
    27   13   14 ar   
    28   13   15 1    
    29   14   73 1    
    30   15   16 1    
    31   15   74 1    
    32   15   75 1    
    33   16   17 1    
    34   17   18 1    
    35   17   76 1    
    36   17   77 1    
    37   18   19 1    
    38   18   27 1    
    39   18   78 1    
    40   19   20 am   BACKBONE|DICT|INTERRES
    41   19   79 1    
    42   20   21 2    
    43   20   22 1    
    44   22   23 1    
    45   22   24 1    
    46   22   80 1    
    47   23   81 1    
    48   23   82 1    
    49   23   83 1    
    50   24   25 am   BACKBONE|DICT|INTERRES
    51   24   84 1    
    52   25   26 2    
    53   27   28 2    
    54   27   29 am   BACKBONE|DICT|INTERRES
    55   29   30 1    
    56   29   85 1    
    57   30   31 1    
    58   30   32 1    
    59   30   86 1    
    60   31   87 1    
    61   31   88 1    
    62   31   89 1    
    63   32   33 2    
    64   32   34 am   BACKBONE|DICT|INTERRES
    65   34   35 1    
    66   34   90 1    
    67   35   36 1    
    68   35   37 1    
    69   35   91 1    
    70   36   92 1    
    71   36   93 1    
    72   36   94 1    
    73   37   38 2    
    74   37   39 am   BACKBONE|DICT|INTERRES
    75   39   40 1    
    76   39   95 1    
    77   40   41 1    
    78   40   42 1    
    79   40   96 1    
    80   41   97 1    
    81   41   98 1    
    82   41   99 1    
    83   42   43 2    
    84   42   44 am   BACKBONE|DICT|INTERRES
    85   44   45 1    
    86   44  100 1    
    87   45   46 1    
    88   45   47 1    
    89   45  101 1    
    90   46  102 1    
    91   46  103 1    
    92   46  104 1    
    93   47   48 2    
    94   47   49 am   BACKBONE|DICT|INTERRES
    95   49   50 1    
    96   49  105 1    
    97   50   51 1    
    98   50   52 1    
    99   50  106 1    
   100   51  107 1    
   101   51  108 1    
   102   51  109 1    
   103   52   53 2    
   104   52   54 am   BACKBONE|DICT|INTERRES
   105   54   55 1    
   106   54  110 1    
   107   55   56 1    
   108   55   59 1    
   109   55  111 1    
   110   56   57 am   BACKBONE|DICT|INTERRES
   111   56   58 2    
   112   57  112 1    
   113   57  113 1    
   114   59   60 1    
   115   59  114 1    
   116   59  115 1    
   117   60   61 1    
   118   61  116 1    
   119   61  117 1    
@<TRIPOS>SUBSTRUCTURE
     1 UNK         1 GROUP             0       ****    0 ROOT    
