@<TRIPOS>MOLECULE
3R8
117   119    1
SMALL
USER_CHARGES


@<TRIPOS>ATOM
      1 CA         21.7110  -27.0348  -48.1601 C.3       0 UNK        -0.2013 
      2 C          20.3176  -26.5491  -48.5556 C.2       0 UNK         0.4866 
      3 O          20.2003  -25.7508  -49.4828 O.2       0 UNK        -0.5176 
      4 N          19.2331  -26.9963  -47.9035 N.am      1 UNK        -0.4884 
      5 CA         19.1999  -27.9077  -46.7492 C.3       1 UNK         0.0853 
      6 C6         17.7765  -28.4978  -46.5293 C.3       10 UNK        -0.0849 
      7 S7         17.7427  -30.2991  -46.8271 S.3       10 UNK        -0.2776 
      8 C8         16.4102  -30.8626  -45.7166 C.3       10 UNK         0.0316 
      9 C9         16.7276  -30.5982  -44.2517 C.ar      10 UNK        -0.0863 
     10 C10        17.7755  -31.2762  -43.6232 C.ar      10 UNK        -0.1009 
     11 C11        18.0932  -31.0088  -42.2882 C.ar      10 UNK        -0.0712 
     12 C12        17.3387  -30.0764  -41.5727 C.ar      10 UNK        -0.0894 
     13 C13        16.3119  -29.3691  -42.2009 C.ar      10 UNK        -0.0745 
     14 C14        15.9965  -29.6475  -43.5336 C.ar      10 UNK        -0.0972 
     15 C15        15.5855  -28.2557  -41.4668 C.3       10 UNK         0.0209 
     16 S16        16.3392  -26.6430  -41.8553 S.3       10 UNK        -0.2568 
     17 C17        17.6969  -26.5212  -40.6373 C.3       10 UNK        -0.0983 
     18 CA         19.0913  -27.0006  -41.1375 C.3       3 UNK         0.0876 
     19 N          19.4919  -26.4883  -42.4547 N.am      3 UNK        -0.4424 
     20 C          19.6266  -25.2233  -42.8632 C.2       2 UNK         0.4918 
     21 O          19.4440  -24.2482  -42.1330 O.2       2 UNK        -0.4875 
     22 CA         20.0545  -24.9840  -44.3251 C.3       2 UNK         0.0481 
     23 CB         21.5858  -24.8594  -44.4234 C.3       2 UNK        -0.1831 
     24 N          19.5399  -25.9288  -45.3319 N.am      2 UNK        -0.4498 
     25 C          19.7567  -27.2476  -45.4688 C.2       1 UNK         0.5027 
     26 O          20.3942  -27.9309  -44.6674 O.2       1 UNK        -0.4969 
     27 C          20.1581  -26.7829  -40.0420 C.2       3 UNK         0.5005 
     28 O          20.4908  -27.7274  -39.3234 O.2       3 UNK        -0.5279 
     29 N          20.6520  -25.5447  -39.9123 N.am      4 UNK        -0.4463 
     30 CA         21.6537  -25.1175  -38.9353 C.3       4 UNK         0.0283 
     31 CB         21.7840  -23.5870  -38.9880 C.3       4 UNK        -0.1875 
     32 C          23.0196  -25.7791  -39.1761 C.2       4 UNK         0.4949 
     33 O          23.4269  -25.9304  -40.3289 O.2       4 UNK        -0.5039 
     34 N          23.7013  -26.1319  -38.0753 N.am      5 UNK        -0.4663 
     35 CA         25.0126  -26.7985  -38.0204 C.3       5 UNK         0.0242 
     36 CB         26.1243  -25.8616  -38.5409 C.3       5 UNK        -0.1982 
     37 C          25.0213  -28.1787  -38.7107 C.2       5 UNK         0.5017 
     38 O          26.0163  -28.5494  -39.3370 O.2       5 UNK        -0.5012 
     39 N          23.8953  -28.9004  -38.6015 N.am      6 UNK        -0.4439 
     40 CA         23.5559  -30.1914  -39.2168 C.3       6 UNK         0.0297 
     41 CB         24.5326  -31.3115  -38.8086 C.3       6 UNK        -0.2006 
     42 C          23.3836  -30.1269  -40.7436 C.2       6 UNK         0.4892 
     43 O          22.3803  -30.6322  -41.2431 O.2       6 UNK        -0.5089 
     44 N          24.3406  -29.5065  -41.4484 N.am      7 UNK        -0.4243 
     45 CA         24.3659  -29.2477  -42.8916 C.3       7 UNK         0.0196 
     46 CB         23.4110  -28.0825  -43.2278 C.3       7 UNK        -0.2007 
     47 C          24.1114  -30.5239  -43.7158 C.2       7 UNK         0.5020 
     48 O          24.9504  -31.4258  -43.6994 O.2       7 UNK        -0.5147 
     49 N          22.9534  -30.5995  -44.3865 N.am      8 UNK        -0.4734 
     50 CA         22.5058  -31.7474  -45.1817 C.3       8 UNK         0.0238 
     51 CB         21.2134  -31.3638  -45.9193 C.3       8 UNK        -0.1912 
     52 C          22.3070  -33.0487  -44.3792 C.2       8 UNK         0.5038 
     53 O          22.3535  -34.1254  -44.9759 O.2       8 UNK        -0.5046 
     54 N          22.1037  -32.9347  -43.0610 N.am      9 UNK        -0.4200 
     55 CA         22.0014  -34.0603  -42.1208 C.3       9 UNK         0.0839 
     56 C          23.3781  -34.4920  -41.5354 C.2       9 UNK         0.5513 
     57 N          24.4898  -33.8448  -41.8701 N.am      9 UNK        -0.7519 
     58 O          23.4419  -35.4474  -40.7662 O.2       9 UNK        -0.4960 
     59 C59        20.9699  -33.7798  -40.9934 C.3       10 UNK        -0.0876 
     60 S60        19.2871  -33.4470  -41.6240 S.3       10 UNK        -0.2414 
     61 C61        19.3253  -31.6297  -41.6558 C.3       10 UNK         0.0169 
     62 H62        21.7616  -28.1223  -48.1279 H         1 UNK         0.0903 
     63 H63        22.4488  -26.6984  -48.8884 H         1 UNK         0.0903 
     64 H64        22.0040  -26.6365  -47.1895 H         1 UNK         0.0903 
     65 H65        18.3306  -26.6683  -48.2181 H         1 UNK         0.3096 
     66 H66        19.8833  -28.7278  -46.9714 H         1 UNK         0.1121 
     67 H67        17.0445  -28.0400  -47.1967 H         1 UNK         0.0849 
     68 H68        17.4033  -28.2919  -45.5249 H         1 UNK         0.0849 
     69 H69        15.4752  -30.3812  -46.0077 H         1 UNK         0.0865 
     70 H70        16.2591  -31.9333  -45.8608 H         1 UNK         0.0865 
     71 H71        18.3677  -31.9869  -44.1837 H         1 UNK         0.1346 
     72 H72        17.5928  -29.8512  -40.5459 H         1 UNK         0.1412 
     73 H73        15.2052  -29.0939  -44.0209 H         1 UNK         0.1426 
     74 H74        15.5835  -28.4291  -40.3897 H         1 UNK         0.0716 
     75 H75        14.5388  -28.2380  -41.7740 H         1 UNK         0.0716 
     76 H76        17.4125  -27.0705  -39.7381 H         1 UNK         0.0695 
     77 H77        17.7482  -25.4738  -40.3344 H         1 UNK         0.0695 
     78 H78        19.0413  -28.0781  -41.2795 H         1 UNK         0.0983 
     79 H79        19.7368  -27.2013  -43.1382 H         1 UNK         0.3095 
     80 H80        19.6354  -24.0161  -44.6047 H         1 UNK         0.0454 
     81 H81        22.0839  -25.7968  -44.1829 H         1 UNK         0.0851 
     82 H82        21.9629  -24.1069  -43.7294 H         1 UNK         0.0851 
     83 H83        21.8969  -24.5606  -45.4242 H         1 UNK         0.0851 
     84 H84        18.9779  -25.4977  -46.0533 H         1 UNK         0.2976 
     85 H85        20.3265  -24.8489  -40.5781 H         1 UNK         0.3116 
     86 H86        21.2914  -25.4019  -37.9451 H         1 UNK         0.0646 
     87 H87        20.8343  -23.0985  -38.7693 H         1 UNK         0.0847 
     88 H88        22.5079  -23.2298  -38.2542 H         1 UNK         0.0847 
     89 H89        22.1191  -23.2458  -39.9686 H         1 UNK         0.0847 
     90 H90        23.2737  -25.9483  -37.1770 H         1 UNK         0.3040 
     91 H91        25.2171  -26.9933  -36.9663 H         1 UNK         0.1015 
     92 H92        26.0275  -25.6723  -39.6105 H         1 UNK         0.0786 
     93 H93        27.1113  -26.2960  -38.3769 H         1 UNK         0.0786 
     94 H94        26.1064  -24.9004  -38.0272 H         1 UNK         0.0786 
     95 H95        23.1277  -28.4578  -38.1139 H         1 UNK         0.3172 
     96 H96        22.5784  -30.4533  -38.8081 H         1 UNK         0.0595 
     97 H97        25.5360  -31.1479  -39.2023 H         1 UNK         0.0839 
     98 H98        24.1933  -32.2760  -39.1889 H         1 UNK         0.0839 
     99 H99        24.6067  -31.3984  -37.7248 H         1 UNK         0.0839 
    100 H100       25.1299  -29.1495  -40.9165 H         1 UNK         0.2998 
    101 H101       25.3798  -28.9265  -43.1346 H         1 UNK         0.0822 
    102 H102       23.3933  -27.8768  -44.2990 H         1 UNK         0.0787 
    103 H103       22.3887  -28.2820  -42.9041 H         1 UNK         0.0787 
    104 H104       23.7323  -27.1658  -42.7337 H         1 UNK         0.0787 
    105 H105       22.3100  -29.8226  -44.3098 H         1 UNK         0.3055 
    106 H106       23.2776  -31.9543  -45.9263 H         1 UNK         0.1106 
    107 H107       20.8168  -32.2052  -46.4895 H         1 UNK         0.0828 
    108 H108       20.4342  -31.0415  -45.2274 H         1 UNK         0.0828 
    109 H109       21.3918  -30.5542  -46.6260 H         1 UNK         0.0828 
    110 H110       22.1270  -32.0128  -42.6354 H         1 UNK         0.2931 
    111 H111       21.6355  -34.9305  -42.6689 H         1 UNK         0.0412 
    112 H112       25.3686  -34.1517  -41.4847 H         1 UNK         0.3472 
    113 H113       24.4712  -33.0645  -42.5163 H         1 UNK         0.3472 
    114 H114       21.3002  -32.9504  -40.3656 H         1 UNK         0.0970 
    115 H115       20.8958  -34.6423  -40.3284 H         1 UNK         0.0970 
    116 H116       19.4805  -31.2557  -40.6424 H         1 UNK         0.0612 
    117 H117       20.1772  -31.2973  -42.2447 H         1 UNK         0.0612 
@<TRIPOS>BOND
     1    1    2 1    
     2    1   62 1    
     3    1   63 1    
     4    1   64 1    
     5    2    3 2    
     6    2    4 am   BACKBONE|DICT|INTERRES
     7    4    5 1    
     8    4   65 1    
     9    5    6 1    
    10    5   25 1    
    11    5   66 1    
    12    6    7 1    
    13    6   67 1    
    14    6   68 1    
    15    7    8 1    
    16    8    9 1    
    17    8   69 1    
    18    8   70 1    
    19    9   10 ar   
    20    9   14 ar   
    21   10   11 ar   
    22   10   71 1    
    23   11   12 ar   
    24   11   61 1    
    25   12   13 ar   
    26   12   72 1    
    27   13   14 ar   
    28   13   15 1    
    29   14   73 1    
    30   15   16 1    
    31   15   74 1    
    32   15   75 1    
    33   16   17 1    
    34   17   18 1    
    35   17   76 1    
    36   17   77 1    
    37   18   19 1    
    38   18   27 1    
    39   18   78 1    
    40   19   20 am   BACKBONE|DICT|INTERRES
    41   19   79 1    
    42   20   21 2    
    43   20   22 1    
    44   22   23 1    
    45   22   24 1    
    46   22   80 1    
    47   23   81 1    
    48   23   82 1    
    49   23   83 1    
    50   24   25 am   BACKBONE|DICT|INTERRES
    51   24   84 1    
    52   25   26 2    
    53   27   28 2    
    54   27   29 am   BACKBONE|DICT|INTERRES
    55   29   30 1    
    56   29   85 1    
    57   30   31 1    
    58   30   32 1    
    59   30   86 1    
    60   31   87 1    
    61   31   88 1    
    62   31   89 1    
    63   32   33 2    
    64   32   34 am   BACKBONE|DICT|INTERRES
    65   34   35 1    
    66   34   90 1    
    67   35   36 1    
    68   35   37 1    
    69   35   91 1    
    70   36   92 1    
    71   36   93 1    
    72   36   94 1    
    73   37   38 2    
    74   37   39 am   BACKBONE|DICT|INTERRES
    75   39   40 1    
    76   39   95 1    
    77   40   41 1    
    78   40   42 1    
    79   40   96 1    
    80   41   97 1    
    81   41   98 1    
    82   41   99 1    
    83   42   43 2    
    84   42   44 am   BACKBONE|DICT|INTERRES
    85   44   45 1    
    86   44  100 1    
    87   45   46 1    
    88   45   47 1    
    89   45  101 1    
    90   46  102 1    
    91   46  103 1    
    92   46  104 1    
    93   47   48 2    
    94   47   49 am   BACKBONE|DICT|INTERRES
    95   49   50 1    
    96   49  105 1    
    97   50   51 1    
    98   50   52 1    
    99   50  106 1    
   100   51  107 1    
   101   51  108 1    
   102   51  109 1    
   103   52   53 2    
   104   52   54 am   BACKBONE|DICT|INTERRES
   105   54   55 1    
   106   54  110 1    
   107   55   56 1    
   108   55   59 1    
   109   55  111 1    
   110   56   57 am   BACKBONE|DICT|INTERRES
   111   56   58 2    
   112   57  112 1    
   113   57  113 1    
   114   59   60 1    
   115   59  114 1    
   116   59  115 1    
   117   60   61 1    
   118   61  116 1    
   119   61  117 1    
@<TRIPOS>SUBSTRUCTURE
     1 UNK         1 GROUP             0       ****    0 ROOT    
