@<TRIPOS>MOLECULE
3R8
117   119    1
SMALL
USER_CHARGES


@<TRIPOS>ATOM
      1 CA         14.7003  -22.7658  -45.9047 C.3       0 UNK        -0.2013 
      2 C          15.4985  -24.0500  -46.0726 C.2       0 UNK         0.4866 
      3 O          15.7239  -24.4857  -47.2017 O.2       0 UNK        -0.5176 
      4 N          15.9199  -24.6608  -44.9573 N.am      1 UNK        -0.4884 
      5 CA         16.7135  -25.8955  -44.9199 C.3       1 UNK         0.0853 
      6 C6         16.8358  -26.4524  -43.4797 C.3       10 UNK        -0.0849 
      7 S7         15.3599  -27.3919  -42.9623 S.3       10 UNK        -0.2776 
      8 C8         15.7212  -29.0758  -43.5837 C.3       10 UNK         0.0316 
      9 C9         17.1230  -29.5588  -43.2275 C.ar      10 UNK        -0.0863 
     10 C10        17.5109  -29.6775  -41.8889 C.ar      10 UNK        -0.1009 
     11 C11        18.8175  -30.0440  -41.5524 C.ar      10 UNK        -0.0712 
     12 C12        19.7309  -30.3122  -42.5784 C.ar      10 UNK        -0.0894 
     13 C13        19.3542  -30.2198  -43.9206 C.ar      10 UNK        -0.0745 
     14 C14        18.0476  -29.8408  -44.2395 C.ar      10 UNK        -0.0972 
     15 C15        20.3573  -30.5403  -45.0223 C.3       10 UNK         0.0209 
     16 S16        21.0770  -29.0468  -45.7754 S.3       10 UNK        -0.2568 
     17 C17        22.1283  -28.4497  -44.4122 C.3       10 UNK        -0.0983 
     18 CA         22.9241  -27.1551  -44.7490 C.3       3 UNK         0.0876 
     19 N          22.0645  -26.0620  -45.2447 N.am      3 UNK        -0.4424 
     20 C          21.0700  -25.4566  -44.5768 C.2       2 UNK         0.4918 
     21 O          20.8155  -25.6765  -43.3900 O.2       2 UNK        -0.4875 
     22 CA         20.2377  -24.3928  -45.3266 C.3       2 UNK         0.0481 
     23 CB         20.5876  -24.2283  -46.8240 C.3       2 UNK        -0.1831 
     24 N          18.8039  -24.6327  -45.1307 N.am      2 UNK        -0.4498 
     25 C          18.1202  -25.7202  -45.5215 C.2       1 UNK         0.5027 
     26 O          18.5562  -26.5797  -46.2874 O.2       1 UNK        -0.4969 
     27 C          23.8206  -26.7462  -43.5532 C.2       3 UNK         0.5005 
     28 O          24.3484  -27.6208  -42.8646 O.2       3 UNK        -0.5279 
     29 N          23.9223  -25.4352  -43.2730 N.am      4 UNK        -0.4463 
     30 CA         24.4695  -24.8296  -42.0487 C.3       4 UNK         0.0283 
     31 CB         26.0005  -25.0162  -41.9864 C.3       4 UNK        -0.1875 
     32 C          23.7655  -25.3135  -40.7581 C.2       4 UNK         0.4949 
     33 O          24.3678  -25.2613  -39.6851 O.2       4 UNK        -0.5039 
     34 N          22.5183  -25.7995  -40.8927 N.am      5 UNK        -0.4663 
     35 CA         21.7179  -26.5034  -39.8824 C.3       5 UNK         0.0242 
     36 CB         21.2550  -25.5274  -38.7802 C.3       5 UNK        -0.1982 
     37 C          22.4097  -27.7660  -39.3186 C.2       5 UNK         0.5017 
     38 O          22.2159  -28.0927  -38.1459 O.2       5 UNK        -0.5012 
     39 N          23.2092  -28.4450  -40.1516 N.am      6 UNK        -0.4439 
     40 CA         23.9808  -29.6358  -39.8060 C.3       6 UNK         0.0297 
     41 CB         25.3609  -29.2092  -39.2612 C.3       6 UNK        -0.2006 
     42 C          24.0508  -30.5644  -41.0300 C.2       6 UNK         0.4892 
     43 O          23.1079  -30.5946  -41.8206 O.2       6 UNK        -0.5089 
     44 N          25.1528  -31.3149  -41.1673 N.am      7 UNK        -0.4243 
     45 CA         25.4262  -32.2821  -42.2346 C.3       7 UNK         0.0196 
     46 CB         25.5509  -31.5810  -43.6088 C.3       7 UNK        -0.2007 
     47 C          24.4241  -33.4513  -42.2078 C.2       7 UNK         0.5020 
     48 O          24.5077  -34.2819  -41.3024 O.2       7 UNK        -0.5147 
     49 N          23.5136  -33.5114  -43.1898 N.am      8 UNK        -0.4734 
     50 CA         22.5850  -34.6239  -43.4278 C.3       8 UNK         0.0238 
     51 CB         21.7874  -34.3585  -44.7149 C.3       8 UNK        -0.1912 
     52 C          21.6285  -34.9466  -42.2656 C.2       8 UNK         0.5038 
     53 O          21.2409  -36.1079  -42.1271 O.2       8 UNK        -0.5046 
     54 N          21.2726  -33.9398  -41.4569 N.am      9 UNK        -0.4200 
     55 CA         20.4720  -34.1123  -40.2337 C.3       9 UNK         0.0839 
     56 C          21.2865  -34.5712  -38.9870 C.2       9 UNK         0.5513 
     57 N          22.6054  -34.7152  -39.0569 N.am      9 UNK        -0.7519 
     58 O          20.7039  -34.8237  -37.9353 O.2       9 UNK        -0.4960 
     59 C59        19.5682  -32.8847  -39.9471 C.3       10 UNK        -0.0876 
     60 S60        20.4894  -31.3365  -39.6646 S.3       10 UNK        -0.2414 
     61 C61        19.2240  -30.0886  -40.0792 C.3       10 UNK         0.0169 
     62 H62        15.2090  -21.9404  -46.4021 H         1 UNK         0.0903 
     63 H63        13.7129  -22.8767  -46.3523 H         1 UNK         0.0903 
     64 H64        14.5686  -22.5001  -44.8560 H         1 UNK         0.0903 
     65 H65        15.6765  -24.2687  -44.0584 H         1 UNK         0.3096 
     66 H66        16.2061  -26.6362  -45.5426 H         1 UNK         0.1121 
     67 H67        17.7206  -27.0792  -43.3594 H         1 UNK         0.0849 
     68 H68        16.9871  -25.6387  -42.7683 H         1 UNK         0.0849 
     69 H69        14.9887  -29.7706  -43.1706 H         1 UNK         0.0865 
     70 H70        15.5737  -29.0870  -44.6647 H         1 UNK         0.0865 
     71 H71        16.7992  -29.4458  -41.1079 H         1 UNK         0.1346 
     72 H72        20.7445  -30.5869  -42.3359 H         1 UNK         0.1412 
     73 H73        17.7617  -29.7462  -45.2784 H         1 UNK         0.1426 
     74 H74        19.8666  -31.1267  -45.8003 H         1 UNK         0.0716 
     75 H75        21.1653  -31.1613  -44.6338 H         1 UNK         0.0716 
     76 H76        22.8119  -29.2607  -44.1556 H         1 UNK         0.0695 
     77 H77        21.5004  -28.2919  -43.5339 H         1 UNK         0.0695 
     78 H78        23.6121  -27.3928  -45.5617 H         1 UNK         0.0983 
     79 H79        22.2013  -25.8139  -46.2141 H         1 UNK         0.3095 
     80 H80        20.4532  -23.4424  -44.8367 H         1 UNK         0.0454 
     81 H81        20.4667  -25.1550  -47.3858 H         1 UNK         0.0851 
     82 H82        21.6165  -23.8911  -46.9553 H         1 UNK         0.0851 
     83 H83        19.9496  -23.4785  -47.2918 H         1 UNK         0.0851 
     84 H84        18.3411  -23.9975  -44.4960 H         1 UNK         0.2976 
     85 H85        23.4553  -24.7965  -43.9013 H         1 UNK         0.3116 
     86 H86        24.2679  -23.7598  -42.1196 H         1 UNK         0.0646 
     87 H87        26.2748  -26.0604  -41.8330 H         1 UNK         0.0847 
     88 H88        26.4320  -24.4446  -41.1639 H         1 UNK         0.0847 
     89 H89        26.4807  -24.6739  -42.9029 H         1 UNK         0.0847 
     90 H90        22.0961  -25.7642  -41.8163 H         1 UNK         0.3040 
     91 H91        20.8267  -26.8607  -40.4014 H         1 UNK         0.1015 
     92 H92        20.7533  -24.6582  -39.2056 H         1 UNK         0.0786 
     93 H93        22.0916  -25.1716  -38.1781 H         1 UNK         0.0786 
     94 H94        20.5479  -26.0079  -38.1029 H         1 UNK         0.0786 
     95 H95        23.3159  -28.1367  -41.1139 H         1 UNK         0.3172 
     96 H96        23.4539  -30.1937  -39.0294 H         1 UNK         0.0595 
     97 H97        25.9640  -28.7272  -40.0322 H         1 UNK         0.0839 
     98 H98        25.9229  -30.0595  -38.8741 H         1 UNK         0.0839 
     99 H99        25.2569  -28.5024  -38.4375 H         1 UNK         0.0839 
    100 H100       25.8614  -31.2471  -40.4507 H         1 UNK         0.2998 
    101 H101       26.4000  -32.7191  -42.0081 H         1 UNK         0.0822 
    102 H102       26.3456  -30.8350  -43.5920 H         1 UNK         0.0787 
    103 H103       25.8019  -32.2964  -44.3931 H         1 UNK         0.0787 
    104 H104       24.6354  -31.0701  -43.9076 H         1 UNK         0.0787 
    105 H105       23.4997  -32.7558  -43.8595 H         1 UNK         0.3055 
    106 H106       23.1957  -35.5155  -43.5869 H         1 UNK         0.1106 
    107 H107       21.1629  -35.2166  -44.9675 H         1 UNK         0.0828 
    108 H108       21.1247  -33.5001  -44.6089 H         1 UNK         0.0828 
    109 H109       22.4446  -34.1785  -45.5658 H         1 UNK         0.0828 
    110 H110       21.6597  -33.0196  -41.6147 H         1 UNK         0.2931 
    111 H111       19.7795  -34.9359  -40.4183 H         1 UNK         0.0412 
    112 H112       23.1134  -34.5331  -39.9161 H         1 UNK         0.3472 
    113 H113       23.1071  -35.0215  -38.2387 H         1 UNK         0.3472 
    114 H114       18.9284  -33.0707  -39.0825 H         1 UNK         0.0970 
    115 H115       18.8877  -32.7432  -40.7879 H         1 UNK         0.0970 
    116 H116       19.6075  -29.1068  -39.8010 H         1 UNK         0.0612 
    117 H117       18.3501  -30.2679  -39.4509 H         1 UNK         0.0612 
@<TRIPOS>BOND
     1    1    2 1    
     2    1   62 1    
     3    1   63 1    
     4    1   64 1    
     5    2    3 2    
     6    2    4 am   BACKBONE|DICT|INTERRES
     7    4    5 1    
     8    4   65 1    
     9    5    6 1    
    10    5   25 1    
    11    5   66 1    
    12    6    7 1    
    13    6   67 1    
    14    6   68 1    
    15    7    8 1    
    16    8    9 1    
    17    8   69 1    
    18    8   70 1    
    19    9   10 ar   
    20    9   14 ar   
    21   10   11 ar   
    22   10   71 1    
    23   11   12 ar   
    24   11   61 1    
    25   12   13 ar   
    26   12   72 1    
    27   13   14 ar   
    28   13   15 1    
    29   14   73 1    
    30   15   16 1    
    31   15   74 1    
    32   15   75 1    
    33   16   17 1    
    34   17   18 1    
    35   17   76 1    
    36   17   77 1    
    37   18   19 1    
    38   18   27 1    
    39   18   78 1    
    40   19   20 am   BACKBONE|DICT|INTERRES
    41   19   79 1    
    42   20   21 2    
    43   20   22 1    
    44   22   23 1    
    45   22   24 1    
    46   22   80 1    
    47   23   81 1    
    48   23   82 1    
    49   23   83 1    
    50   24   25 am   BACKBONE|DICT|INTERRES
    51   24   84 1    
    52   25   26 2    
    53   27   28 2    
    54   27   29 am   BACKBONE|DICT|INTERRES
    55   29   30 1    
    56   29   85 1    
    57   30   31 1    
    58   30   32 1    
    59   30   86 1    
    60   31   87 1    
    61   31   88 1    
    62   31   89 1    
    63   32   33 2    
    64   32   34 am   BACKBONE|DICT|INTERRES
    65   34   35 1    
    66   34   90 1    
    67   35   36 1    
    68   35   37 1    
    69   35   91 1    
    70   36   92 1    
    71   36   93 1    
    72   36   94 1    
    73   37   38 2    
    74   37   39 am   BACKBONE|DICT|INTERRES
    75   39   40 1    
    76   39   95 1    
    77   40   41 1    
    78   40   42 1    
    79   40   96 1    
    80   41   97 1    
    81   41   98 1    
    82   41   99 1    
    83   42   43 2    
    84   42   44 am   BACKBONE|DICT|INTERRES
    85   44   45 1    
    86   44  100 1    
    87   45   46 1    
    88   45   47 1    
    89   45  101 1    
    90   46  102 1    
    91   46  103 1    
    92   46  104 1    
    93   47   48 2    
    94   47   49 am   BACKBONE|DICT|INTERRES
    95   49   50 1    
    96   49  105 1    
    97   50   51 1    
    98   50   52 1    
    99   50  106 1    
   100   51  107 1    
   101   51  108 1    
   102   51  109 1    
   103   52   53 2    
   104   52   54 am   BACKBONE|DICT|INTERRES
   105   54   55 1    
   106   54  110 1    
   107   55   56 1    
   108   55   59 1    
   109   55  111 1    
   110   56   57 am   BACKBONE|DICT|INTERRES
   111   56   58 2    
   112   57  112 1    
   113   57  113 1    
   114   59   60 1    
   115   59  114 1    
   116   59  115 1    
   117   60   61 1    
   118   61  116 1    
   119   61  117 1    
@<TRIPOS>SUBSTRUCTURE
     1 UNK         1 GROUP             0       ****    0 ROOT    
