@<TRIPOS>MOLECULE
3R8
117   119    1
SMALL
USER_CHARGES


@<TRIPOS>ATOM
      1 CA         17.6770  -22.9147  -40.6350 C.3       0 UNK        -0.2013 
      2 C          17.2796  -23.3777  -42.0284 C.2       0 UNK         0.4866 
      3 O          16.9729  -22.5486  -42.8852 O.2       0 UNK        -0.5176 
      4 N          17.2824  -24.6967  -42.2621 N.am      1 UNK        -0.4884 
      5 CA         16.9504  -25.3265  -43.5480 C.3       1 UNK         0.0853 
      6 C6         16.5491  -26.8116  -43.3749 C.3       10 UNK        -0.0849 
      7 S7         17.7485  -27.8159  -42.4263 S.3       10 UNK        -0.2776 
      8 C8         16.9377  -29.4507  -42.4561 C.3       10 UNK         0.0316 
      9 C9         17.5691  -30.3704  -43.4919 C.ar      10 UNK        -0.0863 
     10 C10        18.2597  -31.5202  -43.0944 C.ar      10 UNK        -0.1009 
     11 C11        18.8697  -32.3453  -44.0450 C.ar      10 UNK        -0.0712 
     12 C12        18.8064  -32.0031  -45.3992 C.ar      10 UNK        -0.0894 
     13 C13        18.1191  -30.8562  -45.8071 C.ar      10 UNK        -0.0745 
     14 C14        17.4774  -30.0654  -44.8521 C.ar      10 UNK        -0.0972 
     15 C15        18.1067  -30.4384  -47.2716 C.3       10 UNK         0.0209 
     16 S16        18.8174  -28.7739  -47.5151 S.3       10 UNK        -0.2568 
     17 C17        20.4715  -28.9873  -46.7781 C.3       10 UNK        -0.0983 
     18 CA         21.2955  -27.6789  -46.7671 C.3       3 UNK         0.0876 
     19 N          20.6632  -26.6211  -45.9596 N.am      3 UNK        -0.4424 
     20 C          20.9869  -25.3231  -46.0473 C.2       2 UNK         0.4918 
     21 O          21.7662  -24.8844  -46.8950 O.2       2 UNK        -0.4875 
     22 CA         20.4135  -24.3538  -44.9924 C.3       2 UNK         0.0481 
     23 CB         20.0928  -22.9680  -45.5927 C.3       2 UNK        -0.1831 
     24 N          19.2785  -24.8478  -44.2007 N.am      2 UNK        -0.4498 
     25 C          18.0370  -25.1245  -44.6302 C.2       1 UNK         0.5027 
     26 O          17.7190  -25.1801  -45.8185 O.2       1 UNK        -0.4969 
     27 C          22.7392  -27.9729  -46.2973 C.2       3 UNK         0.5005 
     28 O          23.5417  -28.4910  -47.0757 O.2       3 UNK        -0.5279 
     29 N          23.0396  -27.6353  -45.0390 N.am      4 UNK        -0.4463 
     30 CA         24.3315  -27.7406  -44.3756 C.3       4 UNK         0.0283 
     31 CB         24.5034  -29.1610  -43.8051 C.3       4 UNK        -0.1875 
     32 C          24.3733  -26.6708  -43.2747 C.2       4 UNK         0.4949 
     33 O          23.3544  -26.0242  -43.0125 O.2       4 UNK        -0.5039 
     34 N          25.5427  -26.5062  -42.6410 N.am      5 UNK        -0.4663 
     35 CA         25.7755  -25.5479  -41.5498 C.3       5 UNK         0.0242 
     36 CB         27.2772  -25.5095  -41.2225 C.3       5 UNK        -0.1982 
     37 C          24.9544  -25.8326  -40.2764 C.2       5 UNK         0.5017 
     38 O          24.6644  -24.9032  -39.5221 O.2       5 UNK        -0.5012 
     39 N          24.5834  -27.1002  -40.0759 N.am      6 UNK        -0.4439 
     40 CA         23.6579  -27.5834  -39.0609 C.3       6 UNK         0.0297 
     41 CB         24.4162  -27.9024  -37.7608 C.3       6 UNK        -0.2006 
     42 C          22.9871  -28.8355  -39.6312 C.2       6 UNK         0.4892 
     43 O          23.6083  -29.5428  -40.4297 O.2       6 UNK        -0.5089 
     44 N          21.7546  -29.1177  -39.1936 N.am      7 UNK        -0.4243 
     45 CA         20.9475  -30.2668  -39.6228 C.3       7 UNK         0.0196 
     46 CB         19.4597  -29.9498  -39.3818 C.3       7 UNK        -0.2007 
     47 C          21.3861  -31.5903  -38.9596 C.2       7 UNK         0.5020 
     48 O          20.5457  -32.3490  -38.4740 O.2       7 UNK        -0.5147 
     49 N          22.6986  -31.8595  -38.9590 N.am      8 UNK        -0.4734 
     50 CA         23.3278  -33.0608  -38.3946 C.3       8 UNK         0.0238 
     51 CB         24.8540  -32.8781  -38.4017 C.3       8 UNK        -0.1912 
     52 C          22.9324  -34.3601  -39.1197 C.2       8 UNK         0.5038 
     53 O          22.9967  -35.4343  -38.5209 O.2       8 UNK        -0.5046 
     54 N          22.5101  -34.2275  -40.3818 N.am      9 UNK        -0.4200 
     55 CA         21.8756  -35.2701  -41.1950 C.3       9 UNK         0.0839 
     56 C          20.4429  -35.6779  -40.7375 C.2       9 UNK         0.5513 
     57 N          19.7907  -34.9577  -39.8310 N.am      9 UNK        -0.7519 
     58 O          19.9145  -36.6784  -41.2151 O.2       9 UNK        -0.4960 
     59 C59        21.9244  -34.9071  -42.7044 C.3       10 UNK        -0.0876 
     60 S60        21.3005  -33.2302  -43.0902 S.3       10 UNK        -0.2414 
     61 C61        19.5999  -33.6044  -43.6086 C.3       10 UNK         0.0169 
     62 H62        18.5494  -22.2641  -40.6906 H         1 UNK         0.0903 
     63 H63        16.8616  -22.3532  -40.1797 H         1 UNK         0.0903 
     64 H64        17.9190  -23.7517  -39.9802 H         1 UNK         0.0903 
     65 H65        17.5354  -25.3402  -41.5241 H         1 UNK         0.3096 
     66 H66        16.0686  -24.8094  -43.9346 H         1 UNK         0.1121 
     67 H67        15.5954  -26.8565  -42.8463 H         1 UNK         0.0849 
     68 H68        16.3606  -27.2665  -44.3469 H         1 UNK         0.0849 
     69 H69        17.0132  -29.8899  -41.4604 H         1 UNK         0.0865 
     70 H70        15.8708  -29.3471  -42.6589 H         1 UNK         0.0865 
     71 H71        18.3316  -31.7740  -42.0455 H         1 UNK         0.1346 
     72 H72        19.3030  -32.6240  -46.1324 H         1 UNK         0.1412 
     73 H73        16.9476  -29.1830  -45.1758 H         1 UNK         0.1426 
     74 H74        17.0792  -30.4443  -47.6376 H         1 UNK         0.0716 
     75 H75        18.6597  -31.1511  -47.8854 H         1 UNK         0.0716 
     76 H76        20.9865  -29.7642  -47.3472 H         1 UNK         0.0695 
     77 H77        20.3678  -29.3682  -45.7604 H         1 UNK         0.0695 
     78 H78        21.3686  -27.3215  -47.7968 H         1 UNK         0.0983 
     79 H79        19.9849  -26.9128  -45.2713 H         1 UNK         0.3095 
     80 H80        21.2199  -24.2096  -44.2718 H         1 UNK         0.0454 
     81 H81        20.9812  -22.5119  -46.0309 H         1 UNK         0.0851 
     82 H82        19.7227  -22.2811  -44.8313 H         1 UNK         0.0851 
     83 H83        19.3407  -23.0327  -46.3796 H         1 UNK         0.0851 
     84 H84        19.4237  -24.8653  -43.2007 H         1 UNK         0.2976 
     85 H85        22.3472  -27.1451  -44.4854 H         1 UNK         0.3116 
     86 H86        25.1283  -27.5265  -45.0909 H         1 UNK         0.0646 
     87 H87        25.4494  -29.2697  -43.2740 H         1 UNK         0.0847 
     88 H88        24.4940  -29.9087  -44.5982 H         1 UNK         0.0847 
     89 H89        23.7045  -29.4115  -43.1064 H         1 UNK         0.0847 
     90 H90        26.3323  -27.0705  -42.9227 H         1 UNK         0.3040 
     91 H91        25.4769  -24.5597  -41.9072 H         1 UNK         0.1015 
     92 H92        27.4862  -24.7861  -40.4329 H         1 UNK         0.0786 
     93 H93        27.8665  -25.2155  -42.0914 H         1 UNK         0.0786 
     94 H94        27.6412  -26.4791  -40.8801 H         1 UNK         0.0786 
     95 H95        24.8321  -27.7991  -40.7657 H         1 UNK         0.3172 
     96 H96        22.8932  -26.8268  -38.8718 H         1 UNK         0.0595 
     97 H97        25.1828  -28.6625  -37.9181 H         1 UNK         0.0839 
     98 H98        23.7381  -28.2759  -36.9925 H         1 UNK         0.0839 
     99 H99        24.9039  -27.0145  -37.3582 H         1 UNK         0.0839 
    100 H100       21.3353  -28.5108  -38.5035 H         1 UNK         0.2998 
    101 H101       21.0816  -30.3993  -40.6992 H         1 UNK         0.0822 
    102 H102       19.1585  -29.0414  -39.9036 H         1 UNK         0.0787 
    103 H103       19.2419  -29.8177  -38.3213 H         1 UNK         0.0787 
    104 H104       18.8225  -30.7557  -39.7480 H         1 UNK         0.0787 
    105 H105       23.3074  -31.1848  -39.4142 H         1 UNK         0.3055 
    106 H106       22.9945  -33.1573  -37.3589 H         1 UNK         0.1106 
    107 H107       25.2410  -32.7534  -39.4139 H         1 UNK         0.0828 
    108 H108       25.1522  -32.0065  -37.8186 H         1 UNK         0.0828 
    109 H109       25.3535  -33.7444  -37.9654 H         1 UNK         0.0828 
    110 H110       22.4913  -33.3002  -40.7801 H         1 UNK         0.2931 
    111 H111       22.4802  -36.1706  -41.0704 H         1 UNK         0.0412 
    112 H112       20.1991  -34.1251  -39.4221 H         1 UNK         0.3472 
    113 H113       18.8681  -35.2479  -39.5487 H         1 UNK         0.3472 
    114 H114       22.9610  -34.9473  -43.0422 H         1 UNK         0.0970 
    115 H115       21.4018  -35.6518  -43.3078 H         1 UNK         0.0970 
    116 H116       19.0602  -34.0742  -42.7856 H         1 UNK         0.0612 
    117 H117       19.6194  -34.3310  -44.4223 H         1 UNK         0.0612 
@<TRIPOS>BOND
     1    1    2 1    
     2    1   62 1    
     3    1   63 1    
     4    1   64 1    
     5    2    3 2    
     6    2    4 am   BACKBONE|DICT|INTERRES
     7    4    5 1    
     8    4   65 1    
     9    5    6 1    
    10    5   25 1    
    11    5   66 1    
    12    6    7 1    
    13    6   67 1    
    14    6   68 1    
    15    7    8 1    
    16    8    9 1    
    17    8   69 1    
    18    8   70 1    
    19    9   10 ar   
    20    9   14 ar   
    21   10   11 ar   
    22   10   71 1    
    23   11   12 ar   
    24   11   61 1    
    25   12   13 ar   
    26   12   72 1    
    27   13   14 ar   
    28   13   15 1    
    29   14   73 1    
    30   15   16 1    
    31   15   74 1    
    32   15   75 1    
    33   16   17 1    
    34   17   18 1    
    35   17   76 1    
    36   17   77 1    
    37   18   19 1    
    38   18   27 1    
    39   18   78 1    
    40   19   20 am   BACKBONE|DICT|INTERRES
    41   19   79 1    
    42   20   21 2    
    43   20   22 1    
    44   22   23 1    
    45   22   24 1    
    46   22   80 1    
    47   23   81 1    
    48   23   82 1    
    49   23   83 1    
    50   24   25 am   BACKBONE|DICT|INTERRES
    51   24   84 1    
    52   25   26 2    
    53   27   28 2    
    54   27   29 am   BACKBONE|DICT|INTERRES
    55   29   30 1    
    56   29   85 1    
    57   30   31 1    
    58   30   32 1    
    59   30   86 1    
    60   31   87 1    
    61   31   88 1    
    62   31   89 1    
    63   32   33 2    
    64   32   34 am   BACKBONE|DICT|INTERRES
    65   34   35 1    
    66   34   90 1    
    67   35   36 1    
    68   35   37 1    
    69   35   91 1    
    70   36   92 1    
    71   36   93 1    
    72   36   94 1    
    73   37   38 2    
    74   37   39 am   BACKBONE|DICT|INTERRES
    75   39   40 1    
    76   39   95 1    
    77   40   41 1    
    78   40   42 1    
    79   40   96 1    
    80   41   97 1    
    81   41   98 1    
    82   41   99 1    
    83   42   43 2    
    84   42   44 am   BACKBONE|DICT|INTERRES
    85   44   45 1    
    86   44  100 1    
    87   45   46 1    
    88   45   47 1    
    89   45  101 1    
    90   46  102 1    
    91   46  103 1    
    92   46  104 1    
    93   47   48 2    
    94   47   49 am   BACKBONE|DICT|INTERRES
    95   49   50 1    
    96   49  105 1    
    97   50   51 1    
    98   50   52 1    
    99   50  106 1    
   100   51  107 1    
   101   51  108 1    
   102   51  109 1    
   103   52   53 2    
   104   52   54 am   BACKBONE|DICT|INTERRES
   105   54   55 1    
   106   54  110 1    
   107   55   56 1    
   108   55   59 1    
   109   55  111 1    
   110   56   57 am   BACKBONE|DICT|INTERRES
   111   56   58 2    
   112   57  112 1    
   113   57  113 1    
   114   59   60 1    
   115   59  114 1    
   116   59  115 1    
   117   60   61 1    
   118   61  116 1    
   119   61  117 1    
@<TRIPOS>SUBSTRUCTURE
     1 UNK         1 GROUP             0       ****    0 ROOT    
