@<TRIPOS>MOLECULE
3R8
117   119    1
SMALL
USER_CHARGES


@<TRIPOS>ATOM
      1 CA         15.5931  -24.8277  -41.1817 C.3       0 UNK        -0.2013 
      2 C          16.3848  -25.4248  -42.3357 C.2       0 UNK         0.4866 
      3 O          16.9901  -26.4817  -42.1659 O.2       0 UNK        -0.5176 
      4 N          16.3648  -24.7541  -43.4972 N.am      1 UNK        -0.4884 
      5 CA         17.0756  -25.0808  -44.7453 C.3       1 UNK         0.0853 
      6 C6         16.8311  -26.5238  -45.2657 C.3       10 UNK        -0.0849 
      7 S7         15.0736  -26.9300  -45.5545 S.3       10 UNK        -0.2776 
      8 C8         14.8088  -28.3383  -44.4129 C.3       10 UNK         0.0316 
      9 C9         15.8310  -29.4739  -44.5223 C.ar      10 UNK        -0.0863 
     10 C10        16.1375  -30.2218  -43.3794 C.ar      10 UNK        -0.1009 
     11 C11        17.0971  -31.2385  -43.4226 C.ar      10 UNK        -0.0712 
     12 C12        17.7481  -31.5127  -44.6276 C.ar      10 UNK        -0.0894 
     13 C13        17.4966  -30.7371  -45.7613 C.ar      10 UNK        -0.0745 
     14 C14        16.5040  -29.7560  -45.7187 C.ar      10 UNK        -0.0972 
     15 C15        18.3783  -30.8832  -46.9932 C.3       10 UNK         0.0209 
     16 S16        19.5867  -29.5121  -47.1217 S.3       10 UNK        -0.2568 
     17 C17        20.3339  -29.4884  -45.4516 C.3       10 UNK        -0.0983 
     18 CA         21.3473  -28.3409  -45.2100 C.3       3 UNK         0.0876 
     19 N          20.8120  -27.0314  -45.6036 N.am      3 UNK        -0.4424 
     20 C          21.4664  -25.8611  -45.5432 C.2       2 UNK         0.4918 
     21 O          22.6253  -25.7449  -45.1457 O.2       2 UNK        -0.4875 
     22 CA         20.6932  -24.6025  -45.9802 C.3       2 UNK         0.0481 
     23 CB         21.0300  -24.2496  -47.4375 C.3       2 UNK        -0.1831 
     24 N          19.2390  -24.7354  -45.8350 N.am      2 UNK        -0.4498 
     25 C          18.5933  -24.8003  -44.6604 C.2       1 UNK         0.5027 
     26 O          19.1620  -24.6812  -43.5726 O.2       1 UNK        -0.4969 
     27 C          21.8005  -28.3702  -43.7343 C.2       3 UNK         0.5005 
     28 O          22.8216  -28.9842  -43.4214 O.2       3 UNK        -0.5279 
     29 N          21.0466  -27.6812  -42.8636 N.am      4 UNK        -0.4463 
     30 CA         21.2573  -27.5913  -41.4156 C.3       4 UNK         0.0283 
     31 CB         19.9851  -27.0279  -40.7629 C.3       4 UNK        -0.1875 
     32 C          22.5045  -26.7937  -40.9857 C.2       4 UNK         0.4949 
     33 O          22.7596  -26.6884  -39.7856 O.2       4 UNK        -0.5039 
     34 N          23.2771  -26.2638  -41.9460 N.am      5 UNK        -0.4663 
     35 CA         24.6108  -25.7006  -41.7190 C.3       5 UNK         0.0242 
     36 CB         25.0814  -24.9838  -42.9941 C.3       5 UNK        -0.1982 
     37 C          25.6421  -26.7603  -41.2817 C.2       5 UNK         0.5017 
     38 O          26.6233  -26.4021  -40.6290 O.2       5 UNK        -0.5012 
     39 N          25.3976  -28.0321  -41.6279 N.am      6 UNK        -0.4439 
     40 CA         26.1340  -29.1924  -41.1322 C.3       6 UNK         0.0297 
     41 CB         26.4464  -30.1285  -42.3088 C.3       6 UNK        -0.2006 
     42 C          25.2871  -29.9132  -40.0727 C.2       6 UNK         0.4892 
     43 O          24.0549  -29.8867  -40.1446 O.2       6 UNK        -0.5089 
     44 N          25.9682  -30.5520  -39.1117 N.am      7 UNK        -0.4243 
     45 CA         25.3622  -31.2930  -38.0021 C.3       7 UNK         0.0196 
     46 CB         26.4660  -31.7790  -37.0487 C.3       7 UNK        -0.2007 
     47 C          24.5093  -32.4745  -38.4929 C.2       7 UNK         0.5020 
     48 O          24.9797  -33.2592  -39.3184 O.2       7 UNK        -0.5147 
     49 N          23.2746  -32.5614  -37.9763 N.am      8 UNK        -0.4734 
     50 CA         22.2264  -33.5314  -38.3342 C.3       8 UNK         0.0238 
     51 CB         22.6413  -34.9643  -37.9339 C.3       8 UNK        -0.1912 
     52 C          21.7584  -33.4363  -39.8041 C.2       8 UNK         0.5038 
     53 O          21.2246  -34.4148  -40.3293 O.2       8 UNK        -0.5046 
     54 N          21.9466  -32.2572  -40.4142 N.am      9 UNK        -0.4200 
     55 CA         21.7071  -31.9097  -41.8212 C.3       9 UNK         0.0839 
     56 C          22.7508  -32.5488  -42.7767 C.2       9 UNK         0.5513 
     57 N          23.3592  -31.7512  -43.6411 N.am      9 UNK        -0.7519 
     58 O          22.9703  -33.7572  -42.7918 O.2       9 UNK        -0.4960 
     59 C59        20.2651  -32.1792  -42.3280 C.3       10 UNK        -0.0876 
     60 S60        18.9591  -31.3500  -41.3598 S.3       10 UNK        -0.2414 
     61 C61        17.4572  -32.0120  -42.1603 C.3       10 UNK         0.0169 
     62 H62        16.2566  -24.6170  -40.3434 H         1 UNK         0.0903 
     63 H63        14.8328  -25.5323  -40.8457 H         1 UNK         0.0903 
     64 H64        15.0952  -23.8997  -41.4622 H         1 UNK         0.0903 
     65 H65        15.8465  -23.8873  -43.5338 H         1 UNK         0.3096 
     66 H66        16.6790  -24.3882  -45.4899 H         1 UNK         0.1121 
     67 H67        17.3358  -26.6795  -46.2206 H         1 UNK         0.0849 
     68 H68        17.2795  -27.2478  -44.5844 H         1 UNK         0.0849 
     69 H69        14.8051  -27.9444  -43.3953 H         1 UNK         0.0865 
     70 H70        13.8131  -28.7475  -44.5877 H         1 UNK         0.0865 
     71 H71        15.6428  -29.9975  -42.4440 H         1 UNK         0.1346 
     72 H72        18.4980  -32.2889  -44.6699 H         1 UNK         0.1412 
     73 H73        16.3106  -29.1691  -46.6055 H         1 UNK         0.1426 
     74 H74        17.7583  -30.9006  -47.8906 H         1 UNK         0.0716 
     75 H75        18.9174  -31.8316  -46.9722 H         1 UNK         0.0716 
     76 H76        19.5274  -29.4082  -44.7210 H         1 UNK         0.0695 
     77 H77        20.8113  -30.4555  -45.2831 H         1 UNK         0.0695 
     78 H78        22.2301  -28.5255  -45.8258 H         1 UNK         0.0983 
     79 H79        19.8782  -27.0398  -45.9843 H         1 UNK         0.3095 
     80 H80        21.0238  -23.7770  -45.3462 H         1 UNK         0.0454 
     81 H81        22.1052  -24.1171  -47.5673 H         1 UNK         0.0851 
     82 H82        20.7135  -25.0318  -48.1286 H         1 UNK         0.0851 
     83 H83        20.5532  -23.3177  -47.7416 H         1 UNK         0.0851 
     84 H84        18.7088  -24.8145  -46.6916 H         1 UNK         0.2976 
     85 H85        20.2529  -27.1691  -43.2236 H         1 UNK         0.3116 
     86 H86        21.4008  -28.6065  -41.0406 H         1 UNK         0.0646 
     87 H87        20.0879  -26.9671  -39.6788 H         1 UNK         0.0847 
     88 H88        19.1244  -27.6657  -40.9655 H         1 UNK         0.0847 
     89 H89        19.7538  -26.0260  -41.1270 H         1 UNK         0.0847 
     90 H90        22.9875  -26.3669  -42.9105 H         1 UNK         0.3040 
     91 H91        24.5364  -24.9646  -40.9154 H         1 UNK         0.1015 
     92 H92        24.3893  -24.1927  -43.2835 H         1 UNK         0.0786 
     93 H93        25.1705  -25.6738  -43.8344 H         1 UNK         0.0786 
     94 H94        26.0583  -24.5218  -42.8451 H         1 UNK         0.0786 
     95 H95        24.5270  -28.2400  -42.1051 H         1 UNK         0.3172 
     96 H96        27.0773  -28.8829  -40.6773 H         1 UNK         0.0595 
     97 H97        25.5387  -30.4440  -42.8206 H         1 UNK         0.0839 
     98 H98        26.9617  -31.0288  -41.9715 H         1 UNK         0.0839 
     99 H99        27.0889  -29.6407  -43.0417 H         1 UNK         0.0839 
    100 H100       26.9770  -30.5526  -39.1527 H         1 UNK         0.2998 
    101 H101       24.7223  -30.5953  -37.4573 H         1 UNK         0.0822 
    102 H102       27.0410  -30.9448  -36.6462 H         1 UNK         0.0787 
    103 H103       26.0396  -32.3164  -36.2004 H         1 UNK         0.0787 
    104 H104       27.1599  -32.4571  -37.5476 H         1 UNK         0.0787 
    105 H105       22.9952  -31.8592  -37.3036 H         1 UNK         0.3055 
    106 H106       21.3528  -33.2678  -37.7354 H         1 UNK         0.1106 
    107 H107       23.4586  -35.3373  -38.5518 H         1 UNK         0.0828 
    108 H108       22.9590  -35.0103  -36.8923 H         1 UNK         0.0828 
    109 H109       21.8085  -35.6595  -38.0467 H         1 UNK         0.0828 
    110 H110       22.4397  -31.5417  -39.8963 H         1 UNK         0.2931 
    111 H111       21.8546  -30.8309  -41.8501 H         1 UNK         0.0412 
    112 H112       24.0203  -32.1413  -44.2932 H         1 UNK         0.3472 
    113 H113       23.2020  -30.7455  -43.6115 H         1 UNK         0.3472 
    114 H114       20.0585  -33.2501  -42.3619 H         1 UNK         0.0970 
    115 H115       20.1906  -31.8210  -43.3530 H         1 UNK         0.0970 
    116 H116       16.6342  -31.9602  -41.4459 H         1 UNK         0.0612 
    117 H117       17.5913  -33.0700  -42.3901 H         1 UNK         0.0612 
@<TRIPOS>BOND
     1    1    2 1    
     2    1   62 1    
     3    1   63 1    
     4    1   64 1    
     5    2    3 2    
     6    2    4 am   BACKBONE|DICT|INTERRES
     7    4    5 1    
     8    4   65 1    
     9    5    6 1    
    10    5   25 1    
    11    5   66 1    
    12    6    7 1    
    13    6   67 1    
    14    6   68 1    
    15    7    8 1    
    16    8    9 1    
    17    8   69 1    
    18    8   70 1    
    19    9   10 ar   
    20    9   14 ar   
    21   10   11 ar   
    22   10   71 1    
    23   11   12 ar   
    24   11   61 1    
    25   12   13 ar   
    26   12   72 1    
    27   13   14 ar   
    28   13   15 1    
    29   14   73 1    
    30   15   16 1    
    31   15   74 1    
    32   15   75 1    
    33   16   17 1    
    34   17   18 1    
    35   17   76 1    
    36   17   77 1    
    37   18   19 1    
    38   18   27 1    
    39   18   78 1    
    40   19   20 am   BACKBONE|DICT|INTERRES
    41   19   79 1    
    42   20   21 2    
    43   20   22 1    
    44   22   23 1    
    45   22   24 1    
    46   22   80 1    
    47   23   81 1    
    48   23   82 1    
    49   23   83 1    
    50   24   25 am   BACKBONE|DICT|INTERRES
    51   24   84 1    
    52   25   26 2    
    53   27   28 2    
    54   27   29 am   BACKBONE|DICT|INTERRES
    55   29   30 1    
    56   29   85 1    
    57   30   31 1    
    58   30   32 1    
    59   30   86 1    
    60   31   87 1    
    61   31   88 1    
    62   31   89 1    
    63   32   33 2    
    64   32   34 am   BACKBONE|DICT|INTERRES
    65   34   35 1    
    66   34   90 1    
    67   35   36 1    
    68   35   37 1    
    69   35   91 1    
    70   36   92 1    
    71   36   93 1    
    72   36   94 1    
    73   37   38 2    
    74   37   39 am   BACKBONE|DICT|INTERRES
    75   39   40 1    
    76   39   95 1    
    77   40   41 1    
    78   40   42 1    
    79   40   96 1    
    80   41   97 1    
    81   41   98 1    
    82   41   99 1    
    83   42   43 2    
    84   42   44 am   BACKBONE|DICT|INTERRES
    85   44   45 1    
    86   44  100 1    
    87   45   46 1    
    88   45   47 1    
    89   45  101 1    
    90   46  102 1    
    91   46  103 1    
    92   46  104 1    
    93   47   48 2    
    94   47   49 am   BACKBONE|DICT|INTERRES
    95   49   50 1    
    96   49  105 1    
    97   50   51 1    
    98   50   52 1    
    99   50  106 1    
   100   51  107 1    
   101   51  108 1    
   102   51  109 1    
   103   52   53 2    
   104   52   54 am   BACKBONE|DICT|INTERRES
   105   54   55 1    
   106   54  110 1    
   107   55   56 1    
   108   55   59 1    
   109   55  111 1    
   110   56   57 am   BACKBONE|DICT|INTERRES
   111   56   58 2    
   112   57  112 1    
   113   57  113 1    
   114   59   60 1    
   115   59  114 1    
   116   59  115 1    
   117   60   61 1    
   118   61  116 1    
   119   61  117 1    
@<TRIPOS>SUBSTRUCTURE
     1 UNK         1 GROUP             0       ****    0 ROOT    
