@<TRIPOS>MOLECULE
3R8
117   119    1
SMALL
USER_CHARGES


@<TRIPOS>ATOM
      1 CA         16.3691  -22.0714  -45.6361 C.3       0 UNK        -0.2013 
      2 C          17.1207  -23.3929  -45.5902 C.2       0 UNK         0.4866 
      3 O          17.7263  -23.7900  -46.5868 O.2       0 UNK        -0.5176 
      4 N          17.0982  -24.0771  -44.4394 N.am      1 UNK        -0.4884 
      5 CA         17.7471  -25.3726  -44.2007 C.3       1 UNK         0.0853 
      6 C6         17.0574  -26.1534  -43.0501 C.3       10 UNK        -0.0849 
      7 S7         15.3607  -26.6657  -43.4960 S.3       10 UNK        -0.2776 
      8 C8         15.2444  -28.3553  -42.7913 C.3       10 UNK         0.0316 
      9 C9         16.2710  -29.3715  -43.3016 C.ar      10 UNK        -0.0863 
     10 C10        16.5706  -30.4868  -42.5100 C.ar      10 UNK        -0.1009 
     11 C11        17.5454  -31.4076  -42.9086 C.ar      10 UNK        -0.0712 
     12 C12        18.2219  -31.2165  -44.1160 C.ar      10 UNK        -0.0894 
     13 C13        17.9142  -30.1251  -44.9300 C.ar      10 UNK        -0.0745 
     14 C14        16.9271  -29.2207  -44.5291 C.ar      10 UNK        -0.0972 
     15 C15        18.6396  -29.9107  -46.2464 C.3       10 UNK         0.0209 
     16 S16        19.7090  -28.4423  -46.1732 S.3       10 UNK        -0.2568 
     17 C17        21.3194  -29.1206  -45.6234 C.3       10 UNK        -0.0983 
     18 CA         22.0577  -28.3133  -44.5120 C.3       3 UNK         0.0876 
     19 N          21.7599  -26.8866  -44.4775 N.am      3 UNK        -0.4424 
     20 C          22.1085  -25.9414  -45.3476 C.2       2 UNK         0.4918 
     21 O          22.8765  -26.1213  -46.2935 O.2       2 UNK        -0.4875 
     22 CA         21.4302  -24.5713  -45.1154 C.3       2 UNK         0.0481 
     23 CB         21.7671  -23.5518  -46.2178 C.3       2 UNK        -0.1831 
     24 N          19.9678  -24.6859  -45.0040 N.am      2 UNK        -0.4498 
     25 C          19.2702  -25.2128  -43.9861 C.2       1 UNK         0.5027 
     26 O          19.8005  -25.6071  -42.9417 O.2       1 UNK        -0.4969 
     27 C          21.8416  -28.8525  -43.0908 C.2       3 UNK         0.5005 
     28 O          22.7658  -29.4404  -42.5295 O.2       3 UNK        -0.5279 
     29 N          20.6977  -28.5244  -42.4670 N.am      4 UNK        -0.4463 
     30 CA         20.4901  -28.6732  -41.0197 C.3       4 UNK         0.0283 
     31 CB         19.0386  -28.3466  -40.6453 C.3       4 UNK        -0.1875 
     32 C          21.4518  -27.7952  -40.2053 C.2       4 UNK         0.4949 
     33 O          22.0112  -28.2640  -39.2155 O.2       4 UNK        -0.5039 
     34 N          21.6901  -26.5660  -40.6871 N.am      5 UNK        -0.4663 
     35 CA         22.6886  -25.6312  -40.1552 C.3       5 UNK         0.0242 
     36 CB         22.5546  -24.2908  -40.8952 C.3       5 UNK        -0.1982 
     37 C          24.1409  -26.1458  -40.2399 C.2       5 UNK         0.5017 
     38 O          24.9787  -25.7095  -39.4506 O.2       5 UNK        -0.5012 
     39 N          24.4060  -27.0653  -41.1784 N.am      6 UNK        -0.4439 
     40 CA         25.6881  -27.7494  -41.3618 C.3       6 UNK         0.0297 
     41 CB         25.9449  -27.9131  -42.8706 C.3       6 UNK        -0.2006 
     42 C          25.7372  -29.1189  -40.6537 C.2       6 UNK         0.4892 
     43 O          26.7697  -29.7855  -40.7336 O.2       6 UNK        -0.5089 
     44 N          24.6365  -29.5225  -39.9968 N.am      7 UNK        -0.4243 
     45 CA         24.4092  -30.8135  -39.3360 C.3       7 UNK         0.0196 
     46 CB         25.3371  -30.9807  -38.1137 C.3       7 UNK        -0.2007 
     47 C          24.4607  -32.0148  -40.3028 C.2       7 UNK         0.5020 
     48 O          24.8904  -33.1013  -39.9112 O.2       7 UNK        -0.5147 
     49 N          24.0003  -31.8167  -41.5468 N.am      8 UNK        -0.4734 
     50 CA         23.9768  -32.8396  -42.6001 C.3       8 UNK         0.0238 
     51 CB         23.8251  -32.1502  -43.9667 C.3       8 UNK        -0.1912 
     52 C          22.8803  -33.9059  -42.4124 C.2       8 UNK         0.5038 
     53 O          22.9001  -34.9120  -43.1227 O.2       8 UNK        -0.5046 
     54 N          21.9443  -33.6685  -41.4841 N.am      9 UNK        -0.4200 
     55 CA         20.8118  -34.5517  -41.1600 C.3       9 UNK         0.0839 
     56 C          21.2031  -35.9120  -40.5117 C.2       9 UNK         0.5513 
     57 N          22.4177  -36.0821  -40.0023 N.am      9 UNK        -0.7519 
     58 O          20.3856  -36.8277  -40.4703 O.2       9 UNK        -0.4960 
     59 C59        19.7394  -33.8337  -40.2950 C.3       10 UNK        -0.0876 
     60 S60        19.2745  -32.1890  -40.9297 S.3       10 UNK        -0.2414 
     61 C61        17.8904  -32.5982  -42.0293 C.3       10 UNK         0.0169 
     62 H62        15.6055  -22.1018  -46.4128 H         1 UNK         0.0903 
     63 H63        15.8799  -21.8469  -44.6885 H         1 UNK         0.0903 
     64 H64        17.0560  -21.2571  -45.8651 H         1 UNK         0.0903 
     65 H65        16.5936  -23.6965  -43.6509 H         1 UNK         0.3096 
     66 H66        17.6430  -25.9771  -45.1053 H         1 UNK         0.1121 
     67 H67        17.0267  -25.5594  -42.1350 H         1 UNK         0.0849 
     68 H68        17.6287  -27.0495  -42.8116 H         1 UNK         0.0849 
     69 H69        14.2462  -28.7448  -42.9947 H         1 UNK         0.0865 
     70 H70        15.3250  -28.2711  -41.7062 H         1 UNK         0.0865 
     71 H71        16.0645  -30.6260  -41.5642 H         1 UNK         0.1346 
     72 H72        18.9881  -31.9175  -44.4179 H         1 UNK         0.1412 
     73 H73        16.6965  -28.3834  -45.1721 H         1 UNK         0.1426 
     74 H74        17.9011  -29.7648  -47.0360 H         1 UNK         0.0716 
     75 H75        19.2211  -30.7883  -46.5329 H         1 UNK         0.0716 
     76 H76        21.9536  -29.1429  -46.5108 H         1 UNK         0.0695 
     77 H77        21.2021  -30.1665  -45.3340 H         1 UNK         0.0695 
     78 H78        23.1289  -28.4061  -44.7043 H         1 UNK         0.0983 
     79 H79        21.1211  -26.5908  -43.7463 H         1 UNK         0.3095 
     80 H80        21.8124  -24.1777  -44.1722 H         1 UNK         0.0454 
     81 H81        21.4107  -23.8824  -47.1942 H         1 UNK         0.0851 
     82 H82        22.8445  -23.4009  -46.2966 H         1 UNK         0.0851 
     83 H83        21.3204  -22.5795  -46.0094 H         1 UNK         0.0851 
     84 H84        19.4285  -24.3924  -45.8140 H         1 UNK         0.2976 
     85 H85        19.9580  -28.0788  -42.9903 H         1 UNK         0.3116 
     86 H86        20.6928  -29.7125  -40.7590 H         1 UNK         0.0646 
     87 H87        18.3384  -28.9449  -41.2222 H         1 UNK         0.0847 
     88 H88        18.8028  -27.2941  -40.8038 H         1 UNK         0.0847 
     89 H89        18.8540  -28.5639  -39.5925 H         1 UNK         0.0847 
     90 H90        21.1278  -26.2377  -41.4645 H         1 UNK         0.3040 
     91 H91        22.4625  -25.4695  -39.0989 H         1 UNK         0.1015 
     92 H92        23.2397  -23.5477  -40.4843 H         1 UNK         0.0786 
     93 H93        21.5464  -23.8850  -40.8065 H         1 UNK         0.0786 
     94 H94        22.7833  -24.3928  -41.9563 H         1 UNK         0.0786 
     95 H95        23.6429  -27.3941  -41.7530 H         1 UNK         0.3172 
     96 H96        26.4931  -27.1396  -40.9468 H         1 UNK         0.0595 
     97 H97        25.2233  -28.5861  -43.3339 H         1 UNK         0.0839 
     98 H98        26.9364  -28.3292  -43.0540 H         1 UNK         0.0839 
     99 H99        25.8966  -26.9561  -43.3905 H         1 UNK         0.0839 
    100 H100       23.8397  -28.8962  -39.9771 H         1 UNK         0.2998 
    101 H101       23.3843  -30.7787  -38.9634 H         1 UNK         0.0822 
    102 H102       25.2659  -30.1249  -37.4423 H         1 UNK         0.0787 
    103 H103       25.0683  -31.8664  -37.5367 H         1 UNK         0.0787 
    104 H104       26.3810  -31.0909  -38.4087 H         1 UNK         0.0787 
    105 H105       23.6368  -30.8985  -41.8011 H         1 UNK         0.3055 
    106 H106       24.9363  -33.3614  -42.5868 H         1 UNK         0.1106 
    107 H107       23.9257  -32.8699  -44.7801 H         1 UNK         0.0828 
    108 H108       24.5869  -31.3845  -44.1150 H         1 UNK         0.0828 
    109 H109       22.8480  -31.6786  -44.0715 H         1 UNK         0.0828 
    110 H110       21.9973  -32.8050  -40.9661 H         1 UNK         0.2931 
    111 H111       20.3399  -34.8007  -42.1124 H         1 UNK         0.0412 
    112 H112       23.0944  -35.3344  -40.0320 H         1 UNK         0.3472 
    113 H113       22.6608  -36.9676  -39.5864 H         1 UNK         0.3472 
    114 H114       18.8411  -34.4482  -40.2073 H         1 UNK         0.0970 
    115 H115       20.1083  -33.6968  -39.2766 H         1 UNK         0.0970 
    116 H116       17.0276  -32.8998  -41.4335 H         1 UNK         0.0612 
    117 H117       18.1573  -33.4541  -42.6513 H         1 UNK         0.0612 
@<TRIPOS>BOND
     1    1    2 1    
     2    1   62 1    
     3    1   63 1    
     4    1   64 1    
     5    2    3 2    
     6    2    4 am   BACKBONE|DICT|INTERRES
     7    4    5 1    
     8    4   65 1    
     9    5    6 1    
    10    5   25 1    
    11    5   66 1    
    12    6    7 1    
    13    6   67 1    
    14    6   68 1    
    15    7    8 1    
    16    8    9 1    
    17    8   69 1    
    18    8   70 1    
    19    9   10 ar   
    20    9   14 ar   
    21   10   11 ar   
    22   10   71 1    
    23   11   12 ar   
    24   11   61 1    
    25   12   13 ar   
    26   12   72 1    
    27   13   14 ar   
    28   13   15 1    
    29   14   73 1    
    30   15   16 1    
    31   15   74 1    
    32   15   75 1    
    33   16   17 1    
    34   17   18 1    
    35   17   76 1    
    36   17   77 1    
    37   18   19 1    
    38   18   27 1    
    39   18   78 1    
    40   19   20 am   BACKBONE|DICT|INTERRES
    41   19   79 1    
    42   20   21 2    
    43   20   22 1    
    44   22   23 1    
    45   22   24 1    
    46   22   80 1    
    47   23   81 1    
    48   23   82 1    
    49   23   83 1    
    50   24   25 am   BACKBONE|DICT|INTERRES
    51   24   84 1    
    52   25   26 2    
    53   27   28 2    
    54   27   29 am   BACKBONE|DICT|INTERRES
    55   29   30 1    
    56   29   85 1    
    57   30   31 1    
    58   30   32 1    
    59   30   86 1    
    60   31   87 1    
    61   31   88 1    
    62   31   89 1    
    63   32   33 2    
    64   32   34 am   BACKBONE|DICT|INTERRES
    65   34   35 1    
    66   34   90 1    
    67   35   36 1    
    68   35   37 1    
    69   35   91 1    
    70   36   92 1    
    71   36   93 1    
    72   36   94 1    
    73   37   38 2    
    74   37   39 am   BACKBONE|DICT|INTERRES
    75   39   40 1    
    76   39   95 1    
    77   40   41 1    
    78   40   42 1    
    79   40   96 1    
    80   41   97 1    
    81   41   98 1    
    82   41   99 1    
    83   42   43 2    
    84   42   44 am   BACKBONE|DICT|INTERRES
    85   44   45 1    
    86   44  100 1    
    87   45   46 1    
    88   45   47 1    
    89   45  101 1    
    90   46  102 1    
    91   46  103 1    
    92   46  104 1    
    93   47   48 2    
    94   47   49 am   BACKBONE|DICT|INTERRES
    95   49   50 1    
    96   49  105 1    
    97   50   51 1    
    98   50   52 1    
    99   50  106 1    
   100   51  107 1    
   101   51  108 1    
   102   51  109 1    
   103   52   53 2    
   104   52   54 am   BACKBONE|DICT|INTERRES
   105   54   55 1    
   106   54  110 1    
   107   55   56 1    
   108   55   59 1    
   109   55  111 1    
   110   56   57 am   BACKBONE|DICT|INTERRES
   111   56   58 2    
   112   57  112 1    
   113   57  113 1    
   114   59   60 1    
   115   59  114 1    
   116   59  115 1    
   117   60   61 1    
   118   61  116 1    
   119   61  117 1    
@<TRIPOS>SUBSTRUCTURE
     1 UNK         1 GROUP             0       ****    0 ROOT    
