@<TRIPOS>MOLECULE
3R8
117   119    1
SMALL
USER_CHARGES


@<TRIPOS>ATOM
      1 CA         16.3416  -27.2739  -49.2539 C.3       0 UNK        -0.2013 
      2 C          17.0314  -27.7775  -47.9948 C.2       0 UNK         0.4866 
      3 O          17.6709  -28.8292  -48.0258 O.2       0 UNK        -0.5176 
      4 N          16.8989  -27.0408  -46.8854 N.am      1 UNK        -0.4884 
      5 CA         17.5300  -27.3474  -45.5987 C.3       1 UNK         0.0853 
      6 C6         16.9385  -26.4878  -44.4531 C.3       10 UNK        -0.0849 
      7 S7         15.1516  -26.7226  -44.1552 S.3       10 UNK        -0.2776 
      8 C8         14.9924  -28.5032  -43.7686 C.3       10 UNK         0.0316 
      9 C9         16.0996  -29.0525  -42.8737 C.ar      10 UNK        -0.0863 
     10 C10        16.7860  -30.2086  -43.2564 C.ar      10 UNK        -0.1009 
     11 C11        17.8229  -30.7171  -42.4700 C.ar      10 UNK        -0.0712 
     12 C12        18.1675  -30.0640  -41.2831 C.ar      10 UNK        -0.0894 
     13 C13        17.4787  -28.9150  -40.8790 C.ar      10 UNK        -0.0745 
     14 C14        16.4387  -28.4212  -41.6720 C.ar      10 UNK        -0.0972 
     15 C15        17.8351  -28.2294  -39.5677 C.3       10 UNK         0.0209 
     16 S16        19.5331  -27.5742  -39.5608 S.3       10 UNK        -0.2568 
     17 C17        19.3840  -26.0416  -40.5371 C.3       10 UNK        -0.0983 
     18 CA         20.6099  -25.8674  -41.4659 C.3       3 UNK         0.0876 
     19 N          20.5475  -26.7738  -42.6191 N.am      3 UNK        -0.4424 
     20 C          21.5307  -26.9330  -43.5173 C.2       2 UNK         0.4918 
     21 O          22.6446  -26.4287  -43.3844 O.2       2 UNK        -0.4875 
     22 CA         21.2538  -27.8049  -44.7529 C.3       2 UNK         0.0481 
     23 CB         21.9580  -29.1594  -44.6055 C.3       2 UNK        -0.1831 
     24 N          19.8194  -28.0013  -44.9889 N.am      2 UNK        -0.4498 
     25 C          19.0539  -27.1236  -45.6545 C.2       1 UNK         0.5027 
     26 O          19.4970  -26.1310  -46.2385 O.2       1 UNK        -0.4969 
     27 C          20.7744  -24.3992  -41.9353 C.2       3 UNK         0.5005 
     28 O          20.1902  -24.0346  -42.9566 O.2       3 UNK        -0.5279 
     29 N          21.5413  -23.5449  -41.2394 N.am      4 UNK        -0.4463 
     30 CA         22.1614  -23.7356  -39.9223 C.3       4 UNK         0.0283 
     31 CB         22.3388  -22.3542  -39.2687 C.3       4 UNK        -0.1875 
     32 C          23.5018  -24.4981  -39.9156 C.2       4 UNK         0.4949 
     33 O          23.9850  -24.8058  -38.8262 O.2       4 UNK        -0.5039 
     34 N          24.0815  -24.8084  -41.0871 N.am      5 UNK        -0.4663 
     35 CA         25.3015  -25.6295  -41.1938 C.3       5 UNK         0.0242 
     36 CB         25.8729  -25.5563  -42.6191 C.3       5 UNK        -0.1982 
     37 C          25.0664  -27.0895  -40.7577 C.2       5 UNK         0.5017 
     38 O          25.9236  -27.6746  -40.0956 O.2       5 UNK        -0.5012 
     39 N          23.8727  -27.6030  -41.0815 N.am      6 UNK        -0.4439 
     40 CA         23.2516  -28.8367  -40.6007 C.3       6 UNK         0.0297 
     41 CB         23.0386  -28.7880  -39.0702 C.3       6 UNK        -0.2006 
     42 C          23.9766  -30.0993  -41.0911 C.2       6 UNK         0.4892 
     43 O          23.7325  -30.5213  -42.2215 O.2       6 UNK        -0.5089 
     44 N          24.7821  -30.7235  -40.2167 N.am      7 UNK        -0.4243 
     45 CA         25.4548  -32.0198  -40.4044 C.3       7 UNK         0.0196 
     46 CB         26.5649  -31.9051  -41.4708 C.3       7 UNK        -0.2007 
     47 C          24.4710  -33.1746  -40.6958 C.2       7 UNK         0.5020 
     48 O          24.8146  -34.1118  -41.4181 O.2       7 UNK        -0.5147 
     49 N          23.2429  -33.0552  -40.1641 N.am      8 UNK        -0.4734 
     50 CA         22.0820  -33.9339  -40.3692 C.3       8 UNK         0.0238 
     51 CB         22.3108  -35.2905  -39.6692 C.3       8 UNK        -0.1912 
     52 C          21.6673  -34.1008  -41.8483 C.2       8 UNK         0.5038 
     53 O          21.0483  -35.1115  -42.1855 O.2       8 UNK        -0.5046 
     54 N          22.0229  -33.1268  -42.7023 N.am      9 UNK        -0.4200 
     55 CA         21.9030  -33.1848  -44.1698 C.3       9 UNK         0.0839 
     56 C          22.7964  -34.2793  -44.8362 C.2       9 UNK         0.5513 
     57 N          23.8308  -34.7886  -44.1756 N.am      9 UNK        -0.7519 
     58 O          22.5752  -34.6535  -45.9852 O.2       9 UNK        -0.4960 
     59 C59        20.4246  -33.2068  -44.6660 C.3       10 UNK        -0.0876 
     60 S60        19.5755  -31.6200  -44.3808 S.3       10 UNK        -0.2414 
     61 C61        18.5661  -31.9687  -42.9126 C.3       10 UNK         0.0169 
     62 H62        17.0764  -27.0971  -50.0387 H         1 UNK         0.0903 
     63 H63        15.6297  -28.0161  -49.6141 H         1 UNK         0.0903 
     64 H64        15.8016  -26.3434  -49.0791 H         1 UNK         0.0903 
     65 H65        16.3700  -26.1809  -46.9164 H         1 UNK         0.3096 
     66 H66        17.3529  -28.4030  -45.3875 H         1 UNK         0.1121 
     67 H67        17.0962  -25.4273  -44.6612 H         1 UNK         0.0849 
     68 H68        17.4644  -26.6742  -43.5160 H         1 UNK         0.0849 
     69 H69        14.0306  -28.6723  -43.2826 H         1 UNK         0.0865 
     70 H70        14.9542  -29.0512  -44.7115 H         1 UNK         0.0865 
     71 H71        16.5255  -30.7134  -44.1771 H         1 UNK         0.1346 
     72 H72        18.9698  -30.4487  -40.6682 H         1 UNK         0.1412 
     73 H73        15.8991  -27.5356  -41.3643 H         1 UNK         0.1426 
     74 H74        17.7397  -28.9548  -38.7587 H         1 UNK         0.0716 
     75 H75        17.1364  -27.4234  -39.3378 H         1 UNK         0.0716 
     76 H76        19.3022  -25.2168  -39.8270 H         1 UNK         0.0695 
     77 H77        18.4556  -26.0417  -41.1112 H         1 UNK         0.0695 
     78 H78        21.4992  -26.1480  -40.9053 H         1 UNK         0.0983 
     79 H79        19.6649  -27.2323  -42.7779 H         1 UNK         0.3095 
     80 H80        21.6941  -27.3002  -45.6153 H         1 UNK         0.0454 
     81 H81        21.6237  -29.6921  -43.7151 H         1 UNK         0.0851 
     82 H82        23.0370  -29.0288  -44.5118 H         1 UNK         0.0851 
     83 H83        21.7856  -29.7970  -45.4723 H         1 UNK         0.0851 
     84 H84        19.3970  -28.8172  -44.5655 H         1 UNK         0.2976 
     85 H85        21.6467  -22.6167  -41.6236 H         1 UNK         0.3116 
     86 H86        21.4736  -24.3040  -39.2939 H         1 UNK         0.0646 
     87 H87        23.0217  -21.7220  -39.8377 H         1 UNK         0.0847 
     88 H88        22.7449  -22.4440  -38.2600 H         1 UNK         0.0847 
     89 H89        21.3873  -21.8290  -39.1822 H         1 UNK         0.0847 
     90 H90        23.6320  -24.5352  -41.9506 H         1 UNK         0.3040 
     91 H91        26.0466  -25.2078  -40.5151 H         1 UNK         0.1015 
     92 H92        25.1885  -25.9689  -43.3598 H         1 UNK         0.0786 
     93 H93        26.8040  -26.1199  -42.6915 H         1 UNK         0.0786 
     94 H94        26.0956  -24.5280  -42.9043 H         1 UNK         0.0786 
     95 H95        23.3335  -27.0762  -41.7631 H         1 UNK         0.3172 
     96 H96        22.2598  -28.8656  -41.0551 H         1 UNK         0.0595 
     97 H97        22.5063  -29.6726  -38.7185 H         1 UNK         0.0839 
     98 H98        22.4376  -27.9233  -38.7893 H         1 UNK         0.0839 
     99 H99        23.9743  -28.7198  -38.5149 H         1 UNK         0.0839 
    100 H100       24.9293  -30.2777  -39.3214 H         1 UNK         0.2998 
    101 H101       25.9318  -32.2617  -39.4535 H         1 UNK         0.0822 
    102 H102       27.1599  -32.8180  -41.5175 H         1 UNK         0.0787 
    103 H103       26.1535  -31.7345  -42.4663 H         1 UNK         0.0787 
    104 H104       27.2474  -31.0856  -41.2456 H         1 UNK         0.0787 
    105 H105       23.0716  -32.2410  -39.5909 H         1 UNK         0.3055 
    106 H106       21.2363  -33.4481  -39.8799 H         1 UNK         0.1106 
    107 H107       21.4074  -35.9013  -39.6878 H         1 UNK         0.0828 
    108 H108       23.1011  -35.8655  -40.1527 H         1 UNK         0.0828 
    109 H109       22.5854  -35.1567  -38.6231 H         1 UNK         0.0828 
    110 H110       22.5520  -32.3386  -42.3483 H         1 UNK         0.2931 
    111 H111       22.3435  -32.2512  -44.5213 H         1 UNK         0.0412 
    112 H112       24.4039  -35.4848  -44.6249 H         1 UNK         0.3472 
    113 H113       24.0512  -34.4909  -43.2306 H         1 UNK         0.3472 
    114 H114       19.8609  -34.0265  -44.2197 H         1 UNK         0.0970 
    115 H115       20.3818  -33.3762  -45.7430 H         1 UNK         0.0970 
    116 H116       19.2060  -32.3413  -42.1116 H         1 UNK         0.0612 
    117 H117       17.8506  -32.7606  -43.1403 H         1 UNK         0.0612 
@<TRIPOS>BOND
     1    1    2 1    
     2    1   62 1    
     3    1   63 1    
     4    1   64 1    
     5    2    3 2    
     6    2    4 am   BACKBONE|DICT|INTERRES
     7    4    5 1    
     8    4   65 1    
     9    5    6 1    
    10    5   25 1    
    11    5   66 1    
    12    6    7 1    
    13    6   67 1    
    14    6   68 1    
    15    7    8 1    
    16    8    9 1    
    17    8   69 1    
    18    8   70 1    
    19    9   10 ar   
    20    9   14 ar   
    21   10   11 ar   
    22   10   71 1    
    23   11   12 ar   
    24   11   61 1    
    25   12   13 ar   
    26   12   72 1    
    27   13   14 ar   
    28   13   15 1    
    29   14   73 1    
    30   15   16 1    
    31   15   74 1    
    32   15   75 1    
    33   16   17 1    
    34   17   18 1    
    35   17   76 1    
    36   17   77 1    
    37   18   19 1    
    38   18   27 1    
    39   18   78 1    
    40   19   20 am   BACKBONE|DICT|INTERRES
    41   19   79 1    
    42   20   21 2    
    43   20   22 1    
    44   22   23 1    
    45   22   24 1    
    46   22   80 1    
    47   23   81 1    
    48   23   82 1    
    49   23   83 1    
    50   24   25 am   BACKBONE|DICT|INTERRES
    51   24   84 1    
    52   25   26 2    
    53   27   28 2    
    54   27   29 am   BACKBONE|DICT|INTERRES
    55   29   30 1    
    56   29   85 1    
    57   30   31 1    
    58   30   32 1    
    59   30   86 1    
    60   31   87 1    
    61   31   88 1    
    62   31   89 1    
    63   32   33 2    
    64   32   34 am   BACKBONE|DICT|INTERRES
    65   34   35 1    
    66   34   90 1    
    67   35   36 1    
    68   35   37 1    
    69   35   91 1    
    70   36   92 1    
    71   36   93 1    
    72   36   94 1    
    73   37   38 2    
    74   37   39 am   BACKBONE|DICT|INTERRES
    75   39   40 1    
    76   39   95 1    
    77   40   41 1    
    78   40   42 1    
    79   40   96 1    
    80   41   97 1    
    81   41   98 1    
    82   41   99 1    
    83   42   43 2    
    84   42   44 am   BACKBONE|DICT|INTERRES
    85   44   45 1    
    86   44  100 1    
    87   45   46 1    
    88   45   47 1    
    89   45  101 1    
    90   46  102 1    
    91   46  103 1    
    92   46  104 1    
    93   47   48 2    
    94   47   49 am   BACKBONE|DICT|INTERRES
    95   49   50 1    
    96   49  105 1    
    97   50   51 1    
    98   50   52 1    
    99   50  106 1    
   100   51  107 1    
   101   51  108 1    
   102   51  109 1    
   103   52   53 2    
   104   52   54 am   BACKBONE|DICT|INTERRES
   105   54   55 1    
   106   54  110 1    
   107   55   56 1    
   108   55   59 1    
   109   55  111 1    
   110   56   57 am   BACKBONE|DICT|INTERRES
   111   56   58 2    
   112   57  112 1    
   113   57  113 1    
   114   59   60 1    
   115   59  114 1    
   116   59  115 1    
   117   60   61 1    
   118   61  116 1    
   119   61  117 1    
@<TRIPOS>SUBSTRUCTURE
     1 UNK         1 GROUP             0       ****    0 ROOT    
