@<TRIPOS>MOLECULE
3R8
117   119    1
SMALL
USER_CHARGES


@<TRIPOS>ATOM
      1 CA         18.8075  -23.5718  -46.6226 C.3       0 UNK        -0.2013 
      2 C          18.4597  -25.0200  -46.3155 C.2       0 UNK         0.4866 
      3 O          18.4587  -25.4132  -45.1491 O.2       0 UNK        -0.5176 
      4 N          18.1925  -25.8254  -47.3558 N.am      1 UNK        -0.4884 
      5 CA         17.7642  -27.2355  -47.2885 C.3       1 UNK         0.0853 
      6 C6         16.3681  -27.3753  -46.6124 C.3       10 UNK        -0.0849 
      7 S7         15.4249  -28.8346  -47.1832 S.3       10 UNK        -0.2776 
      8 C8         14.3918  -29.2392  -45.7327 C.3       10 UNK         0.0316 
      9 C9         15.2081  -29.5282  -44.4780 C.ar      10 UNK        -0.0863 
     10 C10        15.9846  -30.6869  -44.3838 C.ar      10 UNK        -0.1009 
     11 C11        16.7593  -30.9352  -43.2447 C.ar      10 UNK        -0.0712 
     12 C12        16.7255  -30.0284  -42.1807 C.ar      10 UNK        -0.0894 
     13 C13        15.9466  -28.8687  -42.2592 C.ar      10 UNK        -0.0745 
     14 C14        15.1887  -28.6284  -43.4087 C.ar      10 UNK        -0.0972 
     15 C15        15.9095  -27.8650  -41.1117 C.3       10 UNK         0.0209 
     16 S16        17.5594  -27.3527  -40.5268 S.3       10 UNK        -0.2568 
     17 C17        18.3719  -26.7445  -42.0487 C.3       10 UNK        -0.0983 
     18 CA         19.7348  -27.4507  -42.2907 C.3       3 UNK         0.0876 
     19 N          20.0371  -27.5586  -43.7188 N.am      3 UNK        -0.4424 
     20 C          20.8777  -28.4550  -44.2578 C.2       2 UNK         0.4918 
     21 O          21.4288  -29.3473  -43.6104 O.2       2 UNK        -0.4875 
     22 CA         21.1748  -28.3165  -45.7676 C.3       2 UNK         0.0481 
     23 CB         21.6356  -29.6421  -46.4116 C.3       2 UNK        -0.1831 
     24 N          20.0717  -27.7009  -46.5182 N.am      2 UNK        -0.4498 
     25 C          18.8300  -28.1876  -46.6815 C.2       1 UNK         0.5027 
     26 O          18.5144  -29.3334  -46.3719 O.2       1 UNK        -0.4969 
     27 C          20.8896  -26.7690  -41.5164 C.2       3 UNK         0.5005 
     28 O          21.8691  -26.3197  -42.1192 O.2       3 UNK        -0.5279 
     29 N          20.7204  -26.6938  -40.1873 N.am      4 UNK        -0.4463 
     30 CA         21.6487  -26.2155  -39.1534 C.3       4 UNK         0.0283 
     31 CB         22.1784  -24.7984  -39.4546 C.3       4 UNK        -0.1875 
     32 C          22.7975  -27.2033  -38.8978 C.2       4 UNK         0.4949 
     33 O          23.1410  -28.0035  -39.7679 O.2       4 UNK        -0.5039 
     34 N          23.3865  -27.1213  -37.6968 N.am      5 UNK        -0.4663 
     35 CA         24.4118  -28.0396  -37.1752 C.3       5 UNK         0.0242 
     36 CB         24.7451  -27.6423  -35.7277 C.3       5 UNK        -0.1982 
     37 C          25.7022  -28.1439  -38.0118 C.2       5 UNK         0.5017 
     38 O          26.4340  -29.1235  -37.8684 O.2       5 UNK        -0.5012 
     39 N          25.9489  -27.1508  -38.8757 N.am      6 UNK        -0.4439 
     40 CA         27.0427  -27.1244  -39.8468 C.3       6 UNK         0.0297 
     41 CB         27.1651  -25.7012  -40.4164 C.3       6 UNK        -0.2006 
     42 C          26.8935  -28.1475  -40.9917 C.2       6 UNK         0.4892 
     43 O          27.8948  -28.4373  -41.6485 O.2       6 UNK        -0.5089 
     44 N          25.6770  -28.6613  -41.2270 N.am      7 UNK        -0.4243 
     45 CA         25.3779  -29.6217  -42.2907 C.3       7 UNK         0.0196 
     46 CB         24.7562  -28.8898  -43.4927 C.3       7 UNK        -0.2007 
     47 C          24.4722  -30.7514  -41.7871 C.2       7 UNK         0.5020 
     48 O          24.8276  -31.9197  -41.9444 O.2       7 UNK        -0.5147 
     49 N          23.3233  -30.3875  -41.1982 N.am      8 UNK        -0.4734 
     50 CA         22.2908  -31.2521  -40.6058 C.3       8 UNK         0.0238 
     51 CB         22.7810  -31.7791  -39.2415 C.3       8 UNK        -0.1912 
     52 C          21.7876  -32.3823  -41.5307 C.2       8 UNK         0.5038 
     53 O          21.4456  -33.4623  -41.0443 O.2       8 UNK        -0.5046 
     54 N          21.7787  -32.1214  -42.8445 N.am      9 UNK        -0.4200 
     55 CA         21.5143  -33.0852  -43.9267 C.3       9 UNK         0.0839 
     56 C          22.5011  -34.2936  -43.9858 C.2       9 UNK         0.5513 
     57 N          23.6948  -34.2057  -43.4103 N.am      9 UNK        -0.7519 
     58 O          22.2002  -35.3186  -44.5930 O.2       9 UNK        -0.4960 
     59 C59        20.0188  -33.5052  -44.0066 C.3       10 UNK        -0.0876 
     60 S60        18.9670  -32.0783  -44.4242 S.3       10 UNK        -0.2414 
     61 C61        17.6503  -32.1683  -43.1752 C.3       10 UNK         0.0169 
     62 H62        19.8029  -23.3371  -46.2466 H         1 UNK         0.0903 
     63 H63        18.7904  -23.3646  -47.6924 H         1 UNK         0.0903 
     64 H64        18.0947  -22.9060  -46.1369 H         1 UNK         0.0903 
     65 H65        18.2416  -25.4425  -48.2911 H         1 UNK         0.3096 
     66 H66        17.6627  -27.5495  -48.3288 H         1 UNK         0.1121 
     67 H67        15.7531  -26.5032  -46.8396 H         1 UNK         0.0849 
     68 H68        16.4769  -27.3809  -45.5276 H         1 UNK         0.0849 
     69 H69        13.6921  -28.4200  -45.5594 H         1 UNK         0.0865 
     70 H70        13.7814  -30.1120  -45.9687 H         1 UNK         0.0865 
     71 H71        16.0171  -31.3784  -45.2147 H         1 UNK         0.1346 
     72 H72        17.3193  -30.2136  -41.2962 H         1 UNK         0.1412 
     73 H73        14.5887  -27.7310  -43.4767 H         1 UNK         0.1426 
     74 H74        15.3636  -28.3069  -40.2773 H         1 UNK         0.0716 
     75 H75        15.3576  -26.9687  -41.3993 H         1 UNK         0.0716 
     76 H76        18.4819  -25.6595  -41.9949 H         1 UNK         0.0695 
     77 H77        17.7036  -26.9214  -42.8925 H         1 UNK         0.0695 
     78 H78        19.6632  -28.4743  -41.9149 H         1 UNK         0.0983 
     79 H79        19.6257  -26.8451  -44.3115 H         1 UNK         0.3095 
     80 H80        22.0081  -27.6163  -45.8397 H         1 UNK         0.0454 
     81 H81        21.8337  -29.5203  -47.4761 H         1 UNK         0.0851 
     82 H82        20.8917  -30.4303  -46.2950 H         1 UNK         0.0851 
     83 H83        22.5561  -30.0007  -45.9503 H         1 UNK         0.0851 
     84 H84        20.2279  -26.7502  -46.8227 H         1 UNK         0.2976 
     85 H85        19.8539  -27.0759  -39.8286 H         1 UNK         0.3116 
     86 H86        21.0580  -26.1630  -38.2375 H         1 UNK         0.0646 
     87 H87        22.8772  -24.7905  -40.2916 H         1 UNK         0.0847 
     88 H88        22.7074  -24.3874  -38.5942 H         1 UNK         0.0847 
     89 H89        21.3653  -24.1119  -39.6903 H         1 UNK         0.0847 
     90 H90        23.0533  -26.4200  -37.0501 H         1 UNK         0.3040 
     91 H91        23.9714  -29.0387  -37.1611 H         1 UNK         0.1015 
     92 H92        25.1594  -26.6348  -35.6715 H         1 UNK         0.0786 
     93 H93        25.4808  -28.3214  -35.2939 H         1 UNK         0.0786 
     94 H94        23.8611  -27.6797  -35.0907 H         1 UNK         0.0786 
     95 H95        25.2815  -26.3947  -38.9179 H         1 UNK         0.3172 
     96 H96        27.9681  -27.3609  -39.3174 H         1 UNK         0.0595 
     97 H97        26.2625  -25.4011  -40.9506 H         1 UNK         0.0839 
     98 H98        27.9965  -25.6322  -41.1195 H         1 UNK         0.0839 
     99 H99        27.3500  -24.9708  -39.6285 H         1 UNK         0.0839 
    100 H100       24.9034  -28.3941  -40.6249 H         1 UNK         0.2998 
    101 H101       26.2992  -30.0999  -42.6309 H         1 UNK         0.0822 
    102 H102       25.4755  -28.2144  -43.9559 H         1 UNK         0.0787 
    103 H103       24.4309  -29.5947  -44.2587 H         1 UNK         0.0787 
    104 H104       23.8887  -28.2977  -43.1986 H         1 UNK         0.0787 
    105 H105       23.1460  -29.3932  -41.0830 H         1 UNK         0.3055 
    106 H106       21.4271  -30.6106  -40.4239 H         1 UNK         0.1106 
    107 H107       21.9910  -32.3198  -38.7190 H         1 UNK         0.0828 
    108 H108       23.6249  -32.4604  -39.3554 H         1 UNK         0.0828 
    109 H109       23.0950  -30.9617  -38.5927 H         1 UNK         0.0828 
    110 H110       21.9866  -31.1725  -43.1406 H         1 UNK         0.2931 
    111 H111       21.7369  -32.5356  -44.8421 H         1 UNK         0.0412 
    112 H112       23.9743  -33.3692  -42.9054 H         1 UNK         0.3472 
    113 H113       24.3261  -34.9887  -43.4664 H         1 UNK         0.3472 
    114 H114       19.6929  -33.9657  -43.0730 H         1 UNK         0.0970 
    115 H115       19.8609  -34.2526  -44.7859 H         1 UNK         0.0970 
    116 H116       18.1014  -32.2649  -42.1862 H         1 UNK         0.0612 
    117 H117       17.0514  -33.0647  -43.3412 H         1 UNK         0.0612 
@<TRIPOS>BOND
     1    1    2 1    
     2    1   62 1    
     3    1   63 1    
     4    1   64 1    
     5    2    3 2    
     6    2    4 am   BACKBONE|DICT|INTERRES
     7    4    5 1    
     8    4   65 1    
     9    5    6 1    
    10    5   25 1    
    11    5   66 1    
    12    6    7 1    
    13    6   67 1    
    14    6   68 1    
    15    7    8 1    
    16    8    9 1    
    17    8   69 1    
    18    8   70 1    
    19    9   10 ar   
    20    9   14 ar   
    21   10   11 ar   
    22   10   71 1    
    23   11   12 ar   
    24   11   61 1    
    25   12   13 ar   
    26   12   72 1    
    27   13   14 ar   
    28   13   15 1    
    29   14   73 1    
    30   15   16 1    
    31   15   74 1    
    32   15   75 1    
    33   16   17 1    
    34   17   18 1    
    35   17   76 1    
    36   17   77 1    
    37   18   19 1    
    38   18   27 1    
    39   18   78 1    
    40   19   20 am   BACKBONE|DICT|INTERRES
    41   19   79 1    
    42   20   21 2    
    43   20   22 1    
    44   22   23 1    
    45   22   24 1    
    46   22   80 1    
    47   23   81 1    
    48   23   82 1    
    49   23   83 1    
    50   24   25 am   BACKBONE|DICT|INTERRES
    51   24   84 1    
    52   25   26 2    
    53   27   28 2    
    54   27   29 am   BACKBONE|DICT|INTERRES
    55   29   30 1    
    56   29   85 1    
    57   30   31 1    
    58   30   32 1    
    59   30   86 1    
    60   31   87 1    
    61   31   88 1    
    62   31   89 1    
    63   32   33 2    
    64   32   34 am   BACKBONE|DICT|INTERRES
    65   34   35 1    
    66   34   90 1    
    67   35   36 1    
    68   35   37 1    
    69   35   91 1    
    70   36   92 1    
    71   36   93 1    
    72   36   94 1    
    73   37   38 2    
    74   37   39 am   BACKBONE|DICT|INTERRES
    75   39   40 1    
    76   39   95 1    
    77   40   41 1    
    78   40   42 1    
    79   40   96 1    
    80   41   97 1    
    81   41   98 1    
    82   41   99 1    
    83   42   43 2    
    84   42   44 am   BACKBONE|DICT|INTERRES
    85   44   45 1    
    86   44  100 1    
    87   45   46 1    
    88   45   47 1    
    89   45  101 1    
    90   46  102 1    
    91   46  103 1    
    92   46  104 1    
    93   47   48 2    
    94   47   49 am   BACKBONE|DICT|INTERRES
    95   49   50 1    
    96   49  105 1    
    97   50   51 1    
    98   50   52 1    
    99   50  106 1    
   100   51  107 1    
   101   51  108 1    
   102   51  109 1    
   103   52   53 2    
   104   52   54 am   BACKBONE|DICT|INTERRES
   105   54   55 1    
   106   54  110 1    
   107   55   56 1    
   108   55   59 1    
   109   55  111 1    
   110   56   57 am   BACKBONE|DICT|INTERRES
   111   56   58 2    
   112   57  112 1    
   113   57  113 1    
   114   59   60 1    
   115   59  114 1    
   116   59  115 1    
   117   60   61 1    
   118   61  116 1    
   119   61  117 1    
@<TRIPOS>SUBSTRUCTURE
     1 UNK         1 GROUP             0       ****    0 ROOT    
