@<TRIPOS>MOLECULE
3R8
117   119    1
SMALL
USER_CHARGES


@<TRIPOS>ATOM
      1 CA         14.9112  -29.1101  -39.7187 C.3       0 UNK        -0.2013 
      2 C          14.8707  -28.8912  -41.2237 C.2       0 UNK         0.4866 
      3 O          14.0526  -29.5040  -41.9106 O.2       0 UNK        -0.5176 
      4 N          15.7372  -28.0142  -41.7387 N.am      1 UNK        -0.4884 
      5 CA         15.8231  -27.6342  -43.1470 C.3       1 UNK         0.0853 
      6 C6         16.6313  -28.6624  -43.9844 C.3       10 UNK        -0.0849 
      7 S7         16.1994  -28.6008  -45.7587 S.3       10 UNK        -0.2776 
      8 C8         17.1241  -30.0254  -46.4176 C.3       10 UNK         0.0316 
      9 C9         18.6189  -29.9143  -46.1513 C.ar      10 UNK        -0.0863 
     10 C10        19.2558  -30.8457  -45.3291 C.ar      10 UNK        -0.1009 
     11 C11        20.6246  -30.7438  -45.0681 C.ar      10 UNK        -0.0712 
     12 C12        21.3567  -29.6925  -45.6304 C.ar      10 UNK        -0.0894 
     13 C13        20.7335  -28.7500  -46.4563 C.ar      10 UNK        -0.0745 
     14 C14        19.3652  -28.8819  -46.7257 C.ar      10 UNK        -0.0972 
     15 C15        21.5582  -27.6285  -47.0860 C.3       10 UNK         0.0209 
     16 S16        20.6741  -26.0319  -47.1815 S.3       10 UNK        -0.2568 
     17 C17        21.3668  -25.0766  -45.7857 C.3       10 UNK        -0.0983 
     18 CA         20.6185  -25.2006  -44.4261 C.3       3 UNK         0.0876 
     19 N          19.1653  -25.1857  -44.5532 N.am      3 UNK        -0.4424 
     20 C          18.4030  -24.0938  -44.6510 C.2       2 UNK         0.4918 
     21 O          18.8546  -22.9477  -44.6581 O.2       2 UNK        -0.4875 
     22 CA         16.8791  -24.2947  -44.7693 C.3       2 UNK         0.0481 
     23 CB         16.4055  -23.9346  -46.1872 C.3       2 UNK        -0.1831 
     24 N          16.4158  -25.6490  -44.4502 N.am      2 UNK        -0.4498 
     25 C          16.3888  -26.2025  -43.2313 C.2       1 UNK         0.5027 
     26 O          16.7785  -25.6282  -42.2099 O.2       1 UNK        -0.4969 
     27 C          21.0405  -26.4252  -43.5980 C.2       3 UNK         0.5005 
     28 O          20.2135  -27.2958  -43.3156 O.2       3 UNK        -0.5279 
     29 N          22.3187  -26.4349  -43.2065 N.am      4 UNK        -0.4463 
     30 CA         22.9928  -27.4984  -42.4657 C.3       4 UNK         0.0283 
     31 CB         23.5827  -26.8921  -41.1798 C.3       4 UNK        -0.1875 
     32 C          24.1018  -28.1024  -43.3423 C.2       4 UNK         0.4949 
     33 O          24.4177  -27.5544  -44.4024 O.2       4 UNK        -0.5039 
     34 N          24.6873  -29.2089  -42.8787 N.am      5 UNK        -0.4663 
     35 CA         25.7923  -29.9089  -43.5316 C.3       5 UNK         0.0242 
     36 CB         25.2333  -31.0612  -44.3943 C.3       5 UNK        -0.1982 
     37 C          26.7924  -30.3407  -42.4487 C.2       5 UNK         0.5017 
     38 O          27.2397  -29.4925  -41.6747 O.2       5 UNK        -0.5012 
     39 N          27.1120  -31.6417  -42.3851 N.am      6 UNK        -0.4439 
     40 CA         27.9210  -32.2565  -41.3237 C.3       6 UNK         0.0297 
     41 CB         28.3427  -33.6677  -41.7646 C.3       6 UNK        -0.2006 
     42 C          27.1964  -32.3106  -39.9625 C.2       6 UNK         0.4892 
     43 O          27.8541  -32.4530  -38.9310 O.2       6 UNK        -0.5089 
     44 N          25.8659  -32.1862  -39.9916 N.am      7 UNK        -0.4243 
     45 CA         24.9778  -32.0132  -38.8494 C.3       7 UNK         0.0196 
     46 CB         24.1338  -33.2893  -38.6801 C.3       7 UNK        -0.2007 
     47 C          24.0866  -30.7922  -39.1215 C.2       7 UNK         0.5020 
     48 O          24.1089  -30.2447  -40.2273 O.2       7 UNK        -0.5147 
     49 N          23.2948  -30.3995  -38.1157 N.am      8 UNK        -0.4734 
     50 CA         22.3461  -29.2798  -38.1885 C.3       8 UNK         0.0238 
     51 CB         21.8447  -28.9544  -36.7716 C.3       8 UNK        -0.1912 
     52 C          21.1552  -29.5139  -39.1399 C.2       8 UNK         0.5038 
     53 O          20.5090  -28.5420  -39.5303 O.2       8 UNK        -0.5046 
     54 N          20.8878  -30.7835  -39.4780 N.am      9 UNK        -0.4200 
     55 CA         19.8501  -31.2485  -40.4165 C.3       9 UNK         0.0839 
     56 C          18.3841  -31.0665  -39.9195 C.2       9 UNK         0.5513 
     57 N          18.1470  -30.7720  -38.6465 N.am      9 UNK        -0.7519 
     58 O          17.4422  -31.2400  -40.6874 O.2       9 UNK        -0.4960 
     59 C59        20.0584  -30.7241  -41.8664 C.3       10 UNK        -0.0876 
     60 S60        21.7062  -31.1406  -42.5384 S.3       10 UNK        -0.2414 
     61 C61        21.3092  -31.7836  -44.1918 C.3       10 UNK         0.0169 
     62 H62        15.7497  -28.5905  -39.2551 H         1 UNK         0.0903 
     63 H63        13.9899  -28.7513  -39.2608 H         1 UNK         0.0903 
     64 H64        15.0102  -30.1730  -39.4998 H         1 UNK         0.0903 
     65 H65        16.3506  -27.4766  -41.1373 H         1 UNK         0.3096 
     66 H66        14.8016  -27.5842  -43.5325 H         1 UNK         0.1121 
     67 H67        16.4223  -29.6761  -43.6381 H         1 UNK         0.0849 
     68 H68        17.7066  -28.5208  -43.8540 H         1 UNK         0.0849 
     69 H69        16.7167  -30.9421  -45.9881 H         1 UNK         0.0865 
     70 H70        16.9563  -30.0911  -47.4934 H         1 UNK         0.0865 
     71 H71        18.6853  -31.6530  -44.8905 H         1 UNK         0.1346 
     72 H72        22.4142  -29.6104  -45.4224 H         1 UNK         0.1412 
     73 H73        18.8693  -28.1716  -47.3725 H         1 UNK         0.1426 
     74 H74        21.8234  -27.9332  -48.0990 H         1 UNK         0.0716 
     75 H75        22.4996  -27.4950  -46.5510 H         1 UNK         0.0716 
     76 H76        21.3290  -24.0309  -46.0945 H         1 UNK         0.0695 
     77 H77        22.4311  -25.2959  -45.6869 H         1 UNK         0.0695 
     78 H78        20.9004  -24.3399  -43.8147 H         1 UNK         0.0983 
     79 H79        18.7367  -26.0995  -44.4921 H         1 UNK         0.3095 
     80 H80        16.4069  -23.6044  -44.0674 H         1 UNK         0.0454 
     81 H81        16.8399  -24.5973  -46.9370 H         1 UNK         0.0851 
     82 H82        16.6927  -22.9153  -46.4492 H         1 UNK         0.0851 
     83 H83        15.3204  -23.9938  -46.2723 H         1 UNK         0.0851 
     84 H84        16.1128  -26.2174  -45.2312 H         1 UNK         0.2976 
     85 H85        22.9339  -25.7133  -43.5559 H         1 UNK         0.3116 
     86 H86        22.2899  -28.2895  -42.1990 H         1 UNK         0.0646 
     87 H87        22.7963  -26.4959  -40.5371 H         1 UNK         0.0847 
     88 H88        24.2804  -26.0824  -41.3967 H         1 UNK         0.0847 
     89 H89        24.1262  -27.6377  -40.5999 H         1 UNK         0.0847 
     90 H90        24.4137  -29.5660  -41.9630 H         1 UNK         0.3040 
     91 H91        26.3355  -29.2218  -44.1842 H         1 UNK         0.1015 
     92 H92        24.6706  -31.7815  -43.7989 H         1 UNK         0.0786 
     93 H93        26.0295  -31.5952  -44.9146 H         1 UNK         0.0786 
     94 H94        24.5619  -30.6788  -45.1627 H         1 UNK         0.0786 
     95 H95        26.7120  -32.2660  -43.0713 H         1 UNK         0.3172 
     96 H96        28.8232  -31.6556  -41.1911 H         1 UNK         0.0595 
     97 H97        27.4811  -34.3184  -41.9194 H         1 UNK         0.0839 
     98 H98        28.9739  -34.1392  -41.0097 H         1 UNK         0.0839 
     99 H99        28.9164  -33.6408  -42.6912 H         1 UNK         0.0839 
    100 H100       25.4328  -31.9868  -40.8826 H         1 UNK         0.2998 
    101 H101       25.5532  -31.8234  -37.9408 H         1 UNK         0.0822 
    102 H102       24.7689  -34.1644  -38.5400 H         1 UNK         0.0787 
    103 H103       23.4825  -33.2242  -37.8079 H         1 UNK         0.0787 
    104 H104       23.5018  -33.4734  -39.5502 H         1 UNK         0.0787 
    105 H105       23.3383  -30.8993  -37.2385 H         1 UNK         0.3055 
    106 H106       22.8850  -28.4089  -38.5673 H         1 UNK         0.1106 
    107 H107       21.3139  -29.7966  -36.3261 H         1 UNK         0.0828 
    108 H108       21.1576  -28.1069  -36.7850 H         1 UNK         0.0828 
    109 H109       22.6689  -28.6874  -36.1099 H         1 UNK         0.0828 
    110 H110       21.4742  -31.5045  -39.0869 H         1 UNK         0.2931 
    111 H111       19.9814  -32.3305  -40.4555 H         1 UNK         0.0412 
    112 H112       17.1962  -30.6837  -38.3268 H         1 UNK         0.3472 
    113 H113       18.9108  -30.6393  -38.0039 H         1 UNK         0.3472 
    114 H114       19.9276  -29.6417  -41.9128 H         1 UNK         0.0970 
    115 H115       19.2966  -31.1433  -42.5239 H         1 UNK         0.0970 
    116 H116       20.6891  -32.6754  -44.0881 H         1 UNK         0.0612 
    117 H117       22.2324  -32.1084  -44.6731 H         1 UNK         0.0612 
@<TRIPOS>BOND
     1    1    2 1    
     2    1   62 1    
     3    1   63 1    
     4    1   64 1    
     5    2    3 2    
     6    2    4 am   BACKBONE|DICT|INTERRES
     7    4    5 1    
     8    4   65 1    
     9    5    6 1    
    10    5   25 1    
    11    5   66 1    
    12    6    7 1    
    13    6   67 1    
    14    6   68 1    
    15    7    8 1    
    16    8    9 1    
    17    8   69 1    
    18    8   70 1    
    19    9   10 ar   
    20    9   14 ar   
    21   10   11 ar   
    22   10   71 1    
    23   11   12 ar   
    24   11   61 1    
    25   12   13 ar   
    26   12   72 1    
    27   13   14 ar   
    28   13   15 1    
    29   14   73 1    
    30   15   16 1    
    31   15   74 1    
    32   15   75 1    
    33   16   17 1    
    34   17   18 1    
    35   17   76 1    
    36   17   77 1    
    37   18   19 1    
    38   18   27 1    
    39   18   78 1    
    40   19   20 am   BACKBONE|DICT|INTERRES
    41   19   79 1    
    42   20   21 2    
    43   20   22 1    
    44   22   23 1    
    45   22   24 1    
    46   22   80 1    
    47   23   81 1    
    48   23   82 1    
    49   23   83 1    
    50   24   25 am   BACKBONE|DICT|INTERRES
    51   24   84 1    
    52   25   26 2    
    53   27   28 2    
    54   27   29 am   BACKBONE|DICT|INTERRES
    55   29   30 1    
    56   29   85 1    
    57   30   31 1    
    58   30   32 1    
    59   30   86 1    
    60   31   87 1    
    61   31   88 1    
    62   31   89 1    
    63   32   33 2    
    64   32   34 am   BACKBONE|DICT|INTERRES
    65   34   35 1    
    66   34   90 1    
    67   35   36 1    
    68   35   37 1    
    69   35   91 1    
    70   36   92 1    
    71   36   93 1    
    72   36   94 1    
    73   37   38 2    
    74   37   39 am   BACKBONE|DICT|INTERRES
    75   39   40 1    
    76   39   95 1    
    77   40   41 1    
    78   40   42 1    
    79   40   96 1    
    80   41   97 1    
    81   41   98 1    
    82   41   99 1    
    83   42   43 2    
    84   42   44 am   BACKBONE|DICT|INTERRES
    85   44   45 1    
    86   44  100 1    
    87   45   46 1    
    88   45   47 1    
    89   45  101 1    
    90   46  102 1    
    91   46  103 1    
    92   46  104 1    
    93   47   48 2    
    94   47   49 am   BACKBONE|DICT|INTERRES
    95   49   50 1    
    96   49  105 1    
    97   50   51 1    
    98   50   52 1    
    99   50  106 1    
   100   51  107 1    
   101   51  108 1    
   102   51  109 1    
   103   52   53 2    
   104   52   54 am   BACKBONE|DICT|INTERRES
   105   54   55 1    
   106   54  110 1    
   107   55   56 1    
   108   55   59 1    
   109   55  111 1    
   110   56   57 am   BACKBONE|DICT|INTERRES
   111   56   58 2    
   112   57  112 1    
   113   57  113 1    
   114   59   60 1    
   115   59  114 1    
   116   59  115 1    
   117   60   61 1    
   118   61  116 1    
   119   61  117 1    
@<TRIPOS>SUBSTRUCTURE
     1 UNK         1 GROUP             0       ****    0 ROOT    
