@<TRIPOS>MOLECULE
3R8
117   119    1
SMALL
USER_CHARGES


@<TRIPOS>ATOM
      1 CA         14.8764  -23.4291  -46.6937 C.3       0 UNK        -0.2013 
      2 C          15.8993  -24.3493  -46.0457 C.2       0 UNK         0.4866 
      3 O          17.0891  -24.2446  -46.3384 O.2       0 UNK        -0.5176 
      4 N          15.4502  -25.2344  -45.1460 N.am      1 UNK        -0.4884 
      5 CA         16.2573  -26.2622  -44.4645 C.3       1 UNK         0.0853 
      6 C6         15.3743  -27.4420  -43.9831 C.3       10 UNK        -0.0849 
      7 S7         14.7425  -28.3767  -45.4238 S.3       10 UNK        -0.2776 
      8 C8         15.6029  -29.9889  -45.3324 C.3       10 UNK         0.0316 
      9 C9         17.0659  -29.8939  -44.9108 C.ar      10 UNK        -0.0863 
     10 C10        17.4775  -30.4861  -43.7140 C.ar      10 UNK        -0.1009 
     11 C11        18.8087  -30.4071  -43.2971 C.ar      10 UNK        -0.0712 
     12 C12        19.7286  -29.7042  -44.0803 C.ar      10 UNK        -0.0894 
     13 C13        19.3279  -29.0726  -45.2621 C.ar      10 UNK        -0.0745 
     14 C14        18.0008  -29.2062  -45.6915 C.ar      10 UNK        -0.0972 
     15 C15        20.3189  -28.2181  -46.0483 C.3       10 UNK         0.0209 
     16 S16        19.6919  -26.5168  -46.2425 S.3       10 UNK        -0.2568 
     17 C17        21.1514  -25.4434  -45.9895 C.3       10 UNK        -0.0983 
     18 CA         21.2636  -24.8149  -44.5689 C.3       3 UNK         0.0876 
     19 N          19.9621  -24.4131  -44.0215 N.am      3 UNK        -0.4424 
     20 C          19.7278  -23.8284  -42.8363 C.2       2 UNK         0.4918 
     21 O          20.6172  -23.4350  -42.0815 O.2       2 UNK        -0.4875 
     22 CA         18.2545  -23.6559  -42.4046 C.3       2 UNK         0.0481 
     23 CB         17.8702  -22.1674  -42.3844 C.3       2 UNK        -0.1831 
     24 N          17.2943  -24.3804  -43.2439 N.am      2 UNK        -0.4498 
     25 C          17.1874  -25.7127  -43.3557 C.2       1 UNK         0.5027 
     26 O          17.8377  -26.4947  -42.6607 O.2       1 UNK        -0.4969 
     27 C          22.0768  -25.7227  -43.6250 C.2       3 UNK         0.5005 
     28 O          23.2942  -25.5512  -43.5421 O.2       3 UNK        -0.5279 
     29 N          21.4056  -26.6660  -42.9433 N.am      4 UNK        -0.4463 
     30 CA         21.9130  -27.6247  -41.9444 C.3       4 UNK         0.0283 
     31 CB         22.4383  -26.8913  -40.6962 C.3       4 UNK        -0.1875 
     32 C          22.9561  -28.6458  -42.4462 C.2       4 UNK         0.4949 
     33 O          22.9647  -29.7716  -41.9483 O.2       4 UNK        -0.5039 
     34 N          23.8044  -28.2520  -43.4055 N.am      5 UNK        -0.4663 
     35 CA         24.8642  -29.0305  -44.0588 C.3       5 UNK         0.0242 
     36 CB         24.2486  -30.1189  -44.9625 C.3       5 UNK        -0.1982 
     37 C          25.8985  -29.5764  -43.0552 C.2       5 UNK         0.5017 
     38 O          26.2574  -30.7524  -43.1132 O.2       5 UNK        -0.5012 
     39 N          26.3269  -28.7021  -42.1304 N.am      6 UNK        -0.4439 
     40 CA         27.1906  -28.9868  -40.9751 C.3       6 UNK         0.0297 
     41 CB         28.6045  -29.4180  -41.4221 C.3       6 UNK        -0.2006 
     42 C          26.5399  -29.9715  -39.9803 C.2       6 UNK         0.4892 
     43 O          27.2236  -30.8367  -39.4305 O.2       6 UNK        -0.5089 
     44 N          25.2243  -29.8011  -39.7750 N.am      7 UNK        -0.4243 
     45 CA         24.3302  -30.6056  -38.9350 C.3       7 UNK         0.0196 
     46 CB         24.7061  -30.4811  -37.4428 C.3       7 UNK        -0.2007 
     47 C          24.2243  -32.0645  -39.4169 C.2       7 UNK         0.5020 
     48 O          24.2921  -32.9913  -38.6073 O.2       7 UNK        -0.5147 
     49 N          24.0308  -32.2451  -40.7320 N.am      8 UNK        -0.4734 
     50 CA         23.8942  -33.5545  -41.3863 C.3       8 UNK         0.0238 
     51 CB         23.8486  -33.3678  -42.9103 C.3       8 UNK        -0.1912 
     52 C          22.6604  -34.3468  -40.9236 C.2       8 UNK         0.5038 
     53 O          22.6927  -35.5780  -40.9269 O.2       8 UNK        -0.5046 
     54 N          21.6101  -33.6205  -40.5264 N.am      9 UNK        -0.4200 
     55 CA         20.3745  -34.1622  -39.9477 C.3       9 UNK         0.0839 
     56 C          20.5041  -34.5886  -38.4546 C.2       9 UNK         0.5513 
     57 N          21.6278  -34.3650  -37.7812 N.am      9 UNK        -0.7519 
     58 O          19.5619  -35.1433  -37.8950 O.2       9 UNK        -0.4960 
     59 C59        19.1808  -33.1952  -40.1579 C.3       10 UNK        -0.0876 
     60 S60        18.8779  -32.8215  -41.9205 S.3       10 UNK        -0.2414 
     61 C61        19.2326  -31.0353  -41.9753 C.3       10 UNK         0.0169 
     62 H62        14.8786  -23.5704  -47.7741 H         1 UNK         0.0903 
     63 H63        13.8670  -23.6190  -46.3293 H         1 UNK         0.0903 
     64 H64        15.1225  -22.3881  -46.4860 H         1 UNK         0.0903 
     65 H65        14.4607  -25.2640  -44.9422 H         1 UNK         0.3096 
     66 H66        16.9482  -26.6620  -45.2080 H         1 UNK         0.1121 
     67 H67        15.9181  -28.1154  -43.3198 H         1 UNK         0.0849 
     68 H68        14.5295  -27.0759  -43.3976 H         1 UNK         0.0849 
     69 H69        15.0489  -30.6313  -44.6460 H         1 UNK         0.0865 
     70 H70        15.5452  -30.4739  -46.3078 H         1 UNK         0.0865 
     71 H71        16.7608  -31.0120  -43.0978 H         1 UNK         0.1346 
     72 H72        20.7552  -29.6329  -43.7585 H         1 UNK         0.1412 
     73 H73        17.6827  -28.7300  -46.6092 H         1 UNK         0.1426 
     74 H74        20.4807  -28.6581  -47.0330 H         1 UNK         0.0716 
     75 H75        21.2897  -28.1985  -45.5508 H         1 UNK         0.0716 
     76 H76        21.0592  -24.6340  -46.7153 H         1 UNK         0.0695 
     77 H77        22.0608  -25.9755  -46.2772 H         1 UNK         0.0695 
     78 H78        21.8458  -23.8957  -44.6643 H         1 UNK         0.0983 
     79 H79        19.1657  -24.6717  -44.5882 H         1 UNK         0.3095 
     80 H80        18.1690  -24.0451  -41.3882 H         1 UNK         0.0454 
     81 H81        18.5378  -21.5991  -41.7353 H         1 UNK         0.0851 
     82 H82        16.8576  -22.0228  -42.0075 H         1 UNK         0.0851 
     83 H83        17.9268  -21.7224  -43.3787 H         1 UNK         0.0851 
     84 H84        16.7404  -23.8233  -43.8789 H         1 UNK         0.2976 
     85 H85        20.4086  -26.7213  -43.1135 H         1 UNK         0.3116 
     86 H86        21.0422  -28.2054  -41.6359 H         1 UNK         0.0646 
     87 H87        22.7053  -27.5981  -39.9096 H         1 UNK         0.0847 
     88 H88        23.3255  -26.2962  -40.9149 H         1 UNK         0.0847 
     89 H89        21.6824  -26.2223  -40.2848 H         1 UNK         0.0847 
     90 H90        23.7430  -27.2695  -43.6713 H         1 UNK         0.3040 
     91 H91        25.4091  -28.3395  -44.7042 H         1 UNK         0.1015 
     92 H92        25.0220  -30.6784  -45.4901 H         1 UNK         0.0786 
     93 H93        23.5955  -29.6809  -45.7172 H         1 UNK         0.0786 
     94 H94        23.6599  -30.8337  -44.3900 H         1 UNK         0.0786 
     95 H95        25.9692  -27.7579  -42.1874 H         1 UNK         0.3172 
     96 H96        27.2953  -28.0438  -40.4365 H         1 UNK         0.0595 
     97 H97        28.5987  -30.3947  -41.9068 H         1 UNK         0.0839 
     98 H98        29.2788  -29.4868  -40.5676 H         1 UNK         0.0839 
     99 H99        29.0380  -28.7000  -42.1181 H         1 UNK         0.0839 
    100 H100       24.7652  -29.0916  -40.3271 H         1 UNK         0.2998 
    101 H101       23.3335  -30.1782  -39.0559 H         1 UNK         0.0822 
    102 H102       23.9677  -30.9783  -36.8125 H         1 UNK         0.0787 
    103 H103       24.7482  -29.4379  -37.1298 H         1 UNK         0.0787 
    104 H104       25.6734  -30.9359  -37.2276 H         1 UNK         0.0787 
    105 H105       23.9319  -31.4223  -41.3205 H         1 UNK         0.3055 
    106 H106       24.7765  -34.1468  -41.1342 H         1 UNK         0.1106 
    107 H107       24.7546  -32.8904  -43.2810 H         1 UNK         0.0828 
    108 H108       23.7627  -34.3287  -43.4196 H         1 UNK         0.0828 
    109 H109       22.9942  -32.7617  -43.2135 H         1 UNK         0.0828 
    110 H110       21.6864  -32.6157  -40.5651 H         1 UNK         0.2931 
    111 H111       20.1388  -35.0797  -40.4906 H         1 UNK         0.0412 
    112 H112       21.6854  -34.6550  -36.8178 H         1 UNK         0.3472 
    113 H113       22.4296  -33.9299  -38.2208 H         1 UNK         0.3472 
    114 H114       18.2635  -33.6333  -39.7597 H         1 UNK         0.0970 
    115 H115       19.3366  -32.2709  -39.5988 H         1 UNK         0.0970 
    116 H116       20.2973  -30.8806  -41.7926 H         1 UNK         0.0612 
    117 H117       18.6980  -30.5328  -41.1680 H         1 UNK         0.0612 
@<TRIPOS>BOND
     1    1    2 1    
     2    1   62 1    
     3    1   63 1    
     4    1   64 1    
     5    2    3 2    
     6    2    4 am   BACKBONE|DICT|INTERRES
     7    4    5 1    
     8    4   65 1    
     9    5    6 1    
    10    5   25 1    
    11    5   66 1    
    12    6    7 1    
    13    6   67 1    
    14    6   68 1    
    15    7    8 1    
    16    8    9 1    
    17    8   69 1    
    18    8   70 1    
    19    9   10 ar   
    20    9   14 ar   
    21   10   11 ar   
    22   10   71 1    
    23   11   12 ar   
    24   11   61 1    
    25   12   13 ar   
    26   12   72 1    
    27   13   14 ar   
    28   13   15 1    
    29   14   73 1    
    30   15   16 1    
    31   15   74 1    
    32   15   75 1    
    33   16   17 1    
    34   17   18 1    
    35   17   76 1    
    36   17   77 1    
    37   18   19 1    
    38   18   27 1    
    39   18   78 1    
    40   19   20 am   BACKBONE|DICT|INTERRES
    41   19   79 1    
    42   20   21 2    
    43   20   22 1    
    44   22   23 1    
    45   22   24 1    
    46   22   80 1    
    47   23   81 1    
    48   23   82 1    
    49   23   83 1    
    50   24   25 am   BACKBONE|DICT|INTERRES
    51   24   84 1    
    52   25   26 2    
    53   27   28 2    
    54   27   29 am   BACKBONE|DICT|INTERRES
    55   29   30 1    
    56   29   85 1    
    57   30   31 1    
    58   30   32 1    
    59   30   86 1    
    60   31   87 1    
    61   31   88 1    
    62   31   89 1    
    63   32   33 2    
    64   32   34 am   BACKBONE|DICT|INTERRES
    65   34   35 1    
    66   34   90 1    
    67   35   36 1    
    68   35   37 1    
    69   35   91 1    
    70   36   92 1    
    71   36   93 1    
    72   36   94 1    
    73   37   38 2    
    74   37   39 am   BACKBONE|DICT|INTERRES
    75   39   40 1    
    76   39   95 1    
    77   40   41 1    
    78   40   42 1    
    79   40   96 1    
    80   41   97 1    
    81   41   98 1    
    82   41   99 1    
    83   42   43 2    
    84   42   44 am   BACKBONE|DICT|INTERRES
    85   44   45 1    
    86   44  100 1    
    87   45   46 1    
    88   45   47 1    
    89   45  101 1    
    90   46  102 1    
    91   46  103 1    
    92   46  104 1    
    93   47   48 2    
    94   47   49 am   BACKBONE|DICT|INTERRES
    95   49   50 1    
    96   49  105 1    
    97   50   51 1    
    98   50   52 1    
    99   50  106 1    
   100   51  107 1    
   101   51  108 1    
   102   51  109 1    
   103   52   53 2    
   104   52   54 am   BACKBONE|DICT|INTERRES
   105   54   55 1    
   106   54  110 1    
   107   55   56 1    
   108   55   59 1    
   109   55  111 1    
   110   56   57 am   BACKBONE|DICT|INTERRES
   111   56   58 2    
   112   57  112 1    
   113   57  113 1    
   114   59   60 1    
   115   59  114 1    
   116   59  115 1    
   117   60   61 1    
   118   61  116 1    
   119   61  117 1    
@<TRIPOS>SUBSTRUCTURE
     1 UNK         1 GROUP             0       ****    0 ROOT    
