@<TRIPOS>MOLECULE
3R8
117   119    1
SMALL
USER_CHARGES


@<TRIPOS>ATOM
      1 CA         20.2537  -23.8166  -48.5597 C.3       0 UNK        -0.2013 
      2 C          20.4453  -24.4536  -47.1914 C.2       0 UNK         0.4866 
      3 O          21.2590  -23.9745  -46.4006 O.2       0 UNK        -0.5176 
      4 N          19.7098  -25.5351  -46.9086 N.am      1 UNK        -0.4884 
      5 CA         19.7050  -26.2250  -45.6159 C.3       1 UNK         0.0853 
      6 C6         19.2165  -27.6914  -45.7587 C.3       10 UNK        -0.0849 
      7 S7         17.5190  -27.8741  -46.4044 S.3       10 UNK        -0.2776 
      8 C8         17.4300  -29.6756  -46.6569 C.3       10 UNK         0.0316 
      9 C9         17.4652  -30.4557  -45.3478 C.ar      10 UNK        -0.0863 
     10 C10        18.5539  -31.2809  -45.0448 C.ar      10 UNK        -0.1009 
     11 C11        18.5677  -32.0456  -43.8697 C.ar      10 UNK        -0.0712 
     12 C12        17.4673  -31.9830  -43.0109 C.ar      10 UNK        -0.0894 
     13 C13        16.3807  -31.1481  -43.2888 C.ar      10 UNK        -0.0745 
     14 C14        16.3862  -30.3871  -44.4611 C.ar      10 UNK        -0.0972 
     15 C15        15.1911  -31.0898  -42.3370 C.3       10 UNK         0.0209 
     16 S16        15.6785  -30.7189  -40.6183 S.3       10 UNK        -0.2568 
     17 C17        16.2529  -28.9925  -40.7514 C.3       10 UNK        -0.0983 
     18 CA         17.7860  -28.8743  -40.9864 C.3       3 UNK         0.0876 
     19 N          18.1505  -27.6303  -41.6637 N.am      3 UNK        -0.4424 
     20 C          17.9922  -26.3837  -41.1950 C.2       2 UNK         0.4918 
     21 O          17.5247  -26.1201  -40.0870 O.2       2 UNK        -0.4875 
     22 CA         18.4068  -25.2312  -42.1276 C.3       2 UNK         0.0481 
     23 CB         19.2073  -24.1476  -41.3834 C.3       2 UNK        -0.1831 
     24 N          19.1696  -25.7231  -43.2807 N.am      2 UNK        -0.4498 
     25 C          18.8935  -25.4417  -44.5596 C.2       1 UNK         0.5027 
     26 O          18.0237  -24.6402  -44.9141 O.2       1 UNK        -0.4969 
     27 C          18.6598  -29.1299  -39.7378 C.2       3 UNK         0.5005 
     28 O          18.1414  -29.4083  -38.6542 O.2       3 UNK        -0.5279 
     29 N          19.9836  -29.0375  -39.9201 N.am      4 UNK        -0.4463 
     30 CA         20.9886  -29.4297  -38.9353 C.3       4 UNK         0.0283 
     31 CB         21.6816  -28.1805  -38.3667 C.3       4 UNK        -0.1875 
     32 C          21.9835  -30.3390  -39.6567 C.2       4 UNK         0.4949 
     33 O          22.5758  -29.9016  -40.6435 O.2       4 UNK        -0.5039 
     34 N          22.1290  -31.5835  -39.1820 N.am      5 UNK        -0.4663 
     35 CA         22.9699  -32.6264  -39.7823 C.3       5 UNK         0.0242 
     36 CB         22.8931  -33.9002  -38.9254 C.3       5 UNK        -0.1982 
     37 C          24.4295  -32.1734  -39.9567 C.2       5 UNK         0.5017 
     38 O          25.0524  -31.7566  -38.9779 O.2       5 UNK        -0.5012 
     39 N          24.9164  -32.2135  -41.2051 N.am      6 UNK        -0.4439 
     40 CA         26.2114  -31.7322  -41.7119 C.3       6 UNK         0.0297 
     41 CB         27.3864  -32.4867  -41.0597 C.3       6 UNK        -0.2006 
     42 C          26.4259  -30.2056  -41.6313 C.2       6 UNK         0.4892 
     43 O          27.0196  -29.6409  -42.5502 O.2       6 UNK        -0.5089 
     44 N          25.9621  -29.5676  -40.5499 N.am      7 UNK        -0.4243 
     45 CA         26.1098  -28.1385  -40.2717 C.3       7 UNK         0.0196 
     46 CB         25.7186  -27.8662  -38.8106 C.3       7 UNK        -0.2007 
     47 C          25.3063  -27.2371  -41.2226 C.2       7 UNK         0.5020 
     48 O          25.8101  -26.1864  -41.6210 O.2       7 UNK        -0.5147 
     49 N          24.0823  -27.6511  -41.5693 N.am      8 UNK        -0.4734 
     50 CA         23.1791  -26.9293  -42.4631 C.3       8 UNK         0.0238 
     51 CB         22.4473  -25.8099  -41.7002 C.3       8 UNK        -0.1912 
     52 C          22.2292  -27.9414  -43.1112 C.2       8 UNK         0.5038 
     53 O          21.0131  -27.8779  -42.9056 O.2       8 UNK        -0.5046 
     54 N          22.8242  -28.8789  -43.8502 N.am      9 UNK        -0.4200 
     55 CA         22.1767  -29.9887  -44.5470 C.3       9 UNK         0.0839 
     56 C          23.0884  -30.3773  -45.7386 C.2       9 UNK         0.5513 
     57 N          22.5427  -30.4779  -46.9427 N.am      9 UNK        -0.7519 
     58 O          24.2870  -30.5951  -45.5725 O.2       9 UNK        -0.4960 
     59 C59        21.8880  -31.1600  -43.5677 C.3       10 UNK        -0.0876 
     60 S60        21.2994  -32.7029  -44.3505 S.3       10 UNK        -0.2414 
     61 C61        19.7115  -32.9924  -43.5009 C.3       10 UNK         0.0169 
     62 H62        19.9178  -22.7859  -48.4493 H         1 UNK         0.0903 
     63 H63        21.1960  -23.8116  -49.1069 H         1 UNK         0.0903 
     64 H64        19.5166  -24.3511  -49.1588 H         1 UNK         0.0903 
     65 H65        19.0232  -25.8652  -47.5727 H         1 UNK         0.3096 
     66 H66        20.7376  -26.2585  -45.2612 H         1 UNK         0.1121 
     67 H67        19.8928  -28.2284  -46.4251 H         1 UNK         0.0849 
     68 H68        19.2701  -28.2119  -44.8021 H         1 UNK         0.0849 
     69 H69        16.5027  -29.9094  -47.1819 H         1 UNK         0.0865 
     70 H70        18.2378  -29.9869  -47.3211 H         1 UNK         0.0865 
     71 H71        19.3775  -31.3408  -45.7410 H         1 UNK         0.1346 
     72 H72        17.4566  -32.5845  -42.1117 H         1 UNK         0.1412 
     73 H73        15.5445  -29.7493  -44.6957 H         1 UNK         0.1426 
     74 H74        14.6840  -32.0553  -42.3551 H         1 UNK         0.0716 
     75 H75        14.4582  -30.3521  -42.6675 H         1 UNK         0.0716 
     76 H76        15.9501  -28.4474  -39.8556 H         1 UNK         0.0695 
     77 H77        15.7110  -28.5240  -41.5745 H         1 UNK         0.0695 
     78 H78        18.0733  -29.6529  -41.6917 H         1 UNK         0.0983 
     79 H79        18.5592  -27.7423  -42.5796 H         1 UNK         0.3095 
     80 H80        17.4734  -24.7794  -42.4687 H         1 UNK         0.0454 
     81 H81        20.0621  -24.5632  -40.8526 H         1 UNK         0.0851 
     82 H82        18.5836  -23.6497  -40.6400 H         1 UNK         0.0851 
     83 H83        19.5706  -23.3789  -42.0654 H         1 UNK         0.0851 
     84 H84        19.8996  -26.4031  -43.0764 H         1 UNK         0.2976 
     85 H85        20.3452  -28.8147  -40.8412 H         1 UNK         0.3116 
     86 H86        20.5326  -29.9831  -38.1115 H         1 UNK         0.0646 
     87 H87        22.2261  -27.6302  -39.1337 H         1 UNK         0.0847 
     88 H88        22.3983  -28.4551  -37.5921 H         1 UNK         0.0847 
     89 H89        20.9603  -27.4995  -37.9150 H         1 UNK         0.0847 
     90 H90        21.6163  -31.8464  -38.3527 H         1 UNK         0.3040 
     91 H91        22.5491  -32.8525  -40.7644 H         1 UNK         0.1015 
     92 H92        21.8707  -34.2721  -38.8548 H         1 UNK         0.0786 
     93 H93        23.2594  -33.7273  -37.9124 H         1 UNK         0.0786 
     94 H94        23.4974  -34.6988  -39.3580 H         1 UNK         0.0786 
     95 H95        24.3017  -32.5671  -41.9244 H         1 UNK         0.3172 
     96 H96        26.2145  -31.9839  -42.7739 H         1 UNK         0.0595 
     97 H97        27.4680  -32.2748  -39.9932 H         1 UNK         0.0839 
     98 H98        28.3337  -32.1996  -41.5179 H         1 UNK         0.0839 
     99 H99        27.2823  -33.5649  -41.1806 H         1 UNK         0.0839 
    100 H100       25.5111  -30.1361  -39.8385 H         1 UNK         0.2998 
    101 H101       27.1649  -27.8842  -40.3939 H         1 UNK         0.0822 
    102 H102       26.3610  -28.4133  -38.1203 H         1 UNK         0.0787 
    103 H103       25.8124  -26.8062  -38.5701 H         1 UNK         0.0787 
    104 H104       24.6878  -28.1583  -38.6100 H         1 UNK         0.0787 
    105 H105       23.7266  -28.5368  -41.2095 H         1 UNK         0.3055 
    106 H106       23.7594  -26.4720  -43.2680 H         1 UNK         0.1106 
    107 H107       23.1473  -25.1319  -41.2122 H         1 UNK         0.0828 
    108 H108       21.8486  -25.2090  -42.3845 H         1 UNK         0.0828 
    109 H109       21.7819  -26.2105  -40.9359 H         1 UNK         0.0828 
    110 H110       23.8293  -28.8514  -43.9613 H         1 UNK         0.2931 
    111 H111       21.2247  -29.6377  -44.9457 H         1 UNK         0.0412 
    112 H112       21.5592  -30.3188  -47.0887 H         1 UNK         0.3472 
    113 H113       23.1277  -30.7362  -47.7222 H         1 UNK         0.3472 
    114 H114       22.7922  -31.4007  -43.0092 H         1 UNK         0.0970 
    115 H115       21.1601  -30.8341  -42.8233 H         1 UNK         0.0970 
    116 H116       19.8883  -32.9578  -42.4244 H         1 UNK         0.0612 
    117 H117       19.3916  -34.0103  -43.7266 H         1 UNK         0.0612 
@<TRIPOS>BOND
     1    1    2 1    
     2    1   62 1    
     3    1   63 1    
     4    1   64 1    
     5    2    3 2    
     6    2    4 am   BACKBONE|DICT|INTERRES
     7    4    5 1    
     8    4   65 1    
     9    5    6 1    
    10    5   25 1    
    11    5   66 1    
    12    6    7 1    
    13    6   67 1    
    14    6   68 1    
    15    7    8 1    
    16    8    9 1    
    17    8   69 1    
    18    8   70 1    
    19    9   10 ar   
    20    9   14 ar   
    21   10   11 ar   
    22   10   71 1    
    23   11   12 ar   
    24   11   61 1    
    25   12   13 ar   
    26   12   72 1    
    27   13   14 ar   
    28   13   15 1    
    29   14   73 1    
    30   15   16 1    
    31   15   74 1    
    32   15   75 1    
    33   16   17 1    
    34   17   18 1    
    35   17   76 1    
    36   17   77 1    
    37   18   19 1    
    38   18   27 1    
    39   18   78 1    
    40   19   20 am   BACKBONE|DICT|INTERRES
    41   19   79 1    
    42   20   21 2    
    43   20   22 1    
    44   22   23 1    
    45   22   24 1    
    46   22   80 1    
    47   23   81 1    
    48   23   82 1    
    49   23   83 1    
    50   24   25 am   BACKBONE|DICT|INTERRES
    51   24   84 1    
    52   25   26 2    
    53   27   28 2    
    54   27   29 am   BACKBONE|DICT|INTERRES
    55   29   30 1    
    56   29   85 1    
    57   30   31 1    
    58   30   32 1    
    59   30   86 1    
    60   31   87 1    
    61   31   88 1    
    62   31   89 1    
    63   32   33 2    
    64   32   34 am   BACKBONE|DICT|INTERRES
    65   34   35 1    
    66   34   90 1    
    67   35   36 1    
    68   35   37 1    
    69   35   91 1    
    70   36   92 1    
    71   36   93 1    
    72   36   94 1    
    73   37   38 2    
    74   37   39 am   BACKBONE|DICT|INTERRES
    75   39   40 1    
    76   39   95 1    
    77   40   41 1    
    78   40   42 1    
    79   40   96 1    
    80   41   97 1    
    81   41   98 1    
    82   41   99 1    
    83   42   43 2    
    84   42   44 am   BACKBONE|DICT|INTERRES
    85   44   45 1    
    86   44  100 1    
    87   45   46 1    
    88   45   47 1    
    89   45  101 1    
    90   46  102 1    
    91   46  103 1    
    92   46  104 1    
    93   47   48 2    
    94   47   49 am   BACKBONE|DICT|INTERRES
    95   49   50 1    
    96   49  105 1    
    97   50   51 1    
    98   50   52 1    
    99   50  106 1    
   100   51  107 1    
   101   51  108 1    
   102   51  109 1    
   103   52   53 2    
   104   52   54 am   BACKBONE|DICT|INTERRES
   105   54   55 1    
   106   54  110 1    
   107   55   56 1    
   108   55   59 1    
   109   55  111 1    
   110   56   57 am   BACKBONE|DICT|INTERRES
   111   56   58 2    
   112   57  112 1    
   113   57  113 1    
   114   59   60 1    
   115   59  114 1    
   116   59  115 1    
   117   60   61 1    
   118   61  116 1    
   119   61  117 1    
@<TRIPOS>SUBSTRUCTURE
     1 UNK         1 GROUP             0       ****    0 ROOT    
