@<TRIPOS>MOLECULE
3R8
117   119    1
SMALL
USER_CHARGES


@<TRIPOS>ATOM
      1 CA         13.1086  -26.9775  -39.4501 C.3       0 UNK        -0.2013 
      2 C          13.9239  -26.2102  -40.4805 C.2       0 UNK         0.4866 
      3 O          13.9341  -24.9786  -40.4591 O.2       0 UNK        -0.5176 
      4 N          14.5985  -26.9282  -41.3862 N.am      1 UNK        -0.4884 
      5 CA         15.4996  -26.3702  -42.3996 C.3       1 UNK         0.0853 
      6 C6         15.5255  -27.2653  -43.6688 C.3       10 UNK        -0.0849 
      7 S7         16.3234  -28.8965  -43.4335 S.3       10 UNK        -0.2776 
      8 C8         17.1397  -29.1365  -45.0435 C.3       10 UNK         0.0316 
      9 C9         18.4556  -29.8803  -44.8892 C.ar      10 UNK        -0.0863 
     10 C10        18.5147  -31.2689  -45.0446 C.ar      10 UNK        -0.1009 
     11 C11        19.7361  -31.9431  -44.9393 C.ar      10 UNK        -0.0712 
     12 C12        20.9003  -31.2126  -44.6787 C.ar      10 UNK        -0.0894 
     13 C13        20.8479  -29.8293  -44.4941 C.ar      10 UNK        -0.0745 
     14 C14        19.6237  -29.1675  -44.6073 C.ar      10 UNK        -0.0972 
     15 C15        22.1073  -29.0686  -44.1189 C.3       10 UNK         0.0209 
     16 S16        22.9388  -28.3270  -45.5520 S.3       10 UNK        -0.2568 
     17 C17        22.0702  -26.7287  -45.7390 C.3       10 UNK        -0.0983 
     18 CA         22.2917  -25.6367  -44.6415 C.3       3 UNK         0.0876 
     19 N          21.3077  -25.6850  -43.5635 N.am      3 UNK        -0.4424 
     20 C          20.0177  -25.3565  -43.6519 C.2       2 UNK         0.4918 
     21 O          19.4537  -25.0341  -44.7005 O.2       2 UNK        -0.4875 
     22 CA         19.2257  -25.3775  -42.3404 C.3       2 UNK         0.0481 
     23 CB         19.4158  -24.0648  -41.5586 C.3       2 UNK        -0.1831 
     24 N          17.8140  -25.5837  -42.6508 N.am      2 UNK        -0.4498 
     25 C          16.9054  -26.0938  -41.8120 C.2       1 UNK         0.5027 
     26 O          17.1511  -26.3574  -40.6315 O.2       1 UNK        -0.4969 
     27 C          23.6843  -25.6262  -43.9774 C.2       3 UNK         0.5005 
     28 O          23.7812  -25.8110  -42.7600 O.2       3 UNK        -0.5279 
     29 N          24.7360  -25.4011  -44.7738 N.am      4 UNK        -0.4463 
     30 CA         26.1213  -25.3384  -44.2957 C.3       4 UNK         0.0283 
     31 CB         26.9439  -24.4764  -45.2682 C.3       4 UNK        -0.1875 
     32 C          26.7859  -26.7174  -44.1216 C.2       4 UNK         0.4949 
     33 O          27.7964  -26.8053  -43.4236 O.2       4 UNK        -0.5039 
     34 N          26.2550  -27.7549  -44.7838 N.am      5 UNK        -0.4663 
     35 CA         26.8918  -29.0724  -44.8846 C.3       5 UNK         0.0242 
     36 CB         26.3768  -29.7889  -46.1441 C.3       5 UNK        -0.1982 
     37 C          26.7039  -29.9702  -43.6505 C.2       5 UNK         0.5017 
     38 O          27.5268  -30.8626  -43.4407 O.2       5 UNK        -0.5012 
     39 N          25.6369  -29.7521  -42.8729 N.am      6 UNK        -0.4439 
     40 CA         25.2598  -30.5646  -41.7162 C.3       6 UNK         0.0297 
     41 CB         24.6751  -31.9168  -42.1801 C.3       6 UNK        -0.2006 
     42 C          24.2391  -29.8017  -40.8669 C.2       6 UNK         0.4892 
     43 O          23.6601  -28.8195  -41.3357 O.2       6 UNK        -0.5089 
     44 N          23.9906  -30.2975  -39.6488 N.am      7 UNK        -0.4243 
     45 CA         22.9829  -29.7836  -38.7162 C.3       7 UNK         0.0196 
     46 CB         23.3548  -30.2261  -37.2884 C.3       7 UNK        -0.2007 
     47 C          21.5588  -30.2187  -39.1185 C.2       7 UNK         0.5020 
     48 O          20.9063  -30.9595  -38.3810 O.2       7 UNK        -0.5147 
     49 N          21.1218  -29.7821  -40.3088 N.am      8 UNK        -0.4734 
     50 CA         19.7999  -30.0044  -40.9194 C.3       8 UNK         0.0238 
     51 CB         18.7191  -29.2471  -40.1219 C.3       8 UNK        -0.1912 
     52 C          19.4290  -31.4893  -41.1293 C.2       8 UNK         0.5038 
     53 O          18.2420  -31.8167  -41.1770 O.2       8 UNK        -0.5046 
     54 N          20.4454  -32.3617  -41.2099 N.am      9 UNK        -0.4200 
     55 CA         20.3278  -33.8303  -41.1840 C.3       9 UNK         0.0839 
     56 C          19.7141  -34.3984  -39.8638 C.2       9 UNK         0.5513 
     57 N          19.7407  -33.6709  -38.7522 N.am      9 UNK        -0.7519 
     58 O          19.2390  -35.5309  -39.8286 O.2       9 UNK        -0.4960 
     59 C59        19.6783  -34.4140  -42.4750 C.3       10 UNK        -0.0876 
     60 S60        20.8048  -34.3232  -43.9071 S.3       10 UNK        -0.2414 
     61 C61        19.7992  -33.4509  -45.1544 C.3       10 UNK         0.0169 
     62 H62        13.4644  -26.7493  -38.4458 H         1 UNK         0.0903 
     63 H63        12.0588  -26.6921  -39.5134 H         1 UNK         0.0903 
     64 H64        13.1762  -28.0554  -39.5968 H         1 UNK         0.0903 
     65 H65        14.5877  -27.9373  -41.3347 H         1 UNK         0.3096 
     66 H66        15.1038  -25.3975  -42.7018 H         1 UNK         0.1121 
     67 H67        14.5058  -27.4366  -44.0178 H         1 UNK         0.0849 
     68 H68        16.0133  -26.7259  -44.4815 H         1 UNK         0.0849 
     69 H69        16.4670  -29.6805  -45.7084 H         1 UNK         0.0865 
     70 H70        17.3338  -28.1794  -45.5290 H         1 UNK         0.0865 
     71 H71        17.6105  -31.8219  -45.2593 H         1 UNK         0.1346 
     72 H72        21.8489  -31.7262  -44.6041 H         1 UNK         0.1412 
     73 H73        19.5747  -28.0980  -44.4663 H         1 UNK         0.1426 
     74 H74        22.8106  -29.7545  -43.6495 H         1 UNK         0.0716 
     75 H75        21.8852  -28.3109  -43.3686 H         1 UNK         0.0716 
     76 H76        22.4129  -26.3216  -46.6913 H         1 UNK         0.0695 
     77 H77        21.0094  -26.9218  -45.8970 H         1 UNK         0.0695 
     78 H78        22.1765  -24.6590  -45.1152 H         1 UNK         0.0983 
     79 H79        21.7298  -25.8871  -42.6635 H         1 UNK         0.3095 
     80 H80        19.5850  -26.2162  -41.7396 H         1 UNK         0.0454 
     81 H81        20.4684  -23.8901  -41.3325 H         1 UNK         0.0851 
     82 H82        19.0556  -23.2048  -42.1244 H         1 UNK         0.0851 
     83 H83        18.8830  -24.0863  -40.6080 H         1 UNK         0.0851 
     84 H84        17.5757  -25.4020  -43.6182 H         1 UNK         0.2976 
     85 H85        24.5863  -25.2629  -45.7637 H         1 UNK         0.3116 
     86 H86        26.1368  -24.8461  -43.3206 H         1 UNK         0.0646 
     87 H87        27.9750  -24.3769  -44.9257 H         1 UNK         0.0847 
     88 H88        26.5353  -23.4692  -45.3505 H         1 UNK         0.0847 
     89 H89        26.9750  -24.9107  -46.2682 H         1 UNK         0.0847 
     90 H90        25.4025  -27.6151  -45.3088 H         1 UNK         0.3040 
     91 H91        27.9673  -28.9220  -45.0070 H         1 UNK         0.1015 
     92 H92        25.3135  -30.0191  -46.0746 H         1 UNK         0.0786 
     93 H93        26.9010  -30.7337  -46.2950 H         1 UNK         0.0786 
     94 H94        26.5345  -29.1868  -47.0391 H         1 UNK         0.0786 
     95 H95        25.0328  -28.9586  -43.0523 H         1 UNK         0.3172 
     96 H96        26.1464  -30.7380  -41.1027 H         1 UNK         0.0595 
     97 H97        24.3843  -32.5381  -41.3323 H         1 UNK         0.0839 
     98 H98        23.7909  -31.7845  -42.8040 H         1 UNK         0.0839 
     99 H99        25.4011  -32.4917  -42.7548 H         1 UNK         0.0839 
    100 H100       24.4917  -31.1229  -39.3519 H         1 UNK         0.2998 
    101 H101       23.0054  -28.6916  -38.7406 H         1 UNK         0.0822 
    102 H102       22.6397  -29.8388  -36.5612 H         1 UNK         0.0787 
    103 H103       23.3638  -31.3124  -37.1899 H         1 UNK         0.0787 
    104 H104       24.3387  -29.8545  -37.0013 H         1 UNK         0.0787 
    105 H105       21.7798  -29.2281  -40.8510 H         1 UNK         0.3055 
    106 H106       19.8377  -29.5602  -41.9119 H         1 UNK         0.1106 
    107 H107       18.5480  -29.6973  -39.1436 H         1 UNK         0.0828 
    108 H108       18.9982  -28.2053  -39.9671 H         1 UNK         0.0828 
    109 H109       17.7661  -29.2484  -40.6525 H         1 UNK         0.0828 
    110 H110       21.3825  -31.9964  -41.1447 H         1 UNK         0.2931 
    111 H111       21.3563  -34.1922  -41.1536 H         1 UNK         0.0412 
    112 H112       19.3530  -34.0561  -37.9058 H         1 UNK         0.3472 
    113 H113       20.1373  -32.7360  -38.7419 H         1 UNK         0.3472 
    114 H114       18.7333  -33.9172  -42.6977 H         1 UNK         0.0970 
    115 H115       19.4345  -35.4703  -42.3522 H         1 UNK         0.0970 
    116 H116       18.7996  -33.8877  -45.1754 H         1 UNK         0.0612 
    117 H117       20.2355  -33.6356  -46.1368 H         1 UNK         0.0612 
@<TRIPOS>BOND
     1    1    2 1    
     2    1   62 1    
     3    1   63 1    
     4    1   64 1    
     5    2    3 2    
     6    2    4 am   BACKBONE|DICT|INTERRES
     7    4    5 1    
     8    4   65 1    
     9    5    6 1    
    10    5   25 1    
    11    5   66 1    
    12    6    7 1    
    13    6   67 1    
    14    6   68 1    
    15    7    8 1    
    16    8    9 1    
    17    8   69 1    
    18    8   70 1    
    19    9   10 ar   
    20    9   14 ar   
    21   10   11 ar   
    22   10   71 1    
    23   11   12 ar   
    24   11   61 1    
    25   12   13 ar   
    26   12   72 1    
    27   13   14 ar   
    28   13   15 1    
    29   14   73 1    
    30   15   16 1    
    31   15   74 1    
    32   15   75 1    
    33   16   17 1    
    34   17   18 1    
    35   17   76 1    
    36   17   77 1    
    37   18   19 1    
    38   18   27 1    
    39   18   78 1    
    40   19   20 am   BACKBONE|DICT|INTERRES
    41   19   79 1    
    42   20   21 2    
    43   20   22 1    
    44   22   23 1    
    45   22   24 1    
    46   22   80 1    
    47   23   81 1    
    48   23   82 1    
    49   23   83 1    
    50   24   25 am   BACKBONE|DICT|INTERRES
    51   24   84 1    
    52   25   26 2    
    53   27   28 2    
    54   27   29 am   BACKBONE|DICT|INTERRES
    55   29   30 1    
    56   29   85 1    
    57   30   31 1    
    58   30   32 1    
    59   30   86 1    
    60   31   87 1    
    61   31   88 1    
    62   31   89 1    
    63   32   33 2    
    64   32   34 am   BACKBONE|DICT|INTERRES
    65   34   35 1    
    66   34   90 1    
    67   35   36 1    
    68   35   37 1    
    69   35   91 1    
    70   36   92 1    
    71   36   93 1    
    72   36   94 1    
    73   37   38 2    
    74   37   39 am   BACKBONE|DICT|INTERRES
    75   39   40 1    
    76   39   95 1    
    77   40   41 1    
    78   40   42 1    
    79   40   96 1    
    80   41   97 1    
    81   41   98 1    
    82   41   99 1    
    83   42   43 2    
    84   42   44 am   BACKBONE|DICT|INTERRES
    85   44   45 1    
    86   44  100 1    
    87   45   46 1    
    88   45   47 1    
    89   45  101 1    
    90   46  102 1    
    91   46  103 1    
    92   46  104 1    
    93   47   48 2    
    94   47   49 am   BACKBONE|DICT|INTERRES
    95   49   50 1    
    96   49  105 1    
    97   50   51 1    
    98   50   52 1    
    99   50  106 1    
   100   51  107 1    
   101   51  108 1    
   102   51  109 1    
   103   52   53 2    
   104   52   54 am   BACKBONE|DICT|INTERRES
   105   54   55 1    
   106   54  110 1    
   107   55   56 1    
   108   55   59 1    
   109   55  111 1    
   110   56   57 am   BACKBONE|DICT|INTERRES
   111   56   58 2    
   112   57  112 1    
   113   57  113 1    
   114   59   60 1    
   115   59  114 1    
   116   59  115 1    
   117   60   61 1    
   118   61  116 1    
   119   61  117 1    
@<TRIPOS>SUBSTRUCTURE
     1 UNK         1 GROUP             0       ****    0 ROOT    
