@<TRIPOS>MOLECULE
3R8
117   119    1
SMALL
USER_CHARGES


@<TRIPOS>ATOM
      1 CA         19.4062  -24.6840  -39.3304 C.3       0 UNK        -0.2013 
      2 C          18.9797  -24.5559  -40.7855 C.2       0 UNK         0.4866 
      3 O          18.6734  -23.4501  -41.2332 O.2       0 UNK        -0.5176 
      4 N          18.9336  -25.6749  -41.5202 N.am      1 UNK        -0.4884 
      5 CA         18.5077  -25.7260  -42.9232 C.3       1 UNK         0.0853 
      6 C6         18.2111  -27.1686  -43.3878 C.3       10 UNK        -0.0849 
      7 S7         16.8549  -27.9720  -42.4589 S.3       10 UNK        -0.2776 
      8 C8         16.1672  -29.1297  -43.6960 C.3       10 UNK         0.0316 
      9 C9         17.2238  -30.1109  -44.1824 C.ar      10 UNK        -0.0863 
     10 C10        17.4547  -31.3126  -43.5069 C.ar      10 UNK        -0.1009 
     11 C11        18.5076  -32.1514  -43.8922 C.ar      10 UNK        -0.0712 
     12 C12        19.3411  -31.7713  -44.9514 C.ar      10 UNK        -0.0894 
     13 C13        19.1020  -30.5796  -45.6420 C.ar      10 UNK        -0.0745 
     14 C14        18.0166  -29.7819  -45.2824 C.ar      10 UNK        -0.0972 
     15 C15        20.0411  -30.0889  -46.7291 C.3       10 UNK         0.0209 
     16 S16        21.0389  -28.7126  -46.0792 S.3       10 UNK        -0.2568 
     17 C17        21.5375  -27.8494  -47.6052 C.3       10 UNK        -0.0983 
     18 CA         21.9764  -26.3836  -47.3524 C.3       3 UNK         0.0876 
     19 N          20.8964  -25.5914  -46.7460 N.am      3 UNK        -0.4424 
     20 C          20.8498  -24.2532  -46.7130 C.2       2 UNK         0.4918 
     21 O          21.6757  -23.5345  -47.2761 O.2       2 UNK        -0.4875 
     22 CA         19.7167  -23.5884  -45.9072 C.3       2 UNK         0.0481 
     23 CB         18.6895  -22.9582  -46.8621 C.3       2 UNK        -0.1831 
     24 N          19.0064  -24.4442  -44.9463 N.am      2 UNK        -0.4498 
     25 C          19.5291  -25.0505  -43.8686 C.2       1 UNK         0.5027 
     26 O          20.7403  -25.1157  -43.6337 O.2       1 UNK        -0.4969 
     27 C          23.3065  -26.3186  -46.5603 C.2       3 UNK         0.5005 
     28 O          24.3233  -26.7963  -47.0658 O.2       3 UNK        -0.5279 
     29 N          23.2727  -25.7529  -45.3415 N.am      4 UNK        -0.4463 
     30 CA         24.3710  -25.6112  -44.3779 C.3       4 UNK         0.0283 
     31 CB         25.6028  -24.9046  -44.9839 C.3       4 UNK        -0.1875 
     32 C          24.7251  -26.9194  -43.6470 C.2       4 UNK         0.4949 
     33 O          25.7630  -26.9810  -42.9874 O.2       4 UNK        -0.5039 
     34 N          23.8310  -27.9182  -43.7072 N.am      5 UNK        -0.4663 
     35 CA         23.8753  -29.1189  -42.8635 C.3       5 UNK         0.0242 
     36 CB         23.0235  -30.2280  -43.5038 C.3       5 UNK        -0.1982 
     37 C          23.3908  -28.8471  -41.4268 C.2       5 UNK         0.5017 
     38 O          23.5825  -29.7007  -40.5600 O.2       5 UNK        -0.5012 
     39 N          22.7578  -27.6828  -41.2052 N.am      6 UNK        -0.4439 
     40 CA         22.1194  -27.2327  -39.9680 C.3       6 UNK         0.0297 
     41 CB         23.1613  -26.9879  -38.8526 C.3       6 UNK        -0.2006 
     42 C          20.9853  -28.1946  -39.5805 C.2       6 UNK         0.4892 
     43 O          19.9155  -28.1201  -40.1855 O.2       6 UNK        -0.5089 
     44 N          21.2532  -29.0826  -38.6186 N.am      7 UNK        -0.4243 
     45 CA         20.3917  -30.1979  -38.2332 C.3       7 UNK         0.0196 
     46 CB         19.6275  -29.8300  -36.9478 C.3       7 UNK        -0.2007 
     47 C          21.2025  -31.4980  -38.0765 C.2       7 UNK         0.5020 
     48 O          20.6972  -32.4530  -37.4855 O.2       7 UNK        -0.5147 
     49 N          22.4365  -31.5466  -38.6049 N.am      8 UNK        -0.4734 
     50 CA         23.3444  -32.6988  -38.5247 C.3       8 UNK         0.0238 
     51 CB         24.7995  -32.1938  -38.5493 C.3       8 UNK        -0.1912 
     52 C          23.0556  -33.7320  -39.6322 C.2       8 UNK         0.5038 
     53 O          23.9706  -34.1646  -40.3360 O.2       8 UNK        -0.5046 
     54 N          21.7757  -34.0824  -39.7811 N.am      9 UNK        -0.4200 
     55 CA         21.2469  -35.0235  -40.7735 C.3       9 UNK         0.0839 
     56 C          21.6275  -36.4934  -40.4537 C.2       9 UNK         0.5513 
     57 N          21.8128  -37.3198  -41.4738 N.am      9 UNK        -0.7519 
     58 O          21.7142  -36.9002  -39.2965 O.2       9 UNK        -0.4960 
     59 C59        19.7125  -34.8630  -40.9170 C.3       10 UNK        -0.0876 
     60 S60        19.2538  -33.1711  -41.4293 S.3       10 UNK        -0.2414 
     61 C61        18.7528  -33.4585  -43.1535 C.3       10 UNK         0.0169 
     62 H62        19.3400  -25.7123  -38.9775 H         1 UNK         0.0903 
     63 H63        20.4315  -24.3373  -39.2049 H         1 UNK         0.0903 
     64 H64        18.7626  -24.0753  -38.6959 H         1 UNK         0.0903 
     65 H65        19.1933  -26.5676  -41.1063 H         1 UNK         0.3096 
     66 H66        17.5765  -25.1582  -42.9897 H         1 UNK         0.1121 
     67 H67        17.9282  -27.1468  -44.4398 H         1 UNK         0.0849 
     68 H68        19.1043  -27.7935  -43.3140 H         1 UNK         0.0849 
     69 H69        15.3312  -29.6717  -43.2514 H         1 UNK         0.0865 
     70 H70        15.7536  -28.5664  -44.5341 H         1 UNK         0.0865 
     71 H71        16.8385  -31.5812  -42.6596 H         1 UNK         0.1346 
     72 H72        20.1820  -32.3924  -45.2280 H         1 UNK         0.1412 
     73 H73        17.8401  -28.8625  -45.8220 H         1 UNK         0.1426 
     74 H74        19.4573  -29.7613  -47.5906 H         1 UNK         0.0716 
     75 H75        20.6994  -30.8869  -47.0758 H         1 UNK         0.0716 
     76 H76        20.6997  -27.8561  -48.3040 H         1 UNK         0.0695 
     77 H77        22.3330  -28.4194  -48.0891 H         1 UNK         0.0695 
     78 H78        22.1928  -25.9407  -48.3272 H         1 UNK         0.0983 
     79 H79        20.1830  -26.1148  -46.2609 H         1 UNK         0.3095 
     80 H80        20.1771  -22.7827  -45.3318 H         1 UNK         0.0454 
     81 H81        19.1727  -22.2814  -47.5685 H         1 UNK         0.0851 
     82 H82        17.9463  -22.3736  -46.3196 H         1 UNK         0.0851 
     83 H83        18.1636  -23.7148  -47.4458 H         1 UNK         0.0851 
     84 H84        18.0040  -24.4815  -45.0668 H         1 UNK         0.2976 
     85 H85        22.3728  -25.4232  -45.0072 H         1 UNK         0.3116 
     86 H86        23.9792  -24.9493  -43.6040 H         1 UNK         0.0646 
     87 H87        26.1370  -25.5444  -45.6864 H         1 UNK         0.0847 
     88 H88        25.3211  -23.9903  -45.5060 H         1 UNK         0.0847 
     89 H89        26.3127  -24.6251  -44.2046 H         1 UNK         0.0847 
     90 H90        23.0203  -27.8061  -44.3006 H         1 UNK         0.3040 
     91 H91        24.9080  -29.4696  -42.8014 H         1 UNK         0.1015 
     92 H92        23.1155  -31.1605  -42.9448 H         1 UNK         0.0786 
     93 H93        23.3364  -30.4324  -44.5278 H         1 UNK         0.0786 
     94 H94        21.9643  -29.9671  -43.5196 H         1 UNK         0.0786 
     95 H95        22.6224  -27.0806  -42.0044 H         1 UNK         0.3172 
     96 H96        21.6551  -26.2738  -40.1972 H         1 UNK         0.0595 
     97 H97        23.7437  -27.8776  -38.6124 H         1 UNK         0.0839 
     98 H98        22.6794  -26.6490  -37.9344 H         1 UNK         0.0839 
     99 H99        23.8664  -26.2104  -39.1470 H         1 UNK         0.0839 
    100 H100       22.1687  -29.0613  -38.1912 H         1 UNK         0.2998 
    101 H101       19.6644  -30.3928  -39.0248 H         1 UNK         0.0822 
    102 H102       18.9366  -30.6230  -36.6588 H         1 UNK         0.0787 
    103 H103       20.3064  -29.6642  -36.1106 H         1 UNK         0.0787 
    104 H104       19.0367  -28.9241  -37.0857 H         1 UNK         0.0787 
    105 H105       22.7558  -30.7806  -39.1941 H         1 UNK         0.3055 
    106 H106       23.1905  -33.2087  -37.5708 H         1 UNK         0.1106 
    107 H107       25.0440  -31.7126  -39.4970 H         1 UNK         0.0828 
    108 H108       24.9848  -31.4752  -37.7509 H         1 UNK         0.0828 
    109 H109       25.5017  -33.0170  -38.4117 H         1 UNK         0.0828 
    110 H110       21.1038  -33.6883  -39.1342 H         1 UNK         0.2931 
    111 H111       21.7008  -34.7664  -41.7332 H         1 UNK         0.0412 
    112 H112       21.7372  -36.9983  -42.4267 H         1 UNK         0.3472 
    113 H113       22.0457  -38.2833  -41.2883 H         1 UNK         0.3472 
    114 H114       19.3147  -35.5807  -41.6372 H         1 UNK         0.0970 
    115 H115       19.2146  -35.0819  -39.9704 H         1 UNK         0.0970 
    116 H116       19.5247  -34.0434  -43.6564 H         1 UNK         0.0612 
    117 H117       17.8427  -34.0599  -43.1699 H         1 UNK         0.0612 
@<TRIPOS>BOND
     1    1    2 1    
     2    1   62 1    
     3    1   63 1    
     4    1   64 1    
     5    2    3 2    
     6    2    4 am   BACKBONE|DICT|INTERRES
     7    4    5 1    
     8    4   65 1    
     9    5    6 1    
    10    5   25 1    
    11    5   66 1    
    12    6    7 1    
    13    6   67 1    
    14    6   68 1    
    15    7    8 1    
    16    8    9 1    
    17    8   69 1    
    18    8   70 1    
    19    9   10 ar   
    20    9   14 ar   
    21   10   11 ar   
    22   10   71 1    
    23   11   12 ar   
    24   11   61 1    
    25   12   13 ar   
    26   12   72 1    
    27   13   14 ar   
    28   13   15 1    
    29   14   73 1    
    30   15   16 1    
    31   15   74 1    
    32   15   75 1    
    33   16   17 1    
    34   17   18 1    
    35   17   76 1    
    36   17   77 1    
    37   18   19 1    
    38   18   27 1    
    39   18   78 1    
    40   19   20 am   BACKBONE|DICT|INTERRES
    41   19   79 1    
    42   20   21 2    
    43   20   22 1    
    44   22   23 1    
    45   22   24 1    
    46   22   80 1    
    47   23   81 1    
    48   23   82 1    
    49   23   83 1    
    50   24   25 am   BACKBONE|DICT|INTERRES
    51   24   84 1    
    52   25   26 2    
    53   27   28 2    
    54   27   29 am   BACKBONE|DICT|INTERRES
    55   29   30 1    
    56   29   85 1    
    57   30   31 1    
    58   30   32 1    
    59   30   86 1    
    60   31   87 1    
    61   31   88 1    
    62   31   89 1    
    63   32   33 2    
    64   32   34 am   BACKBONE|DICT|INTERRES
    65   34   35 1    
    66   34   90 1    
    67   35   36 1    
    68   35   37 1    
    69   35   91 1    
    70   36   92 1    
    71   36   93 1    
    72   36   94 1    
    73   37   38 2    
    74   37   39 am   BACKBONE|DICT|INTERRES
    75   39   40 1    
    76   39   95 1    
    77   40   41 1    
    78   40   42 1    
    79   40   96 1    
    80   41   97 1    
    81   41   98 1    
    82   41   99 1    
    83   42   43 2    
    84   42   44 am   BACKBONE|DICT|INTERRES
    85   44   45 1    
    86   44  100 1    
    87   45   46 1    
    88   45   47 1    
    89   45  101 1    
    90   46  102 1    
    91   46  103 1    
    92   46  104 1    
    93   47   48 2    
    94   47   49 am   BACKBONE|DICT|INTERRES
    95   49   50 1    
    96   49  105 1    
    97   50   51 1    
    98   50   52 1    
    99   50  106 1    
   100   51  107 1    
   101   51  108 1    
   102   51  109 1    
   103   52   53 2    
   104   52   54 am   BACKBONE|DICT|INTERRES
   105   54   55 1    
   106   54  110 1    
   107   55   56 1    
   108   55   59 1    
   109   55  111 1    
   110   56   57 am   BACKBONE|DICT|INTERRES
   111   56   58 2    
   112   57  112 1    
   113   57  113 1    
   114   59   60 1    
   115   59  114 1    
   116   59  115 1    
   117   60   61 1    
   118   61  116 1    
   119   61  117 1    
@<TRIPOS>SUBSTRUCTURE
     1 UNK         1 GROUP             0       ****    0 ROOT    
