@<TRIPOS>MOLECULE
3R8
117   119    1
SMALL
USER_CHARGES


@<TRIPOS>ATOM
      1 CA         20.5351  -21.2655  -46.4791 C.3       0 UNK        -0.2013 
      2 C          20.9629  -22.5565  -45.7966 C.2       0 UNK         0.4866 
      3 O          22.1593  -22.8316  -45.7051 O.2       0 UNK        -0.5176 
      4 N          19.9961  -23.3462  -45.3155 N.am      1 UNK        -0.4884 
      5 CA         20.2222  -24.5987  -44.5873 C.3       1 UNK         0.0853 
      6 C6         20.6643  -25.7743  -45.5074 C.3       10 UNK        -0.0849 
      7 S7         21.7427  -26.9590  -44.6382 S.3       10 UNK        -0.2776 
      8 C8         21.9183  -28.2853  -45.8747 C.3       10 UNK         0.0316 
      9 C9         20.9130  -29.4042  -45.6438 C.ar      10 UNK        -0.0863 
     10 C10        21.1495  -30.3461  -44.6381 C.ar      10 UNK        -0.1009 
     11 C11        20.2360  -31.3755  -44.3977 C.ar      10 UNK        -0.0712 
     12 C12        19.0851  -31.4712  -45.1824 C.ar      10 UNK        -0.0894 
     13 C13        18.8277  -30.5268  -46.1813 C.ar      10 UNK        -0.0745 
     14 C14        19.7522  -29.5023  -46.4193 C.ar      10 UNK        -0.0972 
     15 C15        17.5134  -30.5774  -46.9467 C.3       10 UNK         0.0209 
     16 S16        16.3376  -29.3108  -46.3582 S.3       10 UNK        -0.2568 
     17 C17        16.1927  -29.6853  -44.5715 C.3       10 UNK        -0.0983 
     18 CA         17.2158  -28.8818  -43.7206 C.3       3 UNK         0.0876 
     19 N          17.1435  -27.4365  -43.9313 N.am      3 UNK        -0.4424 
     20 C          16.2090  -26.5800  -43.5018 C.2       2 UNK         0.4918 
     21 O          15.1984  -26.9154  -42.8834 O.2       2 UNK        -0.4875 
     22 CA         16.4474  -25.0872  -43.8243 C.3       2 UNK         0.0481 
     23 CB         16.1358  -24.1855  -42.6113 C.3       2 UNK        -0.1831 
     24 N          17.7831  -24.7849  -44.3738 N.am      2 UNK        -0.4498 
     25 C          18.9722  -24.9552  -43.7659 C.2       1 UNK         0.5027 
     26 O          19.0966  -25.3949  -42.6232 O.2       1 UNK        -0.4969 
     27 C          17.2523  -29.2672  -42.2267 C.2       3 UNK         0.5005 
     28 O          16.6188  -30.2430  -41.8187 O.2       3 UNK        -0.5279 
     29 N          18.0112  -28.4883  -41.4434 N.am      4 UNK        -0.4463 
     30 CA         18.2708  -28.7003  -40.0211 C.3       4 UNK         0.0283 
     31 CB         17.0492  -28.2673  -39.1828 C.3       4 UNK        -0.1875 
     32 C          19.5620  -27.9646  -39.6270 C.2       4 UNK         0.4949 
     33 O          19.5807  -27.2568  -38.6183 O.2       4 UNK        -0.5039 
     34 N          20.6116  -28.1064  -40.4457 N.am      5 UNK        -0.4663 
     35 CA         21.8987  -27.4323  -40.2820 C.3       5 UNK         0.0242 
     36 CB         21.7939  -25.9674  -40.7572 C.3       5 UNK        -0.1982 
     37 C          22.9936  -28.1997  -41.0369 C.2       5 UNK         0.5017 
     38 O          22.7155  -29.2420  -41.6360 O.2       5 UNK        -0.5012 
     39 N          24.2212  -27.6606  -40.9776 N.am      6 UNK        -0.4439 
     40 CA         25.4704  -28.2036  -41.5279 C.3       6 UNK         0.0297 
     41 CB         25.3628  -28.3934  -43.0590 C.3       6 UNK        -0.2006 
     42 C          25.9221  -29.4888  -40.8070 C.2       6 UNK         0.4892 
     43 O          25.2796  -29.9341  -39.8543 O.2       6 UNK        -0.5089 
     44 N          27.0292  -30.0808  -41.2732 N.am      7 UNK        -0.4243 
     45 CA         27.5608  -31.3490  -40.7568 C.3       7 UNK         0.0196 
     46 CB         28.9519  -31.5954  -41.3639 C.3       7 UNK        -0.2007 
     47 C          26.6379  -32.5570  -41.0160 C.2       7 UNK         0.5020 
     48 O          26.7743  -33.5778  -40.3415 O.2       7 UNK        -0.5147 
     49 N          25.7305  -32.4251  -41.9926 N.am      8 UNK        -0.4734 
     50 CA         24.7786  -33.4543  -42.3994 C.3       8 UNK         0.0238 
     51 CB         24.2347  -33.1083  -43.7948 C.3       8 UNK        -0.1912 
     52 C          23.6340  -33.6829  -41.3955 C.2       8 UNK         0.5038 
     53 O          23.2136  -34.8318  -41.2492 O.2       8 UNK        -0.5046 
     54 N          23.1387  -32.6239  -40.7359 N.am      9 UNK        -0.4200 
     55 CA         21.9961  -32.7116  -39.8064 C.3       9 UNK         0.0839 
     56 C          21.9236  -31.6031  -38.7171 C.2       9 UNK         0.5513 
     57 N          22.9104  -30.7331  -38.5550 N.am      9 UNK        -0.7519 
     58 O          20.9565  -31.5511  -37.9612 O.2       9 UNK        -0.4960 
     59 C59        20.6376  -32.9539  -40.5292 C.3       10 UNK        -0.0876 
     60 S60        20.1467  -31.6058  -41.6557 S.3       10 UNK        -0.2414 
     61 C61        20.4799  -32.3650  -43.2716 C.3       10 UNK         0.0169 
     62 H62        20.8954  -21.2483  -47.5074 H         1 UNK         0.0903 
     63 H63        19.4514  -21.1517  -46.4984 H         1 UNK         0.0903 
     64 H64        20.9568  -20.4074  -45.9563 H         1 UNK         0.0903 
     65 H65        19.0370  -23.0303  -45.3585 H         1 UNK         0.3096 
     66 H66        21.0172  -24.3985  -43.8644 H         1 UNK         0.1121 
     67 H67        19.8115  -26.2974  -45.9444 H         1 UNK         0.0849 
     68 H68        21.2397  -25.3964  -46.3537 H         1 UNK         0.0849 
     69 H69        22.9283  -28.6922  -45.8051 H         1 UNK         0.0865 
     70 H70        21.8269  -27.8784  -46.8829 H         1 UNK         0.0865 
     71 H71        22.0339  -30.2614  -44.0208 H         1 UNK         0.1346 
     72 H72        18.3670  -32.2556  -44.9854 H         1 UNK         0.1412 
     73 H73        19.5501  -28.7664  -47.1858 H         1 UNK         0.1426 
     74 H74        17.0517  -31.5624  -46.8610 H         1 UNK         0.0716 
     75 H75        17.7039  -30.4197  -48.0092 H         1 UNK         0.0716 
     76 H76        16.3201  -30.7591  -44.4258 H         1 UNK         0.0695 
     77 H77        15.1749  -29.4544  -44.2533 H         1 UNK         0.0695 
     78 H78        18.2133  -29.1459  -44.0609 H         1 UNK         0.0983 
     79 H79        17.9187  -27.0430  -44.4411 H         1 UNK         0.3095 
     80 H80        15.7361  -24.8352  -44.6120 H         1 UNK         0.0454 
     81 H81        16.2896  -23.1329  -42.8481 H         1 UNK         0.0851 
     82 H82        16.7590  -24.4311  -41.7509 H         1 UNK         0.0851 
     83 H83        15.0970  -24.2957  -42.2978 H         1 UNK         0.0851 
     84 H84        17.7826  -24.4816  -45.3380 H         1 UNK         0.2976 
     85 H85        18.4810  -27.6895  -41.8549 H         1 UNK         0.3116 
     86 H86        18.4501  -29.7636  -39.8492 H         1 UNK         0.0646 
     87 H87        17.2264  -28.4294  -38.1190 H         1 UNK         0.0847 
     88 H88        16.1582  -28.8360  -39.4484 H         1 UNK         0.0847 
     89 H89        16.8244  -27.2092  -39.3218 H         1 UNK         0.0847 
     90 H90        20.5833  -28.7769  -41.2059 H         1 UNK         0.3040 
     91 H91        22.1659  -27.4512  -39.2230 H         1 UNK         0.1015 
     92 H92        20.9719  -25.4424  -40.2705 H         1 UNK         0.0786 
     93 H93        21.6296  -25.9113  -41.8327 H         1 UNK         0.0786 
     94 H94        22.7015  -25.4057  -40.5361 H         1 UNK         0.0786 
     95 H95        24.3324  -26.8209  -40.4275 H         1 UNK         0.3172 
     96 H96        26.2360  -27.4510  -41.3344 H         1 UNK         0.0595 
     97 H97        24.7190  -29.2327  -43.3244 H         1 UNK         0.0839 
     98 H98        26.3381  -28.5765  -43.5102 H         1 UNK         0.0839 
     99 H99        24.9547  -27.5033  -43.5387 H         1 UNK         0.0839 
    100 H100       27.5270  -29.6575  -42.0434 H         1 UNK         0.2998 
    101 H101       27.6707  -31.2530  -39.6743 H         1 UNK         0.0822 
    102 H102       28.9082  -31.6874  -42.4499 H         1 UNK         0.0787 
    103 H103       29.6409  -30.7861  -41.1212 H         1 UNK         0.0787 
    104 H104       29.3892  -32.5169  -40.9765 H         1 UNK         0.0787 
    105 H105       25.6975  -31.5486  -42.4913 H         1 UNK         0.3055 
    106 H106       25.3225  -34.3987  -42.4791 H         1 UNK         0.1106 
    107 H107       23.5092  -33.8515  -44.1286 H         1 UNK         0.0828 
    108 H108       23.7436  -32.1348  -43.8085 H         1 UNK         0.0828 
    109 H109       25.0340  -33.0877  -44.5359 H         1 UNK         0.0828 
    110 H110       23.5056  -31.6973  -40.9066 H         1 UNK         0.2931 
    111 H111       22.1767  -33.6050  -39.2054 H         1 UNK         0.0412 
    112 H112       23.7396  -30.7077  -39.1406 H         1 UNK         0.3472 
    113 H113       22.8222  -30.0549  -37.8165 H         1 UNK         0.3472 
    114 H114       19.8375  -33.0911  -39.7999 H         1 UNK         0.0970 
    115 H115       20.6717  -33.8930  -41.0826 H         1 UNK         0.0970 
    116 H116       19.8516  -33.2490  -43.3906 H         1 UNK         0.0612 
    117 H117       21.5104  -32.7103  -43.3046 H         1 UNK         0.0612 
@<TRIPOS>BOND
     1    1    2 1    
     2    1   62 1    
     3    1   63 1    
     4    1   64 1    
     5    2    3 2    
     6    2    4 am   BACKBONE|DICT|INTERRES
     7    4    5 1    
     8    4   65 1    
     9    5    6 1    
    10    5   25 1    
    11    5   66 1    
    12    6    7 1    
    13    6   67 1    
    14    6   68 1    
    15    7    8 1    
    16    8    9 1    
    17    8   69 1    
    18    8   70 1    
    19    9   10 ar   
    20    9   14 ar   
    21   10   11 ar   
    22   10   71 1    
    23   11   12 ar   
    24   11   61 1    
    25   12   13 ar   
    26   12   72 1    
    27   13   14 ar   
    28   13   15 1    
    29   14   73 1    
    30   15   16 1    
    31   15   74 1    
    32   15   75 1    
    33   16   17 1    
    34   17   18 1    
    35   17   76 1    
    36   17   77 1    
    37   18   19 1    
    38   18   27 1    
    39   18   78 1    
    40   19   20 am   BACKBONE|DICT|INTERRES
    41   19   79 1    
    42   20   21 2    
    43   20   22 1    
    44   22   23 1    
    45   22   24 1    
    46   22   80 1    
    47   23   81 1    
    48   23   82 1    
    49   23   83 1    
    50   24   25 am   BACKBONE|DICT|INTERRES
    51   24   84 1    
    52   25   26 2    
    53   27   28 2    
    54   27   29 am   BACKBONE|DICT|INTERRES
    55   29   30 1    
    56   29   85 1    
    57   30   31 1    
    58   30   32 1    
    59   30   86 1    
    60   31   87 1    
    61   31   88 1    
    62   31   89 1    
    63   32   33 2    
    64   32   34 am   BACKBONE|DICT|INTERRES
    65   34   35 1    
    66   34   90 1    
    67   35   36 1    
    68   35   37 1    
    69   35   91 1    
    70   36   92 1    
    71   36   93 1    
    72   36   94 1    
    73   37   38 2    
    74   37   39 am   BACKBONE|DICT|INTERRES
    75   39   40 1    
    76   39   95 1    
    77   40   41 1    
    78   40   42 1    
    79   40   96 1    
    80   41   97 1    
    81   41   98 1    
    82   41   99 1    
    83   42   43 2    
    84   42   44 am   BACKBONE|DICT|INTERRES
    85   44   45 1    
    86   44  100 1    
    87   45   46 1    
    88   45   47 1    
    89   45  101 1    
    90   46  102 1    
    91   46  103 1    
    92   46  104 1    
    93   47   48 2    
    94   47   49 am   BACKBONE|DICT|INTERRES
    95   49   50 1    
    96   49  105 1    
    97   50   51 1    
    98   50   52 1    
    99   50  106 1    
   100   51  107 1    
   101   51  108 1    
   102   51  109 1    
   103   52   53 2    
   104   52   54 am   BACKBONE|DICT|INTERRES
   105   54   55 1    
   106   54  110 1    
   107   55   56 1    
   108   55   59 1    
   109   55  111 1    
   110   56   57 am   BACKBONE|DICT|INTERRES
   111   56   58 2    
   112   57  112 1    
   113   57  113 1    
   114   59   60 1    
   115   59  114 1    
   116   59  115 1    
   117   60   61 1    
   118   61  116 1    
   119   61  117 1    
@<TRIPOS>SUBSTRUCTURE
     1 UNK         1 GROUP             0       ****    0 ROOT    
