@<TRIPOS>MOLECULE
3R8
117   119    1
SMALL
USER_CHARGES


@<TRIPOS>ATOM
      1 CA         18.4492  -22.7809  -42.2606 C.3       0 UNK        -0.2013 
      2 C          19.4826  -23.6351  -41.5321 C.2       0 UNK         0.4866 
      3 O          20.1521  -23.1365  -40.6300 O.2       0 UNK        -0.5176 
      4 N          19.6504  -24.9176  -41.8774 N.am      1 UNK        -0.4884 
      5 CA         18.9891  -25.6309  -42.9771 C.3       1 UNK         0.0853 
      6 C6         18.9436  -27.1529  -42.7105 C.3       10 UNK        -0.0849 
      7 S7         17.7511  -27.6051  -41.3992 S.3       10 UNK        -0.2776 
      8 C8         16.3999  -28.4441  -42.3035 C.3       10 UNK         0.0316 
      9 C9         16.9174  -29.6026  -43.1436 C.ar      10 UNK        -0.0863 
     10 C10        17.2943  -30.8062  -42.5449 C.ar      10 UNK        -0.1009 
     11 C11        17.9071  -31.8122  -43.3003 C.ar      10 UNK        -0.0712 
     12 C12        18.1280  -31.6036  -44.6681 C.ar      10 UNK        -0.0894 
     13 C13        17.7575  -30.4007  -45.2804 C.ar      10 UNK        -0.0745 
     14 C14        17.0980  -29.4321  -44.5167 C.ar      10 UNK        -0.0972 
     15 C15        18.1203  -30.1451  -46.7456 C.3       10 UNK         0.0209 
     16 S16        18.4709  -28.3824  -47.1037 S.3       10 UNK        -0.2568 
     17 C17        19.9339  -28.4340  -48.1928 C.3       10 UNK        -0.0983 
     18 CA         21.2656  -28.0494  -47.4929 C.3       3 UNK         0.0876 
     19 N          21.1743  -26.7857  -46.7408 N.am      3 UNK        -0.4424 
     20 C          22.2180  -26.0910  -46.2648 C.2       2 UNK         0.4918 
     21 O          23.3895  -26.4326  -46.4257 O.2       2 UNK        -0.4875 
     22 CA         21.9217  -24.8479  -45.4086 C.3       2 UNK         0.0481 
     23 CB         21.4777  -23.6508  -46.2715 C.3       2 UNK        -0.1831 
     24 N          21.0027  -25.1089  -44.2926 N.am      2 UNK        -0.4498 
     25 C          19.6849  -25.3548  -44.3258 C.2       1 UNK         0.5027 
     26 O          19.0209  -25.3819  -45.3611 O.2       1 UNK        -0.4969 
     27 C          21.8377  -29.2210  -46.6627 C.2       3 UNK         0.5005 
     28 O          22.3370  -30.1846  -47.2460 O.2       3 UNK        -0.5279 
     29 N          21.7875  -29.1044  -45.3304 N.am      4 UNK        -0.4463 
     30 CA         22.4053  -30.0167  -44.3720 C.3       4 UNK         0.0283 
     31 CB         21.3509  -31.0043  -43.8532 C.3       4 UNK        -0.1875 
     32 C          23.0819  -29.2215  -43.2459 C.2       4 UNK         0.4949 
     33 O          23.0138  -29.6298  -42.0854 O.2       4 UNK        -0.5039 
     34 N          23.7065  -28.0882  -43.6058 N.am      5 UNK        -0.4663 
     35 CA         24.3723  -27.1311  -42.7123 C.3       5 UNK         0.0242 
     36 CB         25.6712  -27.7465  -42.1416 C.3       5 UNK        -0.1982 
     37 C          23.4050  -26.5917  -41.6388 C.2       5 UNK         0.5017 
     38 O          22.2594  -26.2758  -41.9674 O.2       5 UNK        -0.5012 
     39 N          23.8450  -26.5253  -40.3773 N.am      6 UNK        -0.4439 
     40 CA         23.0295  -26.1499  -39.2194 C.3       6 UNK         0.0297 
     41 CB         23.9403  -25.5030  -38.1586 C.3       6 UNK        -0.2006 
     42 C          22.2392  -27.3575  -38.6716 C.2       6 UNK         0.4892 
     43 O          22.3149  -27.6447  -37.4758 O.2       6 UNK        -0.5089 
     44 N          21.5124  -28.0460  -39.5655 N.am      7 UNK        -0.4243 
     45 CA         20.7116  -29.2550  -39.3304 C.3       7 UNK         0.0196 
     46 CB         19.5120  -28.9464  -38.4081 C.3       7 UNK        -0.2007 
     47 C          21.5626  -30.4366  -38.8237 C.2       7 UNK         0.5020 
     48 O          21.1956  -31.0907  -37.8454 O.2       7 UNK        -0.5147 
     49 N          22.7000  -30.6789  -39.4894 N.am      8 UNK        -0.4734 
     50 CA         23.6082  -31.7894  -39.1935 C.3       8 UNK         0.0238 
     51 CB         24.9748  -31.5288  -39.8497 C.3       8 UNK        -0.1912 
     52 C          23.0148  -33.1321  -39.6477 C.2       8 UNK         0.5038 
     53 O          22.9647  -34.0734  -38.8545 O.2       8 UNK        -0.5046 
     54 N          22.5403  -33.1606  -40.9007 N.am      9 UNK        -0.4200 
     55 CA         21.8005  -34.2622  -41.5421 C.3       9 UNK         0.0839 
     56 C          22.5847  -35.6112  -41.5675 C.2       9 UNK         0.5513 
     57 N          21.9133  -36.7556  -41.5966 N.am      9 UNK        -0.7519 
     58 O          23.8128  -35.6296  -41.6271 O.2       9 UNK        -0.4960 
     59 C59        20.3373  -34.3628  -41.0142 C.3       10 UNK        -0.0876 
     60 S60        19.4404  -32.7803  -41.1894 S.3       10 UNK        -0.2414 
     61 C61        18.3754  -33.1028  -42.6352 C.3       10 UNK         0.0169 
     62 H62        18.6472  -22.7489  -43.3314 H         1 UNK         0.0903 
     63 H63        17.4439  -23.1679  -42.0971 H         1 UNK         0.0903 
     64 H64        18.4730  -21.7559  -41.8908 H         1 UNK         0.0903 
     65 H65        20.3803  -25.4439  -41.4134 H         1 UNK         0.3096 
     66 H66        17.9600  -25.2808  -43.0768 H         1 UNK         0.1121 
     67 H67        18.7078  -27.6862  -43.6271 H         1 UNK         0.0849 
     68 H68        19.9259  -27.5249  -42.4154 H         1 UNK         0.0849 
     69 H69        15.6654  -28.8123  -41.5858 H         1 UNK         0.0865 
     70 H70        15.8791  -27.7151  -42.9264 H         1 UNK         0.0865 
     71 H71        17.1583  -30.9391  -41.4802 H         1 UNK         0.1346 
     72 H72        18.6272  -32.3654  -45.2510 H         1 UNK         0.1412 
     73 H73        16.7986  -28.4975  -44.9700 H         1 UNK         0.1426 
     74 H74        17.3022  -30.4829  -47.3826 H         1 UNK         0.0716 
     75 H75        18.9931  -30.7435  -47.0112 H         1 UNK         0.0716 
     76 H76        19.7475  -27.7255  -49.0012 H         1 UNK         0.0695 
     77 H77        20.0062  -29.4081  -48.6805 H         1 UNK         0.0695 
     78 H78        21.9980  -27.8803  -48.2857 H         1 UNK         0.0983 
     79 H79        20.2382  -26.4469  -46.5367 H         1 UNK         0.3095 
     80 H80        22.8635  -24.5653  -44.9353 H         1 UNK         0.0454 
     81 H81        22.2430  -23.4008  -47.0072 H         1 UNK         0.0851 
     82 H82        21.3136  -22.7626  -45.6615 H         1 UNK         0.0851 
     83 H83        20.5591  -23.8533  -46.8224 H         1 UNK         0.0851 
     84 H84        21.4513  -25.2020  -43.3849 H         1 UNK         0.2976 
     85 H85        21.3527  -28.2798  -44.9424 H         1 UNK         0.3116 
     86 H86        23.2000  -30.5864  -44.8579 H         1 UNK         0.0646 
     87 H87        20.5337  -30.4902  -43.3455 H         1 UNK         0.0847 
     88 H88        20.9330  -31.5928  -44.6686 H         1 UNK         0.0847 
     89 H89        21.7861  -31.7052  -43.1457 H         1 UNK         0.0847 
     90 H90        23.7009  -27.8345  -44.5859 H         1 UNK         0.3040 
     91 H91        24.6486  -26.2731  -43.3272 H         1 UNK         0.1015 
     92 H92        26.2587  -27.0066  -41.5966 H         1 UNK         0.0786 
     93 H93        26.3078  -28.1219  -42.9430 H         1 UNK         0.0786 
     94 H94        25.4706  -28.5806  -41.4675 H         1 UNK         0.0786 
     95 H95        24.7828  -26.8457  -40.1829 H         1 UNK         0.3172 
     96 H96        22.2968  -25.3988  -39.5232 H         1 UNK         0.0595 
     97 H97        24.6901  -26.2027  -37.7872 H         1 UNK         0.0839 
     98 H98        23.3594  -25.1614  -37.3007 H         1 UNK         0.0839 
     99 H99        24.4610  -24.6332  -38.5596 H         1 UNK         0.0839 
    100 H100       21.5675  -27.7385  -40.5289 H         1 UNK         0.2998 
    101 H101       20.3142  -29.5549  -40.3020 H         1 UNK         0.0822 
    102 H102       18.8230  -29.7912  -38.3741 H         1 UNK         0.0787 
    103 H103       18.9495  -28.0820  -38.7583 H         1 UNK         0.0787 
    104 H104       19.8284  -28.7422  -37.3847 H         1 UNK         0.0787 
    105 H105       22.8969  -30.1331  -40.3272 H         1 UNK         0.3055 
    106 H106       23.7536  -31.8384  -38.1118 H         1 UNK         0.1106 
    107 H107       25.4284  -30.6150  -39.4657 H         1 UNK         0.0828 
    108 H108       25.6677  -32.3458  -39.6441 H         1 UNK         0.0828 
    109 H109       24.8967  -31.4313  -40.9332 H         1 UNK         0.0828 
    110 H110       22.6425  -32.3228  -41.4530 H         1 UNK         0.2931 
    111 H111       21.7355  -33.9849  -42.5942 H         1 UNK         0.0412 
    112 H112       20.9065  -36.7775  -41.5736 H         1 UNK         0.3472 
    113 H113       22.4296  -37.6209  -41.6373 H         1 UNK         0.3472 
    114 H114       20.3342  -34.6462  -39.9603 H         1 UNK         0.0970 
    115 H115       19.7773  -35.1369  -41.5399 H         1 UNK         0.0970 
    116 H116       17.5085  -33.6857  -42.3221 H         1 UNK         0.0612 
    117 H117       18.9268  -33.7152  -43.3503 H         1 UNK         0.0612 
@<TRIPOS>BOND
     1    1    2 1    
     2    1   62 1    
     3    1   63 1    
     4    1   64 1    
     5    2    3 2    
     6    2    4 am   BACKBONE|DICT|INTERRES
     7    4    5 1    
     8    4   65 1    
     9    5    6 1    
    10    5   25 1    
    11    5   66 1    
    12    6    7 1    
    13    6   67 1    
    14    6   68 1    
    15    7    8 1    
    16    8    9 1    
    17    8   69 1    
    18    8   70 1    
    19    9   10 ar   
    20    9   14 ar   
    21   10   11 ar   
    22   10   71 1    
    23   11   12 ar   
    24   11   61 1    
    25   12   13 ar   
    26   12   72 1    
    27   13   14 ar   
    28   13   15 1    
    29   14   73 1    
    30   15   16 1    
    31   15   74 1    
    32   15   75 1    
    33   16   17 1    
    34   17   18 1    
    35   17   76 1    
    36   17   77 1    
    37   18   19 1    
    38   18   27 1    
    39   18   78 1    
    40   19   20 am   BACKBONE|DICT|INTERRES
    41   19   79 1    
    42   20   21 2    
    43   20   22 1    
    44   22   23 1    
    45   22   24 1    
    46   22   80 1    
    47   23   81 1    
    48   23   82 1    
    49   23   83 1    
    50   24   25 am   BACKBONE|DICT|INTERRES
    51   24   84 1    
    52   25   26 2    
    53   27   28 2    
    54   27   29 am   BACKBONE|DICT|INTERRES
    55   29   30 1    
    56   29   85 1    
    57   30   31 1    
    58   30   32 1    
    59   30   86 1    
    60   31   87 1    
    61   31   88 1    
    62   31   89 1    
    63   32   33 2    
    64   32   34 am   BACKBONE|DICT|INTERRES
    65   34   35 1    
    66   34   90 1    
    67   35   36 1    
    68   35   37 1    
    69   35   91 1    
    70   36   92 1    
    71   36   93 1    
    72   36   94 1    
    73   37   38 2    
    74   37   39 am   BACKBONE|DICT|INTERRES
    75   39   40 1    
    76   39   95 1    
    77   40   41 1    
    78   40   42 1    
    79   40   96 1    
    80   41   97 1    
    81   41   98 1    
    82   41   99 1    
    83   42   43 2    
    84   42   44 am   BACKBONE|DICT|INTERRES
    85   44   45 1    
    86   44  100 1    
    87   45   46 1    
    88   45   47 1    
    89   45  101 1    
    90   46  102 1    
    91   46  103 1    
    92   46  104 1    
    93   47   48 2    
    94   47   49 am   BACKBONE|DICT|INTERRES
    95   49   50 1    
    96   49  105 1    
    97   50   51 1    
    98   50   52 1    
    99   50  106 1    
   100   51  107 1    
   101   51  108 1    
   102   51  109 1    
   103   52   53 2    
   104   52   54 am   BACKBONE|DICT|INTERRES
   105   54   55 1    
   106   54  110 1    
   107   55   56 1    
   108   55   59 1    
   109   55  111 1    
   110   56   57 am   BACKBONE|DICT|INTERRES
   111   56   58 2    
   112   57  112 1    
   113   57  113 1    
   114   59   60 1    
   115   59  114 1    
   116   59  115 1    
   117   60   61 1    
   118   61  116 1    
   119   61  117 1    
@<TRIPOS>SUBSTRUCTURE
     1 UNK         1 GROUP             0       ****    0 ROOT    
