@<TRIPOS>MOLECULE
3R8
117   119    1
SMALL
USER_CHARGES


@<TRIPOS>ATOM
      1 CA         16.0125  -24.7842  -49.4893 C.3       0 UNK        -0.2013 
      2 C          16.9455  -25.5486  -48.5619 C.2       0 UNK         0.4866 
      3 O          18.0745  -25.8563  -48.9464 O.2       0 UNK        -0.5176 
      4 N          16.4803  -25.8663  -47.3476 N.am      1 UNK        -0.4884 
      5 CA         17.2555  -26.5564  -46.3114 C.3       1 UNK         0.0853 
      6 C6         16.3496  -27.1028  -45.1817 C.3       10 UNK        -0.0849 
      7 S7         15.2286  -28.4276  -45.7395 S.3       10 UNK        -0.2776 
      8 C8         16.2732  -29.9189  -45.5436 C.3       10 UNK         0.0316 
      9 C9         16.8026  -30.1929  -44.1323 C.ar      10 UNK        -0.0863 
     10 C10        17.9487  -30.9826  -43.9891 C.ar      10 UNK        -0.1009 
     11 C11        18.4636  -31.2765  -42.7229 C.ar      10 UNK        -0.0712 
     12 C12        17.8269  -30.7700  -41.5878 C.ar      10 UNK        -0.0894 
     13 C13        16.6880  -29.9694  -41.7104 C.ar      10 UNK        -0.0745 
     14 C14        16.1704  -29.7024  -42.9814 C.ar      10 UNK        -0.0972 
     15 C15        16.0029  -29.4044  -40.4722 C.3       10 UNK         0.0209 
     16 S16        17.1208  -28.4025  -39.4359 S.3       10 UNK        -0.2568 
     17 C17        17.6347  -27.0658  -40.5703 C.3       10 UNK        -0.0983 
     18 CA         19.1159  -27.1818  -41.0224 C.3       3 UNK         0.0876 
     19 N          19.3364  -26.4390  -42.2750 N.am      3 UNK        -0.4424 
     20 C          20.4794  -26.3855  -42.9756 C.2       2 UNK         0.4918 
     21 O          21.5332  -26.8952  -42.6016 O.2       2 UNK        -0.4875 
     22 CA         20.4162  -25.6582  -44.3269 C.3       2 UNK         0.0481 
     23 CB         21.7505  -25.7089  -45.0955 C.3       2 UNK        -0.1831 
     24 N          19.3672  -26.2796  -45.1317 N.am      2 UNK        -0.4498 
     25 C          18.3352  -25.6431  -45.6969 C.2       1 UNK         0.5027 
     26 O          18.1822  -24.4188  -45.6791 O.2       1 UNK        -0.4969 
     27 C          20.0969  -26.8064  -39.8829 C.2       3 UNK         0.5005 
     28 O          20.3992  -27.6483  -39.0360 O.2       3 UNK        -0.5279 
     29 N          20.6065  -25.5642  -39.8987 N.am      4 UNK        -0.4463 
     30 CA         21.6460  -25.0691  -38.9907 C.3       4 UNK         0.0283 
     31 CB         21.8189  -23.5555  -39.1940 C.3       4 UNK        -0.1875 
     32 C          23.0005  -25.7886  -39.1462 C.2       4 UNK         0.4949 
     33 O          23.7444  -25.8816  -38.1697 O.2       4 UNK        -0.5039 
     34 N          23.2913  -26.3111  -40.3455 N.am      5 UNK        -0.4663 
     35 CA         24.4595  -27.1395  -40.6411 C.3       5 UNK         0.0242 
     36 CB         24.9498  -26.8251  -42.0677 C.3       5 UNK        -0.1982 
     37 C          24.0842  -28.6187  -40.4536 C.2       5 UNK         0.5017 
     38 O          24.1022  -29.3884  -41.4151 O.2       5 UNK        -0.5012 
     39 N          23.7147  -28.9764  -39.2156 N.am      6 UNK        -0.4439 
     40 CA         23.2493  -30.3043  -38.8070 C.3       6 UNK         0.0297 
     41 CB         22.9706  -30.2998  -37.2960 C.3       6 UNK        -0.2006 
     42 C          24.2399  -31.4230  -39.1715 C.2       6 UNK         0.4892 
     43 O          25.4478  -31.2477  -38.9987 O.2       6 UNK        -0.5089 
     44 N          23.7017  -32.5318  -39.6959 N.am      7 UNK        -0.4243 
     45 CA         24.3817  -33.7236  -40.2276 C.3       7 UNK         0.0196 
     46 CB         25.2966  -34.3833  -39.1762 C.3       7 UNK        -0.2007 
     47 C          25.1257  -33.5038  -41.5603 C.2       7 UNK         0.5020 
     48 O          25.2310  -34.4522  -42.3382 O.2       7 UNK        -0.5147 
     49 N          25.6075  -32.2825  -41.8268 N.am      8 UNK        -0.4734 
     50 CA         26.1799  -31.8801  -43.1156 C.3       8 UNK         0.0238 
     51 CB         27.0661  -30.6395  -42.9195 C.3       8 UNK        -0.1912 
     52 C          25.0939  -31.6172  -44.1746 C.2       8 UNK         0.5038 
     53 O          25.3462  -31.8303  -45.3614 O.2       8 UNK        -0.5046 
     54 N          23.9164  -31.1659  -43.7240 N.am      9 UNK        -0.4200 
     55 CA         22.6924  -30.9689  -44.5098 C.3       9 UNK         0.0839 
     56 C          22.1890  -32.2443  -45.2437 C.2       9 UNK         0.5513 
     57 N          21.4768  -32.0746  -46.3499 N.am      9 UNK        -0.7519 
     58 O          22.3974  -33.3743  -44.8069 O.2       9 UNK        -0.4960 
     59 C59        21.5750  -30.3204  -43.6475 C.3       10 UNK        -0.0876 
     60 S60        21.1756  -31.2216  -42.1050 S.3       10 UNK        -0.2414 
     61 C61        19.6904  -32.1641  -42.5739 C.3       10 UNK         0.0169 
     62 H62        16.4550  -23.8257  -49.7592 H         1 UNK         0.0903 
     63 H63        15.8445  -25.3520  -50.4041 H         1 UNK         0.0903 
     64 H64        15.0444  -24.5925  -49.0269 H         1 UNK         0.0903 
     65 H65        15.5488  -25.5823  -47.0799 H         1 UNK         0.3096 
     66 H66        17.7681  -27.3966  -46.7860 H         1 UNK         0.1121 
     67 H67        16.9458  -27.4782  -44.3493 H         1 UNK         0.0849 
     68 H68        15.7403  -26.2998  -44.7621 H         1 UNK         0.0849 
     69 H69        15.6934  -30.7855  -45.8636 H         1 UNK         0.0865 
     70 H70        17.1093  -29.8396  -46.2401 H         1 UNK         0.0865 
     71 H71        18.4388  -31.3808  -44.8676 H         1 UNK         0.1346 
     72 H72        18.2250  -30.9909  -40.6067 H         1 UNK         0.1412 
     73 H73        15.2751  -29.1031  -43.0693 H         1 UNK         0.1426 
     74 H74        15.6178  -30.2317  -39.8749 H         1 UNK         0.0716 
     75 H75        15.1397  -28.7954  -40.7457 H         1 UNK         0.0716 
     76 H76        16.9735  -27.0899  -41.4379 H         1 UNK         0.0695 
     77 H77        17.4484  -26.1045  -40.0877 H         1 UNK         0.0695 
     78 H78        19.3169  -28.2282  -41.2645 H         1 UNK         0.0983 
     79 H79        18.5287  -25.9695  -42.6564 H         1 UNK         0.3095 
     80 H80        20.1799  -24.6134  -44.1163 H         1 UNK         0.0454 
     81 H81        22.5513  -25.2427  -44.5199 H         1 UNK         0.0851 
     82 H82        21.6808  -25.1760  -46.0436 H         1 UNK         0.0851 
     83 H83        22.0566  -26.7339  -45.3088 H         1 UNK         0.0851 
     84 H84        19.3947  -27.2894  -45.1699 H         1 UNK         0.2976 
     85 H85        20.3003  -24.9354  -40.6267 H         1 UNK         0.3116 
     86 H86        21.3014  -25.2393  -37.9685 H         1 UNK         0.0646 
     87 H87        22.1450  -23.3178  -40.2073 H         1 UNK         0.0847 
     88 H88        20.8893  -23.0188  -39.0036 H         1 UNK         0.0847 
     89 H89        22.5675  -23.1539  -38.5094 H         1 UNK         0.0847 
     90 H90        22.5862  -26.2853  -41.0768 H         1 UNK         0.3040 
     91 H91        25.2732  -26.9110  -39.9491 H         1 UNK         0.1015 
     92 H92        25.8491  -27.3945  -42.3041 H         1 UNK         0.0786 
     93 H93        25.1965  -25.7692  -42.1782 H         1 UNK         0.0786 
     94 H94        24.2002  -27.0740  -42.8199 H         1 UNK         0.0786 
     95 H95        23.7251  -28.2607  -38.5016 H         1 UNK         0.3172 
     96 H96        22.3070  -30.4829  -39.3286 H         1 UNK         0.0595 
     97 H97        23.8719  -30.0832  -36.7209 H         1 UNK         0.0839 
     98 H98        22.5972  -31.2696  -36.9642 H         1 UNK         0.0839 
     99 H99        22.2160  -29.5572  -37.0345 H         1 UNK         0.0839 
    100 H100       22.6982  -32.5363  -39.8213 H         1 UNK         0.2998 
    101 H101       23.5808  -34.4320  -40.4465 H         1 UNK         0.0822 
    102 H102       25.6751  -35.3396  -39.5394 H         1 UNK         0.0787 
    103 H103       24.7594  -34.5787  -38.2481 H         1 UNK         0.0787 
    104 H104       26.1632  -33.7652  -38.9405 H         1 UNK         0.0787 
    105 H105       25.5065  -31.5643  -41.1183 H         1 UNK         0.3055 
    106 H106       26.8095  -32.6919  -43.4871 H         1 UNK         0.1106 
    107 H107       27.8738  -30.8365  -42.2145 H         1 UNK         0.0828 
    108 H108       27.5247  -30.3360  -43.8615 H         1 UNK         0.0828 
    109 H109       26.4959  -29.7890  -42.5467 H         1 UNK         0.0828 
    110 H110       23.8380  -30.9409  -42.7387 H         1 UNK         0.2931 
    111 H111       22.9584  -30.2485  -45.2858 H         1 UNK         0.0412 
    112 H112       21.1301  -32.8868  -46.8364 H         1 UNK         0.3472 
    113 H113       21.3013  -31.1555  -46.7246 H         1 UNK         0.3472 
    114 H114       21.9056  -29.3256  -43.3495 H         1 UNK         0.0970 
    115 H115       20.6709  -30.1562  -44.2341 H         1 UNK         0.0970 
    116 H116       19.8815  -32.7216  -43.4913 H         1 UNK         0.0612 
    117 H117       19.4974  -32.9110  -41.8028 H         1 UNK         0.0612 
@<TRIPOS>BOND
     1    1    2 1    
     2    1   62 1    
     3    1   63 1    
     4    1   64 1    
     5    2    3 2    
     6    2    4 am   BACKBONE|DICT|INTERRES
     7    4    5 1    
     8    4   65 1    
     9    5    6 1    
    10    5   25 1    
    11    5   66 1    
    12    6    7 1    
    13    6   67 1    
    14    6   68 1    
    15    7    8 1    
    16    8    9 1    
    17    8   69 1    
    18    8   70 1    
    19    9   10 ar   
    20    9   14 ar   
    21   10   11 ar   
    22   10   71 1    
    23   11   12 ar   
    24   11   61 1    
    25   12   13 ar   
    26   12   72 1    
    27   13   14 ar   
    28   13   15 1    
    29   14   73 1    
    30   15   16 1    
    31   15   74 1    
    32   15   75 1    
    33   16   17 1    
    34   17   18 1    
    35   17   76 1    
    36   17   77 1    
    37   18   19 1    
    38   18   27 1    
    39   18   78 1    
    40   19   20 am   BACKBONE|DICT|INTERRES
    41   19   79 1    
    42   20   21 2    
    43   20   22 1    
    44   22   23 1    
    45   22   24 1    
    46   22   80 1    
    47   23   81 1    
    48   23   82 1    
    49   23   83 1    
    50   24   25 am   BACKBONE|DICT|INTERRES
    51   24   84 1    
    52   25   26 2    
    53   27   28 2    
    54   27   29 am   BACKBONE|DICT|INTERRES
    55   29   30 1    
    56   29   85 1    
    57   30   31 1    
    58   30   32 1    
    59   30   86 1    
    60   31   87 1    
    61   31   88 1    
    62   31   89 1    
    63   32   33 2    
    64   32   34 am   BACKBONE|DICT|INTERRES
    65   34   35 1    
    66   34   90 1    
    67   35   36 1    
    68   35   37 1    
    69   35   91 1    
    70   36   92 1    
    71   36   93 1    
    72   36   94 1    
    73   37   38 2    
    74   37   39 am   BACKBONE|DICT|INTERRES
    75   39   40 1    
    76   39   95 1    
    77   40   41 1    
    78   40   42 1    
    79   40   96 1    
    80   41   97 1    
    81   41   98 1    
    82   41   99 1    
    83   42   43 2    
    84   42   44 am   BACKBONE|DICT|INTERRES
    85   44   45 1    
    86   44  100 1    
    87   45   46 1    
    88   45   47 1    
    89   45  101 1    
    90   46  102 1    
    91   46  103 1    
    92   46  104 1    
    93   47   48 2    
    94   47   49 am   BACKBONE|DICT|INTERRES
    95   49   50 1    
    96   49  105 1    
    97   50   51 1    
    98   50   52 1    
    99   50  106 1    
   100   51  107 1    
   101   51  108 1    
   102   51  109 1    
   103   52   53 2    
   104   52   54 am   BACKBONE|DICT|INTERRES
   105   54   55 1    
   106   54  110 1    
   107   55   56 1    
   108   55   59 1    
   109   55  111 1    
   110   56   57 am   BACKBONE|DICT|INTERRES
   111   56   58 2    
   112   57  112 1    
   113   57  113 1    
   114   59   60 1    
   115   59  114 1    
   116   59  115 1    
   117   60   61 1    
   118   61  116 1    
   119   61  117 1    
@<TRIPOS>SUBSTRUCTURE
     1 UNK         1 GROUP             0       ****    0 ROOT    
