@<TRIPOS>MOLECULE
3R8
117   119    1
SMALL
USER_CHARGES


@<TRIPOS>ATOM
      1 CA         13.1965  -22.0269  -46.0232 C.3       0 UNK        -0.2013 
      2 C          13.9060  -23.3351  -46.3389 C.2       0 UNK         0.4866 
      3 O          14.0201  -23.7029  -47.5082 O.2       0 UNK        -0.5176 
      4 N          14.3866  -24.0407  -45.3056 N.am      1 UNK        -0.4884 
      5 CA         15.0991  -25.3215  -45.4283 C.3       1 UNK         0.0853 
      6 C6         15.0551  -26.1178  -44.0951 C.3       10 UNK        -0.0849 
      7 S7         14.9630  -27.9176  -44.3691 S.3       10 UNK        -0.2776 
      8 C8         15.2646  -28.5550  -42.6912 C.3       10 UNK         0.0316 
      9 C9         16.7474  -28.7609  -42.4129 C.ar      10 UNK        -0.0863 
     10 C10        17.3979  -29.8888  -42.9241 C.ar      10 UNK        -0.1009 
     11 C11        18.7434  -30.1249  -42.6316 C.ar      10 UNK        -0.0712 
     12 C12        19.4350  -29.2326  -41.8100 C.ar      10 UNK        -0.0894 
     13 C13        18.8061  -28.0866  -41.3132 C.ar      10 UNK        -0.0745 
     14 C14        17.4599  -27.8551  -41.6186 C.ar      10 UNK        -0.0972 
     15 C15        19.5815  -27.1123  -40.4349 C.3       10 UNK         0.0209 
     16 S16        21.1232  -26.5408  -41.2249 S.3       10 UNK        -0.2568 
     17 C17        20.4927  -25.4369  -42.5345 C.3       10 UNK        -0.0983 
     18 CA         20.2356  -26.1404  -43.8974 C.3       3 UNK         0.0876 
     19 N          19.4065  -25.3480  -44.8074 N.am      3 UNK        -0.4424 
     20 C          19.5558  -24.0743  -45.1931 C.2       2 UNK         0.4918 
     21 O          20.4595  -23.3297  -44.8130 O.2       2 UNK        -0.4875 
     22 CA         18.4765  -23.5038  -46.1351 C.3       2 UNK         0.0481 
     23 CB         18.8353  -23.7570  -47.6122 C.3       2 UNK        -0.1831 
     24 N          17.1039  -23.9362  -45.8210 N.am      2 UNK        -0.4498 
     25 C          16.5512  -25.1557  -45.9315 C.2       1 UNK         0.5027 
     26 O          17.1569  -26.1360  -46.3665 O.2       1 UNK        -0.4969 
     27 C          21.5285  -26.6376  -44.5774 C.2       3 UNK         0.5005 
     28 O          22.1632  -25.9093  -45.3437 O.2       3 UNK        -0.5279 
     29 N          21.9059  -27.8841  -44.2601 N.am      4 UNK        -0.4463 
     30 CA         23.1574  -28.5149  -44.6908 C.3       4 UNK         0.0283 
     31 CB         23.0326  -30.0404  -44.5385 C.3       4 UNK        -0.1875 
     32 C          24.3889  -28.0085  -43.9169 C.2       4 UNK         0.4949 
     33 O          25.5070  -28.1967  -44.3960 O.2       4 UNK        -0.5039 
     34 N          24.1640  -27.4027  -42.7384 N.am      5 UNK        -0.4663 
     35 CA         25.1666  -26.9002  -41.7887 C.3       5 UNK         0.0242 
     36 CB         25.9224  -25.6907  -42.3796 C.3       5 UNK        -0.1982 
     37 C          26.1051  -28.0108  -41.2729 C.2       5 UNK         0.5017 
     38 O          27.3140  -27.7990  -41.1577 O.2       5 UNK        -0.5012 
     39 N          25.5235  -29.1792  -40.9789 N.am      6 UNK        -0.4439 
     40 CA         26.2013  -30.3679  -40.4749 C.3       6 UNK         0.0297 
     41 CB         26.5822  -31.2807  -41.6532 C.3       6 UNK        -0.2006 
     42 C          25.2598  -31.0899  -39.5074 C.2       6 UNK         0.4892 
     43 O          24.0390  -31.0283  -39.6863 O.2       6 UNK        -0.5089 
     44 N          25.8452  -31.7701  -38.5130 N.am      7 UNK        -0.4243 
     45 CA         25.1340  -32.5667  -37.5111 C.3       7 UNK         0.0196 
     46 CB         26.1298  -33.0683  -36.4529 C.3       7 UNK        -0.2007 
     47 C          24.3936  -33.7443  -38.1618 C.2       7 UNK         0.5020 
     48 O          24.9927  -34.4694  -38.9595 O.2       7 UNK        -0.5147 
     49 N          23.1004  -33.8838  -37.8364 N.am      8 UNK        -0.4734 
     50 CA         22.1557  -34.8696  -38.3866 C.3       8 UNK         0.0238 
     51 CB         22.4990  -36.2855  -37.8753 C.3       8 UNK        -0.1912 
     52 C          22.0246  -34.8120  -39.9253 C.2       8 UNK         0.5038 
     53 O          21.7446  -35.8366  -40.5502 O.2       8 UNK        -0.5046 
     54 N          22.2486  -33.6208  -40.5004 N.am      9 UNK        -0.4200 
     55 CA         22.3129  -33.3441  -41.9449 C.3       9 UNK         0.0839 
     56 C          23.5534  -33.9614  -42.6607 C.2       9 UNK         0.5513 
     57 N          24.5774  -34.4213  -41.9498 N.am      9 UNK        -0.7519 
     58 O          23.6079  -33.9931  -43.8872 O.2       9 UNK        -0.4960 
     59 C59        20.9755  -33.6283  -42.6921 C.3       10 UNK        -0.0876 
     60 S60        19.5798  -32.6787  -41.9964 S.3       10 UNK        -0.2414 
     61 C61        19.4634  -31.3314  -43.2088 C.3       10 UNK         0.0169 
     62 H62        12.1709  -22.0590  -46.3900 H         1 UNK         0.0903 
     63 H63        13.1669  -21.8256  -44.9525 H         1 UNK         0.0903 
     64 H64        13.7065  -21.1963  -46.5105 H         1 UNK         0.0903 
     65 H65        14.2573  -23.6928  -44.3652 H         1 UNK         0.3096 
     66 H66        14.5755  -25.9003  -46.1935 H         1 UNK         0.1121 
     67 H67        14.1651  -25.8504  -43.5226 H         1 UNK         0.0849 
     68 H68        15.9041  -25.8802  -43.4502 H         1 UNK         0.0849 
     69 H69        14.8163  -27.8894  -41.9518 H         1 UNK         0.0865 
     70 H70        14.7471  -29.5097  -42.5844 H         1 UNK         0.0865 
     71 H71        16.8529  -30.5856  -43.5466 H         1 UNK         0.1346 
     72 H72        20.4696  -29.4272  -41.5617 H         1 UNK         0.1412 
     73 H73        16.9616  -26.9800  -41.2239 H         1 UNK         0.1426 
     74 H74        18.9710  -26.2487  -40.1667 H         1 UNK         0.0716 
     75 H75        19.8336  -27.6129  -39.4992 H         1 UNK         0.0716 
     76 H76        21.2093  -24.6225  -42.6525 H         1 UNK         0.0695 
     77 H77        19.5727  -24.9726  -42.1762 H         1 UNK         0.0695 
     78 H78        19.6216  -27.0203  -43.7055 H         1 UNK         0.0983 
     79 H79        18.6451  -25.8549  -45.2511 H         1 UNK         0.3095 
     80 H80        18.4756  -22.4228  -45.9861 H         1 UNK         0.0454 
     81 H81        18.1000  -23.3105  -48.2815 H         1 UNK         0.0851 
     82 H82        19.8037  -23.3178  -47.8549 H         1 UNK         0.0851 
     83 H83        18.8993  -24.8202  -47.8445 H         1 UNK         0.0851 
     84 H84        16.5142  -23.2163  -45.4267 H         1 UNK         0.2976 
     85 H85        21.3251  -28.4172  -43.6298 H         1 UNK         0.3116 
     86 H86        23.3162  -28.2887  -45.7475 H         1 UNK         0.0646 
     87 H87        22.2138  -30.4351  -45.1400 H         1 UNK         0.0847 
     88 H88        23.9427  -30.5420  -44.8714 H         1 UNK         0.0847 
     89 H89        22.8668  -30.3314  -43.5010 H         1 UNK         0.0847 
     90 H90        23.2013  -27.2916  -42.4482 H         1 UNK         0.3040 
     91 H91        24.6144  -26.5452  -40.9168 H         1 UNK         0.1015 
     92 H92        26.5469  -25.9763  -43.2266 H         1 UNK         0.0786 
     93 H93        26.5754  -25.2355  -41.6339 H         1 UNK         0.0786 
     94 H94        25.2311  -24.9189  -42.7179 H         1 UNK         0.0786 
     95 H95        24.5166  -29.2636  -41.0360 H         1 UNK         0.3172 
     96 H96        27.1030  -30.0786  -39.9306 H         1 UNK         0.0595 
     97 H97        25.7056  -31.5798  -42.2295 H         1 UNK         0.0839 
     98 H98        27.0694  -32.1921  -41.3041 H         1 UNK         0.0839 
     99 H99        27.2730  -30.7818  -42.3330 H         1 UNK         0.0839 
    100 H100       26.8538  -31.7933  -38.4704 H         1 UNK         0.2998 
    101 H101       24.4091  -31.9131  -37.0208 H         1 UNK         0.0822 
    102 H102       25.6201  -33.6487  -35.6825 H         1 UNK         0.0787 
    103 H103       26.8950  -33.7108  -36.8911 H         1 UNK         0.0787 
    104 H104       26.6318  -32.2392  -35.9536 H         1 UNK         0.0787 
    105 H105       22.7019  -33.2224  -37.1829 H         1 UNK         0.3055 
    106 H106       21.1706  -34.6075  -37.9967 H         1 UNK         0.1106 
    107 H107       21.7302  -37.0042  -38.1619 H         1 UNK         0.0828 
    108 H108       23.4455  -36.6434  -38.2819 H         1 UNK         0.0828 
    109 H109       22.5707  -36.3090  -36.7880 H         1 UNK         0.0828 
    110 H110       22.5124  -32.8456  -39.9066 H         1 UNK         0.2931 
    111 H111       22.4848  -32.2692  -42.0071 H         1 UNK         0.0412 
    112 H112       24.5662  -34.4044  -40.9356 H         1 UNK         0.3472 
    113 H113       25.3721  -34.8084  -42.4327 H         1 UNK         0.3472 
    114 H114       20.7278  -34.6897  -42.6533 H         1 UNK         0.0970 
    115 H115       21.0667  -33.3913  -43.7537 H         1 UNK         0.0970 
    116 H116       20.4643  -31.0323  -43.5183 H         1 UNK         0.0612 
    117 H117       18.9574  -31.6942  -44.1048 H         1 UNK         0.0612 
@<TRIPOS>BOND
     1    1    2 1    
     2    1   62 1    
     3    1   63 1    
     4    1   64 1    
     5    2    3 2    
     6    2    4 am   BACKBONE|DICT|INTERRES
     7    4    5 1    
     8    4   65 1    
     9    5    6 1    
    10    5   25 1    
    11    5   66 1    
    12    6    7 1    
    13    6   67 1    
    14    6   68 1    
    15    7    8 1    
    16    8    9 1    
    17    8   69 1    
    18    8   70 1    
    19    9   10 ar   
    20    9   14 ar   
    21   10   11 ar   
    22   10   71 1    
    23   11   12 ar   
    24   11   61 1    
    25   12   13 ar   
    26   12   72 1    
    27   13   14 ar   
    28   13   15 1    
    29   14   73 1    
    30   15   16 1    
    31   15   74 1    
    32   15   75 1    
    33   16   17 1    
    34   17   18 1    
    35   17   76 1    
    36   17   77 1    
    37   18   19 1    
    38   18   27 1    
    39   18   78 1    
    40   19   20 am   BACKBONE|DICT|INTERRES
    41   19   79 1    
    42   20   21 2    
    43   20   22 1    
    44   22   23 1    
    45   22   24 1    
    46   22   80 1    
    47   23   81 1    
    48   23   82 1    
    49   23   83 1    
    50   24   25 am   BACKBONE|DICT|INTERRES
    51   24   84 1    
    52   25   26 2    
    53   27   28 2    
    54   27   29 am   BACKBONE|DICT|INTERRES
    55   29   30 1    
    56   29   85 1    
    57   30   31 1    
    58   30   32 1    
    59   30   86 1    
    60   31   87 1    
    61   31   88 1    
    62   31   89 1    
    63   32   33 2    
    64   32   34 am   BACKBONE|DICT|INTERRES
    65   34   35 1    
    66   34   90 1    
    67   35   36 1    
    68   35   37 1    
    69   35   91 1    
    70   36   92 1    
    71   36   93 1    
    72   36   94 1    
    73   37   38 2    
    74   37   39 am   BACKBONE|DICT|INTERRES
    75   39   40 1    
    76   39   95 1    
    77   40   41 1    
    78   40   42 1    
    79   40   96 1    
    80   41   97 1    
    81   41   98 1    
    82   41   99 1    
    83   42   43 2    
    84   42   44 am   BACKBONE|DICT|INTERRES
    85   44   45 1    
    86   44  100 1    
    87   45   46 1    
    88   45   47 1    
    89   45  101 1    
    90   46  102 1    
    91   46  103 1    
    92   46  104 1    
    93   47   48 2    
    94   47   49 am   BACKBONE|DICT|INTERRES
    95   49   50 1    
    96   49  105 1    
    97   50   51 1    
    98   50   52 1    
    99   50  106 1    
   100   51  107 1    
   101   51  108 1    
   102   51  109 1    
   103   52   53 2    
   104   52   54 am   BACKBONE|DICT|INTERRES
   105   54   55 1    
   106   54  110 1    
   107   55   56 1    
   108   55   59 1    
   109   55  111 1    
   110   56   57 am   BACKBONE|DICT|INTERRES
   111   56   58 2    
   112   57  112 1    
   113   57  113 1    
   114   59   60 1    
   115   59  114 1    
   116   59  115 1    
   117   60   61 1    
   118   61  116 1    
   119   61  117 1    
@<TRIPOS>SUBSTRUCTURE
     1 UNK         1 GROUP             0       ****    0 ROOT    
