@<TRIPOS>MOLECULE
3R8
117   119    1
SMALL
USER_CHARGES


@<TRIPOS>ATOM
      1 CA         14.6368  -21.5796  -43.3211 C.3       0 UNK        -0.2013 
      2 C          14.8646  -22.7483  -44.2684 C.2       0 UNK         0.4866 
      3 O          14.8151  -22.5680  -45.4858 O.2       0 UNK        -0.5176 
      4 N          15.1055  -23.9463  -43.7207 N.am      1 UNK        -0.4884 
      5 CA         15.4192  -25.1609  -44.4805 C.3       1 UNK         0.0853 
      6 C6         15.1732  -26.4300  -43.6260 C.3       10 UNK        -0.0849 
      7 S7         14.8083  -27.8926  -44.6531 S.3       10 UNK        -0.2776 
      8 C8         14.9458  -29.2327  -43.4299 C.3       10 UNK         0.0316 
      9 C9         16.3927  -29.6360  -43.1816 C.ar      10 UNK        -0.0863 
     10 C10        17.0258  -30.5342  -44.0458 C.ar      10 UNK        -0.1009 
     11 C11        18.3392  -30.9544  -43.8105 C.ar      10 UNK        -0.0712 
     12 C12        19.0100  -30.4730  -42.6794 C.ar      10 UNK        -0.0894 
     13 C13        18.4040  -29.5442  -41.8282 C.ar      10 UNK        -0.0745 
     14 C14        17.0907  -29.1370  -42.0786 C.ar      10 UNK        -0.0972 
     15 C15        19.1667  -28.9813  -40.6357 C.3       10 UNK         0.0209 
     16 S16        20.7558  -28.2196  -41.1104 S.3       10 UNK        -0.2568 
     17 C17        20.2363  -26.9330  -42.2975 C.3       10 UNK        -0.0983 
     18 CA         20.5074  -27.3414  -43.7697 C.3       3 UNK         0.0876 
     19 N          19.6197  -26.6232  -44.6827 N.am      3 UNK        -0.4424 
     20 C          19.3453  -26.9843  -45.9406 C.2       2 UNK         0.4918 
     21 O          19.7647  -28.0187  -46.4624 O.2       2 UNK        -0.4875 
     22 CA         18.4324  -26.0277  -46.7365 C.3       2 UNK         0.0481 
     23 CB         18.2239  -26.4845  -48.1924 C.3       2 UNK        -0.1831 
     24 N          17.1223  -25.8628  -46.1011 N.am      2 UNK        -0.4498 
     25 C          16.8654  -25.1168  -45.0188 C.2       1 UNK         0.5027 
     26 O          17.7261  -24.4554  -44.4289 O.2       1 UNK        -0.4969 
     27 C          21.9866  -27.1458  -44.1678 C.2       3 UNK         0.5005 
     28 O          22.3329  -26.1448  -44.8038 O.2       3 UNK        -0.5279 
     29 N          22.8307  -28.1039  -43.7693 N.am      4 UNK        -0.4463 
     30 CA         24.2817  -28.0780  -43.9515 C.3       4 UNK         0.0283 
     31 CB         24.7783  -29.5271  -44.1201 C.3       4 UNK        -0.1875 
     32 C          24.9716  -27.3638  -42.7722 C.2       4 UNK         0.4949 
     33 O          24.3182  -26.6827  -41.9795 O.2       4 UNK        -0.5039 
     34 N          26.2938  -27.5508  -42.6602 N.am      5 UNK        -0.4663 
     35 CA         27.1279  -27.0363  -41.5665 C.3       5 UNK         0.0242 
     36 CB         28.6075  -27.1848  -41.9594 C.3       5 UNK        -0.1982 
     37 C          26.8627  -27.7041  -40.2007 C.2       5 UNK         0.5017 
     38 O          27.3151  -27.1794  -39.1822 O.2       5 UNK        -0.5012 
     39 N          26.1474  -28.8349  -40.1979 N.am      6 UNK        -0.4439 
     40 CA         25.6893  -29.5579  -39.0185 C.3       6 UNK         0.0297 
     41 CB         26.5993  -30.7743  -38.7778 C.3       6 UNK        -0.2006 
     42 C          24.2426  -30.0013  -39.2569 C.2       6 UNK         0.4892 
     43 O          23.8606  -30.2519  -40.4046 O.2       6 UNK        -0.5089 
     44 N          23.4865  -30.1424  -38.1590 N.am      7 UNK        -0.4243 
     45 CA         22.0698  -30.5320  -38.1331 C.3       7 UNK         0.0196 
     46 CB         21.5439  -30.4187  -36.6930 C.3       7 UNK        -0.2007 
     47 C          21.7707  -31.9303  -38.7060 C.2       7 UNK         0.5020 
     48 O          20.6248  -32.2053  -39.0600 O.2       7 UNK        -0.5147 
     49 N          22.8021  -32.7791  -38.8105 N.am      8 UNK        -0.4734 
     50 CA         22.7600  -34.0871  -39.4689 C.3       8 UNK         0.0238 
     51 CB         24.0234  -34.8749  -39.0819 C.3       8 UNK        -0.1912 
     52 C          22.6196  -34.0116  -41.0035 C.2       8 UNK         0.5038 
     53 O          22.3663  -35.0461  -41.6220 O.2       8 UNK        -0.5046 
     54 N          22.7882  -32.8160  -41.5902 N.am      9 UNK        -0.4200 
     55 CA         22.7262  -32.5477  -43.0357 C.3       9 UNK         0.0839 
     56 C          23.9680  -33.0588  -43.8304 C.2       9 UNK         0.5513 
     57 N          25.0932  -33.3346  -43.1809 N.am      9 UNK        -0.7519 
     58 O          23.9290  -33.1850  -45.0511 O.2       9 UNK        -0.4960 
     59 C59        21.3637  -32.9607  -43.6701 C.3       10 UNK        -0.0876 
     60 S60        20.7974  -31.7902  -44.9524 S.3       10 UNK        -0.2414 
     61 C61        18.9837  -31.9354  -44.7910 C.3       10 UNK         0.0169 
     62 H62        13.6539  -21.1421  -43.4941 H         1 UNK         0.0903 
     63 H63        14.6931  -21.8839  -42.2761 H         1 UNK         0.0903 
     64 H64        15.3879  -20.8084  -43.4904 H         1 UNK         0.0903 
     65 H65        15.1721  -24.0260  -42.7158 H         1 UNK         0.3096 
     66 H66        14.7432  -25.1821  -45.3392 H         1 UNK         0.1121 
     67 H67        14.3095  -26.2836  -42.9748 H         1 UNK         0.0849 
     68 H68        16.0172  -26.6310  -42.9639 H         1 UNK         0.0849 
     69 H69        14.4604  -28.9358  -42.4987 H         1 UNK         0.0865 
     70 H70        14.3880  -30.0966  -43.7948 H         1 UNK         0.0865 
     71 H71        16.4882  -30.9113  -44.9054 H         1 UNK         0.1346 
     72 H72        20.0205  -30.7882  -42.4651 H         1 UNK         0.1412 
     73 H73        16.6085  -28.4363  -41.4108 H         1 UNK         0.1426 
     74 H74        19.3566  -29.7894  -39.9286 H         1 UNK         0.0716 
     75 H75        18.5689  -28.2398  -40.1034 H         1 UNK         0.0716 
     76 H76        20.7380  -25.9959  -42.0482 H         1 UNK         0.0695 
     77 H77        19.1719  -26.7446  -42.1464 H         1 UNK         0.0695 
     78 H78        20.2757  -28.4010  -43.8900 H         1 UNK         0.0983 
     79 H79        19.2269  -25.7492  -44.3498 H         1 UNK         0.3095 
     80 H80        18.9306  -25.0563  -46.7651 H         1 UNK         0.0454 
     81 H81        17.6263  -25.7656  -48.7530 H         1 UNK         0.0851 
     82 H82        17.7232  -27.4521  -48.2451 H         1 UNK         0.0851 
     83 H83        19.1783  -26.5828  -48.7113 H         1 UNK         0.0851 
     84 H84        16.3741  -26.4301  -46.4752 H         1 UNK         0.2976 
     85 H85        22.4714  -28.8266  -43.1612 H         1 UNK         0.3116 
     86 H86        24.5224  -27.5258  -44.8623 H         1 UNK         0.0646 
     87 H87        24.7275  -30.0827  -43.1830 H         1 UNK         0.0847 
     88 H88        24.1874  -30.0647  -44.8624 H         1 UNK         0.0847 
     89 H89        25.8124  -29.5599  -44.4639 H         1 UNK         0.0847 
     90 H90        26.7634  -28.1133  -43.3555 H         1 UNK         0.3040 
     91 H91        26.9096  -25.9726  -41.4471 H         1 UNK         0.1015 
     92 H92        29.2606  -26.7765  -41.1867 H         1 UNK         0.0786 
     93 H93        28.8298  -26.6491  -42.8826 H         1 UNK         0.0786 
     94 H94        28.8849  -28.2303  -42.1004 H         1 UNK         0.0786 
     95 H95        25.7457  -29.1556  -41.0686 H         1 UNK         0.3172 
     96 H96        25.7129  -28.9045  -38.1435 H         1 UNK         0.0595 
     97 H97        26.5841  -31.4639  -39.6230 H         1 UNK         0.0839 
     98 H98        26.2873  -31.3317  -37.8937 H         1 UNK         0.0839 
     99 H99        27.6330  -30.4675  -38.6170 H         1 UNK         0.0839 
    100 H100       23.9035  -29.9333  -37.2628 H         1 UNK         0.2998 
    101 H101       21.5278  -29.8142  -38.7495 H         1 UNK         0.0822 
    102 H102       20.4828  -30.6678  -36.6437 H         1 UNK         0.0787 
    103 H103       21.6529  -29.4045  -36.3082 H         1 UNK         0.0787 
    104 H104       22.0691  -31.0950  -36.0173 H         1 UNK         0.0787 
    105 H105       23.7028  -32.4657  -38.4800 H         1 UNK         0.3055 
    106 H106       21.8872  -34.6280  -39.0961 H         1 UNK         0.1106 
    107 H107       24.0951  -35.0055  -38.0020 H         1 UNK         0.0828 
    108 H108       24.0143  -35.8719  -39.5250 H         1 UNK         0.0828 
    109 H109       24.9318  -34.3763  -39.4222 H         1 UNK         0.0828 
    110 H110       23.0304  -32.0178  -41.0122 H         1 UNK         0.2931 
    111 H111       22.7902  -31.4611  -43.0869 H         1 UNK         0.0412 
    112 H112       25.1471  -33.2279  -42.1813 H         1 UNK         0.3472 
    113 H113       25.8948  -33.6575  -43.6995 H         1 UNK         0.3472 
    114 H114       20.5928  -33.0124  -42.9001 H         1 UNK         0.0970 
    115 H115       21.4121  -33.9653  -44.0945 H         1 UNK         0.0970 
    116 H116       18.5629  -31.7750  -45.7849 H         1 UNK         0.0612 
    117 H117       18.7174  -32.9547  -44.5087 H         1 UNK         0.0612 
@<TRIPOS>BOND
     1    1    2 1    
     2    1   62 1    
     3    1   63 1    
     4    1   64 1    
     5    2    3 2    
     6    2    4 am   BACKBONE|DICT|INTERRES
     7    4    5 1    
     8    4   65 1    
     9    5    6 1    
    10    5   25 1    
    11    5   66 1    
    12    6    7 1    
    13    6   67 1    
    14    6   68 1    
    15    7    8 1    
    16    8    9 1    
    17    8   69 1    
    18    8   70 1    
    19    9   10 ar   
    20    9   14 ar   
    21   10   11 ar   
    22   10   71 1    
    23   11   12 ar   
    24   11   61 1    
    25   12   13 ar   
    26   12   72 1    
    27   13   14 ar   
    28   13   15 1    
    29   14   73 1    
    30   15   16 1    
    31   15   74 1    
    32   15   75 1    
    33   16   17 1    
    34   17   18 1    
    35   17   76 1    
    36   17   77 1    
    37   18   19 1    
    38   18   27 1    
    39   18   78 1    
    40   19   20 am   BACKBONE|DICT|INTERRES
    41   19   79 1    
    42   20   21 2    
    43   20   22 1    
    44   22   23 1    
    45   22   24 1    
    46   22   80 1    
    47   23   81 1    
    48   23   82 1    
    49   23   83 1    
    50   24   25 am   BACKBONE|DICT|INTERRES
    51   24   84 1    
    52   25   26 2    
    53   27   28 2    
    54   27   29 am   BACKBONE|DICT|INTERRES
    55   29   30 1    
    56   29   85 1    
    57   30   31 1    
    58   30   32 1    
    59   30   86 1    
    60   31   87 1    
    61   31   88 1    
    62   31   89 1    
    63   32   33 2    
    64   32   34 am   BACKBONE|DICT|INTERRES
    65   34   35 1    
    66   34   90 1    
    67   35   36 1    
    68   35   37 1    
    69   35   91 1    
    70   36   92 1    
    71   36   93 1    
    72   36   94 1    
    73   37   38 2    
    74   37   39 am   BACKBONE|DICT|INTERRES
    75   39   40 1    
    76   39   95 1    
    77   40   41 1    
    78   40   42 1    
    79   40   96 1    
    80   41   97 1    
    81   41   98 1    
    82   41   99 1    
    83   42   43 2    
    84   42   44 am   BACKBONE|DICT|INTERRES
    85   44   45 1    
    86   44  100 1    
    87   45   46 1    
    88   45   47 1    
    89   45  101 1    
    90   46  102 1    
    91   46  103 1    
    92   46  104 1    
    93   47   48 2    
    94   47   49 am   BACKBONE|DICT|INTERRES
    95   49   50 1    
    96   49  105 1    
    97   50   51 1    
    98   50   52 1    
    99   50  106 1    
   100   51  107 1    
   101   51  108 1    
   102   51  109 1    
   103   52   53 2    
   104   52   54 am   BACKBONE|DICT|INTERRES
   105   54   55 1    
   106   54  110 1    
   107   55   56 1    
   108   55   59 1    
   109   55  111 1    
   110   56   57 am   BACKBONE|DICT|INTERRES
   111   56   58 2    
   112   57  112 1    
   113   57  113 1    
   114   59   60 1    
   115   59  114 1    
   116   59  115 1    
   117   60   61 1    
   118   61  116 1    
   119   61  117 1    
@<TRIPOS>SUBSTRUCTURE
     1 UNK         1 GROUP             0       ****    0 ROOT    
