@<TRIPOS>MOLECULE
3R8
117   119    1
SMALL
USER_CHARGES


@<TRIPOS>ATOM
      1 CA         16.2329  -24.1962  -47.8500 C.3       0 UNK        -0.2013 
      2 C          17.0779  -25.0843  -46.9500 C.2       0 UNK         0.4866 
      3 O          18.0817  -25.6370  -47.4000 O.2       0 UNK        -0.5176 
      4 N          16.6966  -25.2119  -45.6730 N.am      1 UNK        -0.4884 
      5 CA         17.3331  -26.0599  -44.6527 C.3       1 UNK         0.0853 
      6 C6         16.3358  -26.4139  -43.5150 C.3       10 UNK        -0.0849 
      7 S7         14.9639  -27.4551  -44.1270 S.3       10 UNK        -0.2776 
      8 C8         15.0163  -28.9021  -43.0071 C.3       10 UNK         0.0316 
      9 C9         16.3817  -29.5815  -42.9153 C.ar      10 UNK        -0.0863 
     10 C10        16.8727  -29.9849  -41.6695 C.ar      10 UNK        -0.1009 
     11 C11        18.1311  -30.5836  -41.5454 C.ar      10 UNK        -0.0712 
     12 C12        18.9138  -30.7529  -42.6962 C.ar      10 UNK        -0.0894 
     13 C13        18.4160  -30.4020  -43.9537 C.ar      10 UNK        -0.0745 
     14 C14        17.1490  -29.8236  -44.0577 C.ar      10 UNK        -0.0972 
     15 C15        19.2224  -30.6753  -45.2120 C.3       10 UNK         0.0209 
     16 S16        19.9582  -29.1535  -45.8803 S.3       10 UNK        -0.2568 
     17 C17        21.6861  -29.2321  -45.2810 C.3       10 UNK        -0.0983 
     18 CA         22.1059  -28.0753  -44.3337 C.3       3 UNK         0.0876 
     19 N          21.5145  -26.7994  -44.7361 N.am      3 UNK        -0.4424 
     20 C          21.7966  -25.5865  -44.2475 C.2       2 UNK         0.4918 
     21 O          22.6885  -25.3675  -43.4285 O.2       2 UNK        -0.4875 
     22 CA         20.8627  -24.4475  -44.6991 C.3       2 UNK         0.0481 
     23 CB         21.4427  -23.7279  -45.9257 C.3       2 UNK        -0.1831 
     24 N          19.5041  -24.9198  -45.0042 N.am      2 UNK        -0.4498 
     25 C          18.6627  -25.4726  -44.1175 C.2       1 UNK         0.5027 
     26 O          18.9365  -25.5626  -42.9210 O.2       1 UNK        -0.4969 
     27 C          21.8934  -28.4304  -42.8456 C.2       3 UNK         0.5005 
     28 O          22.6685  -29.2324  -42.3227 O.2       3 UNK        -0.5279 
     29 N          20.9147  -27.8087  -42.1666 N.am      4 UNK        -0.4463 
     30 CA         20.7099  -27.9453  -40.7220 C.3       4 UNK         0.0283 
     31 CB         19.3562  -27.3407  -40.3193 C.3       4 UNK        -0.1875 
     32 C          21.8396  -27.3090  -39.8972 C.2       4 UNK         0.4949 
     33 O          22.1821  -27.8411  -38.8424 O.2       4 UNK        -0.5039 
     34 N          22.4240  -26.2089  -40.3977 N.am      5 UNK        -0.4663 
     35 CA         23.5705  -25.5364  -39.7762 C.3       5 UNK         0.0242 
     36 CB         23.7182  -24.1210  -40.3564 C.3       5 UNK        -0.1982 
     37 C          24.8743  -26.3344  -39.9449 C.2       5 UNK         0.5017 
     38 O          25.7297  -26.2936  -39.0607 O.2       5 UNK        -0.5012 
     39 N          24.9838  -27.0677  -41.0613 N.am      6 UNK        -0.4439 
     40 CA         26.0656  -28.0158  -41.3398 C.3       6 UNK         0.0297 
     41 CB         26.1445  -28.2477  -42.8584 C.3       6 UNK        -0.2006 
     42 C          25.8921  -29.3607  -40.6065 C.2       6 UNK         0.4892 
     43 O          26.8507  -30.1313  -40.5476 O.2       6 UNK        -0.5089 
     44 N          24.6786  -29.6249  -40.0955 N.am      7 UNK        -0.4243 
     45 CA         24.2024  -30.8788  -39.5006 C.3       7 UNK         0.0196 
     46 CB         24.9510  -31.1957  -38.1890 C.3       7 UNK        -0.2007 
     47 C          24.2113  -32.0495  -40.5038 C.2       7 UNK         0.5020 
     48 O          24.4396  -33.1965  -40.1169 O.2       7 UNK        -0.5147 
     49 N          23.9399  -31.7467  -41.7796 N.am      8 UNK        -0.4734 
     50 CA         23.8949  -32.6993  -42.8905 C.3       8 UNK         0.0238 
     51 CB         24.5195  -32.0370  -44.1328 C.3       8 UNK        -0.1912 
     52 C          22.4509  -33.1784  -43.1227 C.2       8 UNK         0.5038 
     53 O          21.9508  -33.1268  -44.2471 O.2       8 UNK        -0.5046 
     54 N          21.7982  -33.5996  -42.0345 N.am      9 UNK        -0.4200 
     55 CA         20.3738  -33.9617  -41.9748 C.3       9 UNK         0.0839 
     56 C          20.0688  -35.4394  -42.3518 C.2       9 UNK         0.5513 
     57 N          21.0614  -36.2747  -42.6342 N.am      9 UNK        -0.7519 
     58 O          18.9067  -35.8343  -42.3968 O.2       9 UNK        -0.4960 
     59 C59        19.7484  -33.5822  -40.6026 C.3       10 UNK        -0.0876 
     60 S60        20.1776  -31.8952  -40.0325 S.3       10 UNK        -0.2414 
     61 C61        18.5843  -31.0087  -40.1451 C.3       10 UNK         0.0169 
     62 H62        16.8349  -23.3759  -48.2402 H         1 UNK         0.0903 
     63 H63        15.8534  -24.7719  -48.6938 H         1 UNK         0.0903 
     64 H64        15.3811  -23.7704  -47.3200 H         1 UNK         0.0903 
     65 H65        15.8723  -24.7181  -45.3603 H         1 UNK         0.3096 
     66 H66        17.6179  -26.9986  -45.1340 H         1 UNK         0.1121 
     67 H67        15.9225  -25.5078  -43.0688 H         1 UNK         0.0849 
     68 H68        16.8365  -26.9417  -42.7020 H         1 UNK         0.0849 
     69 H69        14.6867  -28.5766  -42.0192 H         1 UNK         0.0865 
     70 H70        14.2841  -29.6355  -43.3473 H         1 UNK         0.0865 
     71 H71        16.2729  -29.8271  -40.7832 H         1 UNK         0.1346 
     72 H72        19.9079  -31.1682  -42.6293 H         1 UNK         0.1412 
     73 H73        16.7676  -29.5467  -45.0312 H         1 UNK         0.1426 
     74 H74        18.5618  -31.0985  -45.9700 H         1 UNK         0.0716 
     75 H75        19.9870  -31.4317  -45.0326 H         1 UNK         0.0716 
     76 H76        22.3180  -29.1987  -46.1697 H         1 UNK         0.0695 
     77 H77        21.8848  -30.2069  -44.8332 H         1 UNK         0.0695 
     78 H78        23.1858  -27.9525  -44.4398 H         1 UNK         0.0983 
     79 H79        20.7596  -26.8792  -45.4030 H         1 UNK         0.3095 
     80 H80        20.7941  -23.7299  -43.8791 H         1 UNK         0.0454 
     81 H81        20.8301  -22.8722  -46.2097 H         1 UNK         0.0851 
     82 H82        21.5137  -24.3912  -46.7887 H         1 UNK         0.0851 
     83 H83        22.4459  -23.3522  -45.7191 H         1 UNK         0.0851 
     84 H84        19.2154  -24.9259  -45.9785 H         1 UNK         0.2976 
     85 H85        20.3140  -27.1482  -42.6461 H         1 UNK         0.3116 
     86 H86        20.6924  -29.0110  -40.4918 H         1 UNK         0.0646 
     87 H87        18.5435  -27.7367  -40.9269 H         1 UNK         0.0847 
     88 H88        19.3506  -26.2551  -40.4213 H         1 UNK         0.0847 
     89 H89        19.1256  -27.5674  -39.2778 H         1 UNK         0.0847 
     90 H90        22.1084  -25.8449  -41.2884 H         1 UNK         0.3040 
     91 H91        23.3762  -25.4463  -38.7048 H         1 UNK         0.1015 
     92 H92        24.5262  -23.5811  -39.8607 H         1 UNK         0.0786 
     93 H93        22.8076  -23.5377  -40.2188 H         1 UNK         0.0786 
     94 H94        23.9478  -24.1396  -41.4222 H         1 UNK         0.0786 
     95 H95        24.2318  -27.0185  -41.7340 H         1 UNK         0.3172 
     96 H96        27.0099  -27.5769  -41.0108 H         1 UNK         0.0595 
     97 H97        25.2477  -28.7359  -43.2408 H         1 UNK         0.0839 
     98 H98        26.9908  -28.8887  -43.1094 H         1 UNK         0.0839 
     99 H99        26.2776  -27.3110  -43.4000 H         1 UNK         0.0839 
    100 H100       23.9628  -28.9241  -40.2313 H         1 UNK         0.2998 
    101 H101       23.1541  -30.7099  -39.2484 H         1 UNK         0.0822 
    102 H102       24.9211  -30.3497  -37.5023 H         1 UNK         0.0787 
    103 H103       24.4969  -32.0445  -37.6763 H         1 UNK         0.0787 
    104 H104       25.9967  -31.4472  -38.3685 H         1 UNK         0.0787 
    105 H105       23.6451  -30.7944  -41.9912 H         1 UNK         0.3055 
    106 H106       24.4905  -33.5830  -42.6505 H         1 UNK         0.1106 
    107 H107       23.9853  -31.1326  -44.4217 H         1 UNK         0.0828 
    108 H108       24.5090  -32.7139  -44.9881 H         1 UNK         0.0828 
    109 H109       25.5589  -31.7632  -43.9508 H         1 UNK         0.0828 
    110 H110       22.2954  -33.6108  -41.1550 H         1 UNK         0.2931 
    111 H111       19.8529  -33.3804  -42.7352 H         1 UNK         0.0412 
    112 H112       20.8503  -37.2292  -42.8812 H         1 UNK         0.3472 
    113 H113       22.0177  -35.9594  -42.6058 H         1 UNK         0.3472 
    114 H114       18.6624  -33.6841  -40.6444 H         1 UNK         0.0970 
    115 H115       20.0834  -34.2795  -39.8325 H         1 UNK         0.0970 
    116 H116       17.8098  -31.6262  -39.6881 H         1 UNK         0.0612 
    117 H117       18.6601  -30.1149  -39.5256 H         1 UNK         0.0612 
@<TRIPOS>BOND
     1    1    2 1    
     2    1   62 1    
     3    1   63 1    
     4    1   64 1    
     5    2    3 2    
     6    2    4 am   BACKBONE|DICT|INTERRES
     7    4    5 1    
     8    4   65 1    
     9    5    6 1    
    10    5   25 1    
    11    5   66 1    
    12    6    7 1    
    13    6   67 1    
    14    6   68 1    
    15    7    8 1    
    16    8    9 1    
    17    8   69 1    
    18    8   70 1    
    19    9   10 ar   
    20    9   14 ar   
    21   10   11 ar   
    22   10   71 1    
    23   11   12 ar   
    24   11   61 1    
    25   12   13 ar   
    26   12   72 1    
    27   13   14 ar   
    28   13   15 1    
    29   14   73 1    
    30   15   16 1    
    31   15   74 1    
    32   15   75 1    
    33   16   17 1    
    34   17   18 1    
    35   17   76 1    
    36   17   77 1    
    37   18   19 1    
    38   18   27 1    
    39   18   78 1    
    40   19   20 am   BACKBONE|DICT|INTERRES
    41   19   79 1    
    42   20   21 2    
    43   20   22 1    
    44   22   23 1    
    45   22   24 1    
    46   22   80 1    
    47   23   81 1    
    48   23   82 1    
    49   23   83 1    
    50   24   25 am   BACKBONE|DICT|INTERRES
    51   24   84 1    
    52   25   26 2    
    53   27   28 2    
    54   27   29 am   BACKBONE|DICT|INTERRES
    55   29   30 1    
    56   29   85 1    
    57   30   31 1    
    58   30   32 1    
    59   30   86 1    
    60   31   87 1    
    61   31   88 1    
    62   31   89 1    
    63   32   33 2    
    64   32   34 am   BACKBONE|DICT|INTERRES
    65   34   35 1    
    66   34   90 1    
    67   35   36 1    
    68   35   37 1    
    69   35   91 1    
    70   36   92 1    
    71   36   93 1    
    72   36   94 1    
    73   37   38 2    
    74   37   39 am   BACKBONE|DICT|INTERRES
    75   39   40 1    
    76   39   95 1    
    77   40   41 1    
    78   40   42 1    
    79   40   96 1    
    80   41   97 1    
    81   41   98 1    
    82   41   99 1    
    83   42   43 2    
    84   42   44 am   BACKBONE|DICT|INTERRES
    85   44   45 1    
    86   44  100 1    
    87   45   46 1    
    88   45   47 1    
    89   45  101 1    
    90   46  102 1    
    91   46  103 1    
    92   46  104 1    
    93   47   48 2    
    94   47   49 am   BACKBONE|DICT|INTERRES
    95   49   50 1    
    96   49  105 1    
    97   50   51 1    
    98   50   52 1    
    99   50  106 1    
   100   51  107 1    
   101   51  108 1    
   102   51  109 1    
   103   52   53 2    
   104   52   54 am   BACKBONE|DICT|INTERRES
   105   54   55 1    
   106   54  110 1    
   107   55   56 1    
   108   55   59 1    
   109   55  111 1    
   110   56   57 am   BACKBONE|DICT|INTERRES
   111   56   58 2    
   112   57  112 1    
   113   57  113 1    
   114   59   60 1    
   115   59  114 1    
   116   59  115 1    
   117   60   61 1    
   118   61  116 1    
   119   61  117 1    
@<TRIPOS>SUBSTRUCTURE
     1 UNK         1 GROUP             0       ****    0 ROOT    
