@<TRIPOS>MOLECULE
3R8
117   119    1
SMALL
USER_CHARGES


@<TRIPOS>ATOM
      1 CA         16.4980  -29.2207  -41.9526 C.3       0 UNK        -0.2013 
      2 C          16.9278  -28.2071  -43.0010 C.2       0 UNK         0.4866 
      3 O          18.0860  -27.7926  -43.0153 O.2       0 UNK        -0.5176 
      4 N          15.9853  -27.7733  -43.8522 N.am      1 UNK        -0.4884 
      5 CA         16.1693  -26.8992  -45.0293 C.3       1 UNK         0.0853 
      6 C6         17.0298  -27.5629  -46.1437 C.3       10 UNK        -0.0849 
      7 S7         16.3854  -29.1884  -46.6721 S.3       10 UNK        -0.2776 
      8 C8         17.8957  -30.0142  -47.2808 C.3       10 UNK         0.0316 
      9 C9         18.9358  -30.2304  -46.1875 C.ar      10 UNK        -0.0863 
     10 C10        18.6279  -31.0039  -45.0637 C.ar      10 UNK        -0.1009 
     11 C11        19.5678  -31.1907  -44.0454 C.ar      10 UNK        -0.0712 
     12 C12        20.8334  -30.6084  -44.1716 C.ar      10 UNK        -0.0894 
     13 C13        21.1556  -29.8290  -45.2869 C.ar      10 UNK        -0.0745 
     14 C14        20.2059  -29.6541  -46.2982 C.ar      10 UNK        -0.0972 
     15 C15        22.5205  -29.1540  -45.3786 C.3       10 UNK         0.0209 
     16 S16        22.4411  -27.3284  -45.3070 S.3       10 UNK        -0.2568 
     17 C17        21.1416  -27.0331  -44.0632 C.3       10 UNK        -0.0983 
     18 CA         20.9550  -25.5335  -43.7281 C.3       3 UNK         0.0876 
     19 N          19.5848  -25.2618  -43.2968 N.am      3 UNK        -0.4424 
     20 C          19.0310  -24.0443  -43.1932 C.2       2 UNK         0.4918 
     21 O          19.6475  -22.9966  -43.3959 O.2       2 UNK        -0.4875 
     22 CA         17.5256  -23.9967  -42.8413 C.3       2 UNK         0.0481 
     23 CB         16.8609  -22.6543  -43.2127 C.3       2 UNK        -0.1831 
     24 N          16.7828  -25.1304  -43.4083 N.am      2 UNK        -0.4498 
     25 C          16.6962  -25.4786  -44.7033 C.2       1 UNK         0.5027 
     26 O          17.0437  -24.7408  -45.6272 O.2       1 UNK        -0.4969 
     27 C          21.9733  -25.0572  -42.6764 C.2       3 UNK         0.5005 
     28 O          21.9109  -25.4999  -41.5270 O.2       3 UNK        -0.5279 
     29 N          22.9016  -24.1840  -43.0901 N.am      4 UNK        -0.4463 
     30 CA         23.9900  -23.6819  -42.2466 C.3       4 UNK         0.0283 
     31 CB         24.5831  -22.4114  -42.8768 C.3       4 UNK        -0.1875 
     32 C          25.0902  -24.7315  -42.0146 C.2       4 UNK         0.4949 
     33 O          25.7153  -24.7262  -40.9542 O.2       4 UNK        -0.5039 
     34 N          25.3087  -25.6066  -43.0068 N.am      5 UNK        -0.4663 
     35 CA         26.2907  -26.6919  -42.9487 C.3       5 UNK         0.0242 
     36 CB         26.5960  -27.1736  -44.3768 C.3       5 UNK        -0.1982 
     37 C          25.8284  -27.8699  -42.0749 C.2       5 UNK         0.5017 
     38 O          26.6690  -28.5049  -41.4364 O.2       5 UNK        -0.5012 
     39 N          24.5107  -28.1292  -42.0758 N.am      6 UNK        -0.4439 
     40 CA         23.8116  -29.2572  -41.4444 C.3       6 UNK         0.0297 
     41 CB         23.9763  -29.2162  -39.9095 C.3       6 UNK        -0.2006 
     42 C          24.2038  -30.6264  -42.0423 C.2       6 UNK         0.4892 
     43 O          24.9917  -30.7002  -42.9882 O.2       6 UNK        -0.5089 
     44 N          23.6038  -31.6928  -41.5062 N.am      7 UNK        -0.4243 
     45 CA         23.8318  -33.0801  -41.9043 C.3       7 UNK         0.0196 
     46 CB         23.1326  -33.3890  -43.2494 C.3       7 UNK        -0.2007 
     47 C          23.3887  -33.9672  -40.7339 C.2       7 UNK         0.5020 
     48 O          23.8394  -33.7409  -39.6104 O.2       7 UNK        -0.5147 
     49 N          22.4980  -34.9347  -40.9910 N.am      8 UNK        -0.4734 
     50 CA         21.8477  -35.7522  -39.9600 C.3       8 UNK         0.0238 
     51 CB         21.1621  -36.9573  -40.6242 C.3       8 UNK        -0.1912 
     52 C          20.8370  -34.9541  -39.1137 C.2       8 UNK         0.5038 
     53 O          20.5955  -35.3177  -37.9619 O.2       8 UNK        -0.5046 
     54 N          20.2706  -33.8907  -39.6991 N.am      9 UNK        -0.4200 
     55 CA         19.4099  -32.9124  -39.0264 C.3       9 UNK         0.0839 
     56 C          20.1944  -32.0017  -38.0404 C.2       9 UNK         0.5513 
     57 N          19.5424  -31.5265  -36.9880 N.am      9 UNK        -0.7519 
     58 O          21.3690  -31.6959  -38.2369 O.2       9 UNK        -0.4960 
     59 C59        18.5779  -32.0937  -40.0489 C.3       10 UNK        -0.0876 
     60 S60        19.5683  -31.1426  -41.2587 S.3       10 UNK        -0.2414 
     61 C61        19.2047  -32.0183  -42.8165 C.3       10 UNK         0.0169 
     62 H62        15.4227  -29.1932  -41.7784 H         1 UNK         0.0903 
     63 H63        16.7676  -30.2247  -42.2766 H         1 UNK         0.0903 
     64 H64        17.0000  -29.0225  -41.0058 H         1 UNK         0.0903 
     65 H65        15.0483  -28.1399  -43.7529 H         1 UNK         0.3096 
     66 H66        15.1709  -26.7410  -45.4404 H         1 UNK         0.1121 
     67 H67        17.0736  -26.9299  -47.0319 H         1 UNK         0.0849 
     68 H68        18.0594  -27.6721  -45.7999 H         1 UNK         0.0849 
     69 H69        17.6220  -30.9824  -47.7023 H         1 UNK         0.0865 
     70 H70        18.3100  -29.4297  -48.1038 H         1 UNK         0.0865 
     71 H71        17.6444  -31.4454  -44.9780 H         1 UNK         0.1346 
     72 H72        21.5597  -30.7451  -43.3845 H         1 UNK         0.1412 
     73 H73        20.4526  -29.0456  -47.1577 H         1 UNK         0.1426 
     74 H74        23.0060  -29.4497  -46.3094 H         1 UNK         0.0716 
     75 H75        23.1719  -29.4999  -44.5773 H         1 UNK         0.0716 
     76 H76        21.3238  -27.6362  -43.1714 H         1 UNK         0.0695 
     77 H77        20.2173  -27.4177  -44.4951 H         1 UNK         0.0695 
     78 H78        21.1016  -24.9588  -44.6456 H         1 UNK         0.0983 
     79 H79        19.0145  -26.0821  -43.1054 H         1 UNK         0.3095 
     80 H80        17.4650  -24.1058  -41.7577 H         1 UNK         0.0454 
     81 H81        17.3273  -21.8268  -42.6769 H         1 UNK         0.0851 
     82 H82        16.9469  -22.4383  -44.2779 H         1 UNK         0.0851 
     83 H83        15.8023  -22.6502  -42.9536 H         1 UNK         0.0851 
     84 H84        16.4698  -25.8218  -42.7408 H         1 UNK         0.2976 
     85 H85        22.8711  -23.8489  -44.0430 H         1 UNK         0.3116 
     86 H86        23.5758  -23.4142  -41.2719 H         1 UNK         0.0646 
     87 H87        25.3794  -22.0032  -42.2528 H         1 UNK         0.0847 
     88 H88        23.8284  -21.6322  -42.9852 H         1 UNK         0.0847 
     89 H89        25.0101  -22.6066  -43.8614 H         1 UNK         0.0847 
     90 H90        24.7593  -25.5274  -43.8504 H         1 UNK         0.3040 
     91 H91        27.2146  -26.3019  -42.5149 H         1 UNK         0.1015 
     92 H92        26.9930  -26.3665  -44.9927 H         1 UNK         0.0786 
     93 H93        25.7069  -27.5689  -44.8703 H         1 UNK         0.0786 
     94 H94        27.3419  -27.9698  -44.3671 H         1 UNK         0.0786 
     95 H95        23.9335  -27.5303  -42.6474 H         1 UNK         0.3172 
     96 H96        22.7538  -29.1124  -41.6694 H         1 UNK         0.0595 
     97 H97        23.7570  -28.2235  -39.5157 H         1 UNK         0.0839 
     98 H98        24.9880  -29.4818  -39.6013 H         1 UNK         0.0839 
     99 H99        23.2947  -29.9098  -39.4160 H         1 UNK         0.0839 
    100 H100       23.0091  -31.5700  -40.6958 H         1 UNK         0.2998 
    101 H101       24.9057  -33.2371  -42.0261 H         1 UNK         0.0822 
    102 H102       23.4996  -32.7405  -44.0450 H         1 UNK         0.0787 
    103 H103       23.3257  -34.4131  -43.5712 H         1 UNK         0.0787 
    104 H104       22.0538  -33.2510  -43.1910 H         1 UNK         0.0787 
    105 H105       22.1984  -35.0755  -41.9455 H         1 UNK         0.3055 
    106 H106       22.6176  -36.1252  -39.2803 H         1 UNK         0.1106 
    107 H107       20.3845  -36.6476  -41.3236 H         1 UNK         0.0828 
    108 H108       21.8792  -37.5725  -41.1681 H         1 UNK         0.0828 
    109 H109       20.6909  -37.5977  -39.8770 H         1 UNK         0.0828 
    110 H110       20.5613  -33.6482  -40.6328 H         1 UNK         0.2931 
    111 H111       18.6976  -33.4852  -38.4286 H         1 UNK         0.0412 
    112 H112       20.0292  -30.9228  -36.3437 H         1 UNK         0.3472 
    113 H113       18.5772  -31.7643  -36.8189 H         1 UNK         0.3472 
    114 H114       17.9254  -31.3925  -39.5254 H         1 UNK         0.0970 
    115 H115       17.9015  -32.7656  -40.5785 H         1 UNK         0.0970 
    116 H116       19.7461  -32.9637  -42.8386 H         1 UNK         0.0612 
    117 H117       18.1434  -32.2692  -42.8407 H         1 UNK         0.0612 
@<TRIPOS>BOND
     1    1    2 1    
     2    1   62 1    
     3    1   63 1    
     4    1   64 1    
     5    2    3 2    
     6    2    4 am   BACKBONE|DICT|INTERRES
     7    4    5 1    
     8    4   65 1    
     9    5    6 1    
    10    5   25 1    
    11    5   66 1    
    12    6    7 1    
    13    6   67 1    
    14    6   68 1    
    15    7    8 1    
    16    8    9 1    
    17    8   69 1    
    18    8   70 1    
    19    9   10 ar   
    20    9   14 ar   
    21   10   11 ar   
    22   10   71 1    
    23   11   12 ar   
    24   11   61 1    
    25   12   13 ar   
    26   12   72 1    
    27   13   14 ar   
    28   13   15 1    
    29   14   73 1    
    30   15   16 1    
    31   15   74 1    
    32   15   75 1    
    33   16   17 1    
    34   17   18 1    
    35   17   76 1    
    36   17   77 1    
    37   18   19 1    
    38   18   27 1    
    39   18   78 1    
    40   19   20 am   BACKBONE|DICT|INTERRES
    41   19   79 1    
    42   20   21 2    
    43   20   22 1    
    44   22   23 1    
    45   22   24 1    
    46   22   80 1    
    47   23   81 1    
    48   23   82 1    
    49   23   83 1    
    50   24   25 am   BACKBONE|DICT|INTERRES
    51   24   84 1    
    52   25   26 2    
    53   27   28 2    
    54   27   29 am   BACKBONE|DICT|INTERRES
    55   29   30 1    
    56   29   85 1    
    57   30   31 1    
    58   30   32 1    
    59   30   86 1    
    60   31   87 1    
    61   31   88 1    
    62   31   89 1    
    63   32   33 2    
    64   32   34 am   BACKBONE|DICT|INTERRES
    65   34   35 1    
    66   34   90 1    
    67   35   36 1    
    68   35   37 1    
    69   35   91 1    
    70   36   92 1    
    71   36   93 1    
    72   36   94 1    
    73   37   38 2    
    74   37   39 am   BACKBONE|DICT|INTERRES
    75   39   40 1    
    76   39   95 1    
    77   40   41 1    
    78   40   42 1    
    79   40   96 1    
    80   41   97 1    
    81   41   98 1    
    82   41   99 1    
    83   42   43 2    
    84   42   44 am   BACKBONE|DICT|INTERRES
    85   44   45 1    
    86   44  100 1    
    87   45   46 1    
    88   45   47 1    
    89   45  101 1    
    90   46  102 1    
    91   46  103 1    
    92   46  104 1    
    93   47   48 2    
    94   47   49 am   BACKBONE|DICT|INTERRES
    95   49   50 1    
    96   49  105 1    
    97   50   51 1    
    98   50   52 1    
    99   50  106 1    
   100   51  107 1    
   101   51  108 1    
   102   51  109 1    
   103   52   53 2    
   104   52   54 am   BACKBONE|DICT|INTERRES
   105   54   55 1    
   106   54  110 1    
   107   55   56 1    
   108   55   59 1    
   109   55  111 1    
   110   56   57 am   BACKBONE|DICT|INTERRES
   111   56   58 2    
   112   57  112 1    
   113   57  113 1    
   114   59   60 1    
   115   59  114 1    
   116   59  115 1    
   117   60   61 1    
   118   61  116 1    
   119   61  117 1    
@<TRIPOS>SUBSTRUCTURE
     1 UNK         1 GROUP             0       ****    0 ROOT    
