@<TRIPOS>MOLECULE
3R8
117   119    1
SMALL
USER_CHARGES


@<TRIPOS>ATOM
      1 CA         15.4317  -24.6421  -47.9668 C.3       0 UNK        -0.2013 
      2 C          16.4333  -25.2517  -46.9983 C.2       0 UNK         0.4866 
      3 O          17.5899  -24.8316  -46.9656 O.2       0 UNK        -0.5176 
      4 N          15.9970  -26.2242  -46.1881 N.am      1 UNK        -0.4884 
      5 CA         16.8045  -26.9931  -45.2259 C.3       1 UNK         0.0853 
      6 C6         16.1513  -28.3697  -44.9279 C.3       10 UNK        -0.0849 
      7 S7         16.1163  -29.4144  -46.4294 S.3       10 UNK        -0.2776 
      8 C8         17.1623  -30.8444  -45.9800 C.3       10 UNK         0.0316 
      9 C9         18.4851  -30.4551  -45.3287 C.ar      10 UNK        -0.0863 
     10 C10        18.7971  -30.9345  -44.0529 C.ar      10 UNK        -0.1009 
     11 C11        19.9865  -30.5615  -43.4202 C.ar      10 UNK        -0.0712 
     12 C12        20.8740  -29.7099  -44.0838 C.ar      10 UNK        -0.0894 
     13 C13        20.5834  -29.2319  -45.3651 C.ar      10 UNK        -0.0745 
     14 C14        19.3915  -29.6178  -45.9870 C.ar      10 UNK        -0.0972 
     15 C15        21.5597  -28.3143  -46.0881 C.3       10 UNK         0.0209 
     16 S16        20.9126  -26.6158  -46.2099 S.3       10 UNK        -0.2568 
     17 C17        22.0954  -25.6260  -45.2174 C.3       10 UNK        -0.0983 
     18 CA         21.6293  -25.3175  -43.7635 C.3       3 UNK         0.0876 
     19 N          20.2175  -24.9165  -43.7518 N.am      3 UNK        -0.4424 
     20 C          19.5312  -24.2694  -42.8021 C.2       2 UNK         0.4918 
     21 O          20.0269  -23.8951  -41.7398 O.2       2 UNK        -0.4875 
     22 CA         18.0344  -24.0273  -43.0714 C.3       2 UNK         0.0481 
     23 CB         17.7947  -22.5676  -43.4869 C.3       2 UNK        -0.1831 
     24 N          17.5108  -24.9134  -44.1148 N.am      2 UNK        -0.4498 
     25 C          17.1471  -26.1917  -43.9445 C.2       1 UNK         0.5027 
     26 O          17.0938  -26.7315  -42.8386 O.2       1 UNK        -0.4969 
     27 C          21.9745  -26.4496  -42.7631 C.2       3 UNK         0.5005 
     28 O          22.8391  -27.2774  -43.0508 O.2       3 UNK        -0.5279 
     29 N          21.3215  -26.4682  -41.5932 N.am      4 UNK        -0.4463 
     30 CA         21.3447  -27.5381  -40.5892 C.3       4 UNK         0.0283 
     31 CB         20.3890  -27.1689  -39.4438 C.3       4 UNK        -0.1875 
     32 C          22.7300  -27.9223  -40.0357 C.2       4 UNK         0.4949 
     33 O          22.8788  -29.0257  -39.5159 O.2       4 UNK        -0.5039 
     34 N          23.7195  -27.0300  -40.1566 N.am      5 UNK        -0.4663 
     35 CA         25.1121  -27.2943  -39.7898 C.3       5 UNK         0.0242 
     36 CB         25.8253  -25.9515  -39.5600 C.3       5 UNK        -0.1982 
     37 C          25.8768  -28.1334  -40.8334 C.2       5 UNK         0.5017 
     38 O          26.9252  -28.6831  -40.4934 O.2       5 UNK        -0.5012 
     39 N          25.3819  -28.1942  -42.0790 N.am      6 UNK        -0.4439 
     40 CA         26.0818  -28.7991  -43.2167 C.3       6 UNK         0.0297 
     41 CB         25.7534  -27.9957  -44.4867 C.3       6 UNK        -0.2006 
     42 C          25.7700  -30.2914  -43.4297 C.2       6 UNK         0.4892 
     43 O          26.4190  -30.9086  -44.2762 O.2       6 UNK        -0.5089 
     44 N          24.8033  -30.8546  -42.6944 N.am      7 UNK        -0.4243 
     45 CA         24.4019  -32.2593  -42.7866 C.3       7 UNK         0.0196 
     46 CB         23.4148  -32.4561  -43.9541 C.3       7 UNK        -0.2007 
     47 C          23.8169  -32.7261  -41.4480 C.2       7 UNK         0.5020 
     48 O          23.6988  -31.9316  -40.5135 O.2       7 UNK        -0.5147 
     49 N          23.4688  -34.0161  -41.3710 N.am      8 UNK        -0.4734 
     50 CA         22.9868  -34.7074  -40.1703 C.3       8 UNK         0.0238 
     51 CB         23.1942  -36.2226  -40.3599 C.3       8 UNK        -0.1912 
     52 C          21.5331  -34.3544  -39.7870 C.2       8 UNK         0.5038 
     53 O          20.6791  -35.2413  -39.7277 O.2       8 UNK        -0.5046 
     54 N          21.2826  -33.0690  -39.5150 N.am      9 UNK        -0.4200 
     55 CA         20.0280  -32.5555  -38.9385 C.3       9 UNK         0.0839 
     56 C          19.8693  -32.8525  -37.4170 C.2       9 UNK         0.5513 
     57 N          20.9063  -33.2746  -36.7023 N.am      9 UNK        -0.7519 
     58 O          18.7768  -32.7034  -36.8759 O.2       9 UNK        -0.4960 
     59 C59        19.8519  -31.0406  -39.2363 C.3       10 UNK        -0.0876 
     60 S60        19.0220  -30.7050  -40.8231 S.3       10 UNK        -0.2414 
     61 C61        20.3246  -31.0940  -42.0327 C.3       10 UNK         0.0169 
     62 H62        15.3218  -23.5758  -47.7713 H         1 UNK         0.0903 
     63 H63        15.7796  -24.7666  -48.9919 H         1 UNK         0.0903 
     64 H64        14.4491  -25.1060  -47.8837 H         1 UNK         0.0903 
     65 H65        15.0299  -26.5101  -46.2513 H         1 UNK         0.3096 
     66 H66        17.7718  -27.1923  -45.6935 H         1 UNK         0.1121 
     67 H67        15.1309  -28.2395  -44.5638 H         1 UNK         0.0849 
     68 H68        16.6816  -28.8982  -44.1343 H         1 UNK         0.0849 
     69 H69        16.5860  -31.4956  -45.3208 H         1 UNK         0.0865 
     70 H70        17.3676  -31.4280  -46.8783 H         1 UNK         0.0865 
     71 H71        18.1079  -31.5910  -43.5394 H         1 UNK         0.1346 
     72 H72        21.8025  -29.4344  -43.6063 H         1 UNK         0.1412 
     73 H73        19.1587  -29.2479  -46.9765 H         1 UNK         0.1426 
     74 H74        21.7325  -28.6968  -47.0948 H         1 UNK         0.0716 
     75 H75        22.5300  -28.3191  -45.5927 H         1 UNK         0.0716 
     76 H76        22.2065  -24.6775  -45.7449 H         1 UNK         0.0695 
     77 H77        23.0907  -26.0722  -45.2516 H         1 UNK         0.0695 
     78 H78        22.2065  -24.4573  -43.4180 H         1 UNK         0.0983 
     79 H79        19.7090  -25.2027  -44.5763 H         1 UNK         0.3095 
     80 H80        17.4929  -24.2127  -42.1416 H         1 UNK         0.0454 
     81 H81        16.7331  -22.3654  -43.6290 H         1 UNK         0.0851 
     82 H82        18.3107  -22.3207  -44.4157 H         1 UNK         0.0851 
     83 H83        18.1545  -21.8793  -42.7207 H         1 UNK         0.0851 
     84 H84        17.5372  -24.5711  -45.0722 H         1 UNK         0.2976 
     85 H85        20.6930  -25.6916  -41.4130 H         1 UNK         0.3116 
     86 H86        20.9500  -28.4261  -41.0817 H         1 UNK         0.0646 
     87 H87        19.3686  -27.0405  -39.8059 H         1 UNK         0.0847 
     88 H88        20.6913  -26.2452  -38.9489 H         1 UNK         0.0847 
     89 H89        20.3629  -27.9523  -38.6853 H         1 UNK         0.0847 
     90 H90        23.5159  -26.1449  -40.5976 H         1 UNK         0.3040 
     91 H91        25.1282  -27.8535  -38.8513 H         1 UNK         0.1015 
     92 H92        26.8600  -26.1064  -39.2502 H         1 UNK         0.0786 
     93 H93        25.3382  -25.3724  -38.7751 H         1 UNK         0.0786 
     94 H94        25.8441  -25.3435  -40.4654 H         1 UNK         0.0786 
     95 H95        24.4810  -27.7640  -42.2834 H         1 UNK         0.3172 
     96 H96        27.1588  -28.7208  -43.0533 H         1 UNK         0.0595 
     97 H97        24.7019  -28.0830  -44.7564 H         1 UNK         0.0839 
     98 H98        26.3357  -28.3523  -45.3374 H         1 UNK         0.0839 
     99 H99        25.9811  -26.9372  -44.3603 H         1 UNK         0.0839 
    100 H100       24.3624  -30.3263  -41.9512 H         1 UNK         0.2998 
    101 H101       25.2916  -32.8662  -42.9688 H         1 UNK         0.0822 
    102 H102       23.8248  -32.0821  -44.8924 H         1 UNK         0.0787 
    103 H103       23.1825  -33.5101  -44.1079 H         1 UNK         0.0787 
    104 H104       22.4742  -31.9407  -43.7752 H         1 UNK         0.0787 
    105 H105       23.5694  -34.5879  -42.1977 H         1 UNK         0.3055 
    106 H106       23.6116  -34.3977  -39.3292 H         1 UNK         0.1106 
    107 H107       22.6081  -36.6101  -41.1942 H         1 UNK         0.0828 
    108 H108       22.8947  -36.7741  -39.4674 H         1 UNK         0.0828 
    109 H109       24.2418  -36.4610  -40.5453 H         1 UNK         0.0828 
    110 H110       22.0447  -32.4065  -39.6293 H         1 UNK         0.2931 
    111 H111       19.2041  -33.0897  -39.4159 H         1 UNK         0.0412 
    112 H112       20.7828  -33.4658  -35.7201 H         1 UNK         0.3472 
    113 H113       21.8115  -33.3903  -37.1279 H         1 UNK         0.3472 
    114 H114       19.2337  -30.5550  -38.4784 H         1 UNK         0.0970 
    115 H115       20.8085  -30.5202  -39.1999 H         1 UNK         0.0970 
    116 H116       21.2756  -30.6891  -41.6835 H         1 UNK         0.0612 
    117 H117       20.4485  -32.1760  -42.0891 H         1 UNK         0.0612 
@<TRIPOS>BOND
     1    1    2 1    
     2    1   62 1    
     3    1   63 1    
     4    1   64 1    
     5    2    3 2    
     6    2    4 am   BACKBONE|DICT|INTERRES
     7    4    5 1    
     8    4   65 1    
     9    5    6 1    
    10    5   25 1    
    11    5   66 1    
    12    6    7 1    
    13    6   67 1    
    14    6   68 1    
    15    7    8 1    
    16    8    9 1    
    17    8   69 1    
    18    8   70 1    
    19    9   10 ar   
    20    9   14 ar   
    21   10   11 ar   
    22   10   71 1    
    23   11   12 ar   
    24   11   61 1    
    25   12   13 ar   
    26   12   72 1    
    27   13   14 ar   
    28   13   15 1    
    29   14   73 1    
    30   15   16 1    
    31   15   74 1    
    32   15   75 1    
    33   16   17 1    
    34   17   18 1    
    35   17   76 1    
    36   17   77 1    
    37   18   19 1    
    38   18   27 1    
    39   18   78 1    
    40   19   20 am   BACKBONE|DICT|INTERRES
    41   19   79 1    
    42   20   21 2    
    43   20   22 1    
    44   22   23 1    
    45   22   24 1    
    46   22   80 1    
    47   23   81 1    
    48   23   82 1    
    49   23   83 1    
    50   24   25 am   BACKBONE|DICT|INTERRES
    51   24   84 1    
    52   25   26 2    
    53   27   28 2    
    54   27   29 am   BACKBONE|DICT|INTERRES
    55   29   30 1    
    56   29   85 1    
    57   30   31 1    
    58   30   32 1    
    59   30   86 1    
    60   31   87 1    
    61   31   88 1    
    62   31   89 1    
    63   32   33 2    
    64   32   34 am   BACKBONE|DICT|INTERRES
    65   34   35 1    
    66   34   90 1    
    67   35   36 1    
    68   35   37 1    
    69   35   91 1    
    70   36   92 1    
    71   36   93 1    
    72   36   94 1    
    73   37   38 2    
    74   37   39 am   BACKBONE|DICT|INTERRES
    75   39   40 1    
    76   39   95 1    
    77   40   41 1    
    78   40   42 1    
    79   40   96 1    
    80   41   97 1    
    81   41   98 1    
    82   41   99 1    
    83   42   43 2    
    84   42   44 am   BACKBONE|DICT|INTERRES
    85   44   45 1    
    86   44  100 1    
    87   45   46 1    
    88   45   47 1    
    89   45  101 1    
    90   46  102 1    
    91   46  103 1    
    92   46  104 1    
    93   47   48 2    
    94   47   49 am   BACKBONE|DICT|INTERRES
    95   49   50 1    
    96   49  105 1    
    97   50   51 1    
    98   50   52 1    
    99   50  106 1    
   100   51  107 1    
   101   51  108 1    
   102   51  109 1    
   103   52   53 2    
   104   52   54 am   BACKBONE|DICT|INTERRES
   105   54   55 1    
   106   54  110 1    
   107   55   56 1    
   108   55   59 1    
   109   55  111 1    
   110   56   57 am   BACKBONE|DICT|INTERRES
   111   56   58 2    
   112   57  112 1    
   113   57  113 1    
   114   59   60 1    
   115   59  114 1    
   116   59  115 1    
   117   60   61 1    
   118   61  116 1    
   119   61  117 1    
@<TRIPOS>SUBSTRUCTURE
     1 UNK         1 GROUP             0       ****    0 ROOT    
