@<TRIPOS>MOLECULE
3R8
117   119    1
SMALL
USER_CHARGES


@<TRIPOS>ATOM
      1 CA         14.7868  -23.4852  -41.9061 C.3       0 UNK        -0.2013 
      2 C          15.4594  -23.5571  -43.2689 C.2       0 UNK         0.4866 
      3 O          15.5285  -22.5485  -43.9725 O.2       0 UNK        -0.5176 
      4 N          15.9469  -24.7438  -43.6504 N.am      1 UNK        -0.4884 
      5 CA         16.6725  -24.9874  -44.9014 C.3       1 UNK         0.0853 
      6 C6         16.8454  -26.5037  -45.1817 C.3       10 UNK        -0.0849 
      7 S7         15.2871  -27.4508  -45.2497 S.3       10 UNK        -0.2776 
      8 C8         15.4967  -28.6664  -43.8940 C.3       10 UNK         0.0316 
      9 C9         16.7808  -29.4981  -43.9606 C.ar      10 UNK        -0.0863 
     10 C10        17.4403  -29.8358  -42.7732 C.ar      10 UNK        -0.1009 
     11 C11        18.6329  -30.5656  -42.7997 C.ar      10 UNK        -0.0712 
     12 C12        19.1668  -30.9656  -44.0262 C.ar      10 UNK        -0.0894 
     13 C13        18.5227  -30.6383  -45.2212 C.ar      10 UNK        -0.0745 
     14 C14        17.3194  -29.9253  -45.1810 C.ar      10 UNK        -0.0972 
     15 C15        19.1400  -31.0358  -46.5564 C.3       10 UNK         0.0209 
     16 S16        20.6760  -30.1168  -46.9250 S.3       10 UNK        -0.2568 
     17 C17        20.1008  -28.3816  -46.9222 C.3       10 UNK        -0.0983 
     18 CA         20.9371  -27.3697  -46.0866 C.3       3 UNK         0.0876 
     19 N          20.3757  -26.0347  -46.2940 N.am      3 UNK        -0.4424 
     20 C          20.9414  -24.8519  -46.0245 C.2       2 UNK         0.4918 
     21 O          22.0939  -24.7122  -45.6181 O.2       2 UNK        -0.4875 
     22 CA         20.0270  -23.6203  -46.2100 C.3       2 UNK         0.0481 
     23 CB         20.2433  -22.9925  -47.5957 C.3       2 UNK        -0.1831 
     24 N          18.6014  -23.9484  -46.0340 N.am      2 UNK        -0.4498 
     25 C          18.0718  -24.3377  -44.8641 C.2       1 UNK         0.5027 
     26 O          18.7015  -24.3153  -43.8053 O.2       1 UNK        -0.4969 
     27 C          21.0576  -27.7524  -44.5860 C.2       3 UNK         0.5005 
     28 O          21.7678  -28.7098  -44.2763 O.2       3 UNK        -0.5279 
     29 N          20.4004  -27.0181  -43.6684 N.am      4 UNK        -0.4463 
     30 CA         20.3174  -27.3270  -42.2330 C.3       4 UNK         0.0283 
     31 CB         19.0971  -26.6237  -41.6109 C.3       4 UNK        -0.1875 
     32 C          21.6153  -27.0729  -41.4389 C.2       4 UNK         0.4949 
     33 O          21.6062  -26.3390  -40.4491 O.2       4 UNK        -0.5039 
     34 N          22.7073  -27.7042  -41.8748 N.am      5 UNK        -0.4663 
     35 CA         23.9850  -27.7705  -41.1729 C.3       5 UNK         0.0242 
     36 CB         25.1013  -27.9738  -42.2109 C.3       5 UNK        -0.1982 
     37 C          23.9840  -28.9320  -40.1677 C.2       5 UNK         0.5017 
     38 O          23.3207  -29.9476  -40.3983 O.2       5 UNK        -0.5012 
     39 N          24.8025  -28.8051  -39.1145 N.am      6 UNK        -0.4439 
     40 CA         25.0380  -29.8505  -38.1084 C.3       6 UNK         0.0297 
     41 CB         25.8564  -29.2630  -36.9472 C.3       6 UNK        -0.2006 
     42 C          25.7280  -31.1097  -38.6711 C.2       6 UNK         0.4892 
     43 O          25.5994  -32.1846  -38.0865 O.2       6 UNK        -0.5089 
     44 N          26.4354  -30.9594  -39.7995 N.am      7 UNK        -0.4243 
     45 CA         27.0115  -32.0602  -40.5715 C.3       7 UNK         0.0196 
     46 CB         28.1185  -31.5053  -41.4829 C.3       7 UNK        -0.2007 
     47 C          25.9623  -32.8187  -41.4061 C.2       7 UNK         0.5020 
     48 O          26.1976  -33.9799  -41.7410 O.2       7 UNK        -0.5147 
     49 N          24.8440  -32.1607  -41.7463 N.am      8 UNK        -0.4734 
     50 CA         23.7601  -32.7383  -42.5424 C.3       8 UNK         0.0238 
     51 CB         23.1108  -31.6463  -43.4075 C.3       8 UNK        -0.1912 
     52 C          22.7201  -33.4339  -41.6531 C.2       8 UNK         0.5038 
     53 O          22.3168  -34.5522  -41.9755 O.2       8 UNK        -0.5046 
     54 N          22.3281  -32.7796  -40.5518 N.am      9 UNK        -0.4200 
     55 CA         21.4256  -33.3250  -39.5299 C.3       9 UNK         0.0839 
     56 C          22.1858  -33.3847  -38.1847 C.2       9 UNK         0.5513 
     57 N          22.6048  -34.5669  -37.7550 N.am      9 UNK        -0.7519 
     58 O          22.3702  -32.3711  -37.5157 O.2       9 UNK        -0.4960 
     59 C59        20.1139  -32.5070  -39.3973 C.3       10 UNK        -0.0876 
     60 S60        19.0878  -32.5426  -40.9062 S.3       10 UNK        -0.2414 
     61 C61        19.3858  -30.8595  -41.5115 C.3       10 UNK         0.0169 
     62 H62        15.3055  -22.7687  -41.2698 H         1 UNK         0.0903 
     63 H63        13.7527  -23.1592  -42.0145 H         1 UNK         0.0903 
     64 H64        14.7867  -24.4502  -41.3994 H         1 UNK         0.0903 
     65 H65        15.8658  -25.5368  -43.0320 H         1 UNK         0.3096 
     66 H66        16.1003  -24.5387  -45.7168 H         1 UNK         0.1121 
     67 H67        17.3340  -26.6529  -46.1455 H         1 UNK         0.0849 
     68 H68        17.5075  -26.9538  -44.4408 H         1 UNK         0.0849 
     69 H69        15.4477  -28.1271  -42.9469 H         1 UNK         0.0865 
     70 H70        14.6440  -29.3464  -43.9019 H         1 UNK         0.0865 
     71 H71        17.0364  -29.5132  -41.8232 H         1 UNK         0.1346 
     72 H72        20.1013  -31.5068  -44.0532 H         1 UNK         0.1412 
     73 H73        16.8174  -29.6760  -46.1056 H         1 UNK         0.1426 
     74 H74        18.4316  -30.8819  -47.3719 H         1 UNK         0.0716 
     75 H75        19.3633  -32.1035  -46.5435 H         1 UNK         0.0716 
     76 H76        19.0593  -28.3465  -46.6056 H         1 UNK         0.0695 
     77 H77        20.0925  -28.0624  -47.9658 H         1 UNK         0.0695 
     78 H78        21.9547  -27.3635  -46.4832 H         1 UNK         0.0983 
     79 H79        19.4403  -26.0154  -46.6677 H         1 UNK         0.3095 
     80 H80        20.3049  -22.8826  -45.4541 H         1 UNK         0.0454 
     81 H81        21.2893  -22.7178  -47.7393 H         1 UNK         0.0851 
     82 H82        19.6534  -22.0837  -47.7164 H         1 UNK         0.0851 
     83 H83        19.9741  -23.6780  -48.4001 H         1 UNK         0.0851 
     84 H84        18.0312  -23.9671  -46.8686 H         1 UNK         0.2976 
     85 H85        19.9142  -26.1828  -43.9664 H         1 UNK         0.3116 
     86 H86        20.1357  -28.3947  -42.1536 H         1 UNK         0.0646 
     87 H87        18.1804  -26.8506  -42.1534 H         1 UNK         0.0847 
     88 H88        19.2223  -25.5411  -41.5901 H         1 UNK         0.0847 
     89 H89        18.9467  -26.9487  -40.5807 H         1 UNK         0.0847 
     90 H90        22.5983  -28.2890  -42.7019 H         1 UNK         0.3040 
     91 H91        24.1568  -26.8320  -40.6407 H         1 UNK         0.1015 
     92 H92        26.0837  -27.9955  -41.7376 H         1 UNK         0.0786 
     93 H93        25.1139  -27.1625  -42.9393 H         1 UNK         0.0786 
     94 H94        24.9792  -28.9095  -42.7590 H         1 UNK         0.0786 
     95 H95        25.3207  -27.9449  -39.0005 H         1 UNK         0.3172 
     96 H96        24.0663  -30.1604  -37.7183 H         1 UNK         0.0595 
     97 H97        26.8371  -28.9170  -37.2764 H         1 UNK         0.0839 
     98 H98        26.0198  -30.0105  -36.1694 H         1 UNK         0.0839 
     99 H99        25.3406  -28.4232  -36.4813 H         1 UNK         0.0839 
    100 H100       26.5219  -30.0330  -40.1896 H         1 UNK         0.2998 
    101 H101       27.4633  -32.7747  -39.8796 H         1 UNK         0.0822 
    102 H102       28.9029  -31.0178  -40.9035 H         1 UNK         0.0787 
    103 H103       28.5906  -32.3060  -42.0543 H         1 UNK         0.0787 
    104 H104       27.7284  -30.7808  -42.1991 H         1 UNK         0.0787 
    105 H105       24.6822  -31.2345  -41.3719 H         1 UNK         0.3055 
    106 H106       24.1725  -33.4903  -43.2196 H         1 UNK         0.1106 
    107 H107       23.8455  -31.1477  -44.0396 H         1 UNK         0.0828 
    108 H108       22.3587  -32.0745  -44.0701 H         1 UNK         0.0828 
    109 H109       22.6189  -30.8822  -42.8060 H         1 UNK         0.0828 
    110 H110       22.7170  -31.8623  -40.3561 H         1 UNK         0.2931 
    111 H111       21.1381  -34.3458  -39.7906 H         1 UNK         0.0412 
    112 H112       22.4540  -35.4024  -38.2992 H         1 UNK         0.3472 
    113 H113       23.1000  -34.6206  -36.8784 H         1 UNK         0.3472 
    114 H114       19.5051  -32.9086  -38.5851 H         1 UNK         0.0970 
    115 H115       20.3333  -31.4741  -39.1194 H         1 UNK         0.0970 
    116 H116       20.4565  -30.7246  -41.6723 H         1 UNK         0.0612 
    117 H117       19.0977  -30.1456  -40.7381 H         1 UNK         0.0612 
@<TRIPOS>BOND
     1    1    2 1    
     2    1   62 1    
     3    1   63 1    
     4    1   64 1    
     5    2    3 2    
     6    2    4 am   BACKBONE|DICT|INTERRES
     7    4    5 1    
     8    4   65 1    
     9    5    6 1    
    10    5   25 1    
    11    5   66 1    
    12    6    7 1    
    13    6   67 1    
    14    6   68 1    
    15    7    8 1    
    16    8    9 1    
    17    8   69 1    
    18    8   70 1    
    19    9   10 ar   
    20    9   14 ar   
    21   10   11 ar   
    22   10   71 1    
    23   11   12 ar   
    24   11   61 1    
    25   12   13 ar   
    26   12   72 1    
    27   13   14 ar   
    28   13   15 1    
    29   14   73 1    
    30   15   16 1    
    31   15   74 1    
    32   15   75 1    
    33   16   17 1    
    34   17   18 1    
    35   17   76 1    
    36   17   77 1    
    37   18   19 1    
    38   18   27 1    
    39   18   78 1    
    40   19   20 am   BACKBONE|DICT|INTERRES
    41   19   79 1    
    42   20   21 2    
    43   20   22 1    
    44   22   23 1    
    45   22   24 1    
    46   22   80 1    
    47   23   81 1    
    48   23   82 1    
    49   23   83 1    
    50   24   25 am   BACKBONE|DICT|INTERRES
    51   24   84 1    
    52   25   26 2    
    53   27   28 2    
    54   27   29 am   BACKBONE|DICT|INTERRES
    55   29   30 1    
    56   29   85 1    
    57   30   31 1    
    58   30   32 1    
    59   30   86 1    
    60   31   87 1    
    61   31   88 1    
    62   31   89 1    
    63   32   33 2    
    64   32   34 am   BACKBONE|DICT|INTERRES
    65   34   35 1    
    66   34   90 1    
    67   35   36 1    
    68   35   37 1    
    69   35   91 1    
    70   36   92 1    
    71   36   93 1    
    72   36   94 1    
    73   37   38 2    
    74   37   39 am   BACKBONE|DICT|INTERRES
    75   39   40 1    
    76   39   95 1    
    77   40   41 1    
    78   40   42 1    
    79   40   96 1    
    80   41   97 1    
    81   41   98 1    
    82   41   99 1    
    83   42   43 2    
    84   42   44 am   BACKBONE|DICT|INTERRES
    85   44   45 1    
    86   44  100 1    
    87   45   46 1    
    88   45   47 1    
    89   45  101 1    
    90   46  102 1    
    91   46  103 1    
    92   46  104 1    
    93   47   48 2    
    94   47   49 am   BACKBONE|DICT|INTERRES
    95   49   50 1    
    96   49  105 1    
    97   50   51 1    
    98   50   52 1    
    99   50  106 1    
   100   51  107 1    
   101   51  108 1    
   102   51  109 1    
   103   52   53 2    
   104   52   54 am   BACKBONE|DICT|INTERRES
   105   54   55 1    
   106   54  110 1    
   107   55   56 1    
   108   55   59 1    
   109   55  111 1    
   110   56   57 am   BACKBONE|DICT|INTERRES
   111   56   58 2    
   112   57  112 1    
   113   57  113 1    
   114   59   60 1    
   115   59  114 1    
   116   59  115 1    
   117   60   61 1    
   118   61  116 1    
   119   61  117 1    
@<TRIPOS>SUBSTRUCTURE
     1 UNK         1 GROUP             0       ****    0 ROOT    
