@<TRIPOS>MOLECULE
3R8
117   119    1
SMALL
USER_CHARGES


@<TRIPOS>ATOM
      1 CA         12.8311  -23.8903  -45.0382 C.3       0 UNK        -0.2013 
      2 C          13.5569  -25.1265  -45.5485 C.2       0 UNK         0.4866 
      3 O          13.1175  -25.7333  -46.5256 O.2       0 UNK        -0.5176 
      4 N          14.6642  -25.5004  -44.8981 N.am      1 UNK        -0.4884 
      5 CA         15.5158  -26.6331  -45.2752 C.3       1 UNK         0.0853 
      6 C6         14.8953  -28.0136  -44.9221 C.3       10 UNK        -0.0849 
      7 S7         15.5554  -29.3572  -45.9663 S.3       10 UNK        -0.2776 
      8 C8         16.1980  -30.5404  -44.7351 C.3       10 UNK         0.0316 
      9 C9         17.5192  -30.1061  -44.1092 C.ar      10 UNK        -0.0863 
     10 C10        17.6199  -29.9235  -42.7266 C.ar      10 UNK        -0.1009 
     11 C11        18.8469  -29.5973  -42.1410 C.ar      10 UNK        -0.0712 
     12 C12        19.9742  -29.4354  -42.9535 C.ar      10 UNK        -0.0894 
     13 C13        19.8912  -29.6048  -44.3404 C.ar      10 UNK        -0.0745 
     14 C14        18.6585  -29.9474  -44.9057 C.ar      10 UNK        -0.0972 
     15 C15        21.1177  -29.5023  -45.2481 C.3       10 UNK         0.0209 
     16 S16        22.4768  -28.4548  -44.6156 S.3       10 UNK        -0.2568 
     17 C17        22.0241  -26.7868  -45.2102 C.3       10 UNK        -0.0983 
     18 CA         21.5602  -25.7891  -44.1172 C.3       3 UNK         0.0876 
     19 N          20.2719  -26.1808  -43.5561 N.am      3 UNK        -0.4424 
     20 C          19.3491  -25.3359  -43.0856 C.2       2 UNK         0.4918 
     21 O          19.4439  -24.1074  -43.1265 O.2       2 UNK        -0.4875 
     22 CA         18.0989  -25.9892  -42.4711 C.3       2 UNK         0.0481 
     23 CB         17.6744  -25.2726  -41.1775 C.3       2 UNK        -0.1831 
     24 N          16.9388  -26.0947  -43.3635 N.am      2 UNK        -0.4498 
     25 C          16.9119  -26.4627  -44.6575 C.2       1 UNK         0.5027 
     26 O          17.9020  -26.6581  -45.3611 O.2       1 UNK        -0.4969 
     27 C          22.6023  -25.5886  -42.9960 C.2       3 UNK         0.5005 
     28 O          22.4318  -26.0957  -41.8829 O.2       3 UNK        -0.5279 
     29 N          23.6850  -24.8701  -43.3216 N.am      4 UNK        -0.4463 
     30 CA         24.7743  -24.5265  -42.4006 C.3       4 UNK         0.0283 
     31 CB         25.6178  -23.4034  -43.0277 C.3       4 UNK        -0.1875 
     32 C          25.6756  -25.7093  -41.9930 C.2       4 UNK         0.4949 
     33 O          26.4686  -25.5548  -41.0639 O.2       4 UNK        -0.5039 
     34 N          25.5669  -26.8520  -42.6879 N.am      5 UNK        -0.4663 
     35 CA         26.3748  -28.0520  -42.4450 C.3       5 UNK         0.0242 
     36 CB         26.1833  -29.0427  -43.6043 C.3       5 UNK        -0.1982 
     37 C          26.0829  -28.7408  -41.1006 C.2       5 UNK         0.5017 
     38 O          26.9874  -29.3686  -40.5494 O.2       5 UNK        -0.5012 
     39 N          24.8373  -28.6281  -40.6111 N.am      6 UNK        -0.4439 
     40 CA         24.2869  -29.1291  -39.3381 C.3       6 UNK         0.0297 
     41 CB         24.9844  -28.4641  -38.1363 C.3       6 UNK        -0.2006 
     42 C          24.2559  -30.6630  -39.1692 C.2       6 UNK         0.4892 
     43 O          23.2781  -31.1895  -38.6408 O.2       6 UNK        -0.5089 
     44 N          25.3004  -31.3643  -39.6217 N.am      7 UNK        -0.4243 
     45 CA         25.3933  -32.8271  -39.6314 C.3       7 UNK         0.0196 
     46 CB         26.8709  -33.2288  -39.7672 C.3       7 UNK        -0.2007 
     47 C          24.5569  -33.4737  -40.7511 C.2       7 UNK         0.5020 
     48 O          24.2661  -34.6671  -40.6765 O.2       7 UNK        -0.5147 
     49 N          24.2007  -32.6856  -41.7738 N.am      8 UNK        -0.4734 
     50 CA         23.4632  -33.1223  -42.9614 C.3       8 UNK         0.0238 
     51 CB         23.7769  -32.1508  -44.1106 C.3       8 UNK        -0.1912 
     52 C          21.9410  -33.2432  -42.7557 C.2       8 UNK         0.5038 
     53 O          21.2681  -33.7428  -43.6588 O.2       8 UNK        -0.5046 
     54 N          21.4203  -32.7747  -41.6123 N.am      9 UNK        -0.4200 
     55 CA         19.9911  -32.8074  -41.2628 C.3       9 UNK         0.0839 
     56 C          19.4115  -34.2467  -41.1913 C.2       9 UNK         0.5513 
     57 N          18.1797  -34.4426  -41.6416 N.am      9 UNK        -0.7519 
     58 O          20.0467  -35.1700  -40.6861 O.2       9 UNK        -0.4960 
     59 C59        19.6909  -32.0515  -39.9410 C.3       10 UNK        -0.0876 
     60 S60        20.3240  -30.3414  -39.8958 S.3       10 UNK        -0.2414 
     61 C61        18.9503  -29.4020  -40.6325 C.3       10 UNK         0.0169 
     62 H62        11.8070  -24.1432  -44.7651 H         1 UNK         0.0903 
     63 H63        13.3183  -23.4612  -44.1629 H         1 UNK         0.0903 
     64 H64        12.7975  -23.1274  -45.8156 H         1 UNK         0.0903 
     65 H65        15.0139  -24.9198  -44.1483 H         1 UNK         0.3096 
     66 H66        15.6475  -26.5794  -46.3590 H         1 UNK         0.1121 
     67 H67        15.0200  -28.2506  -43.8637 H         1 UNK         0.0849 
     68 H68        13.8177  -27.9968  -45.0900 H         1 UNK         0.0849 
     69 H69        15.4379  -30.7146  -43.9718 H         1 UNK         0.0865 
     70 H70        16.3518  -31.5011  -45.2283 H         1 UNK         0.0865 
     71 H71        16.7460  -30.0515  -42.1026 H         1 UNK         0.1346 
     72 H72        20.9216  -29.1980  -42.4901 H         1 UNK         0.1412 
     73 H73        18.5831  -30.1033  -45.9734 H         1 UNK         0.1426 
     74 H74        20.8270  -29.1526  -46.2397 H         1 UNK         0.0716 
     75 H75        21.5074  -30.5109  -45.3876 H         1 UNK         0.0716 
     76 H76        22.8925  -26.3827  -45.7329 H         1 UNK         0.0695 
     77 H77        21.2490  -26.8721  -45.9736 H         1 UNK         0.0695 
     78 H78        21.4289  -24.8200  -44.6045 H         1 UNK         0.0983 
     79 H79        20.1027  -27.1754  -43.5021 H         1 UNK         0.3095 
     80 H80        18.3649  -27.0057  -42.1967 H         1 UNK         0.0454 
     81 H81        18.5162  -25.1776  -40.4901 H         1 UNK         0.0851 
     82 H82        17.3023  -24.2668  -41.3766 H         1 UNK         0.0851 
     83 H83        16.8936  -25.8235  -40.6530 H         1 UNK         0.0851 
     84 H84        16.0477  -25.9909  -42.9022 H         1 UNK         0.2976 
     85 H85        23.7627  -24.5051  -44.2608 H         1 UNK         0.3116 
     86 H86        24.3260  -24.1395  -41.4829 H         1 UNK         0.0646 
     87 H87        26.4141  -23.0874  -42.3521 H         1 UNK         0.0847 
     88 H88        25.0128  -22.5221  -43.2415 H         1 UNK         0.0847 
     89 H89        26.0896  -23.7232  -43.9576 H         1 UNK         0.0847 
     90 H90        24.8897  -26.8963  -43.4357 H         1 UNK         0.3040 
     91 H91        27.4241  -27.7481  -42.4280 H         1 UNK         0.1015 
     92 H92        26.4561  -28.5951  -44.5601 H         1 UNK         0.0786 
     93 H93        25.1515  -29.3845  -43.6761 H         1 UNK         0.0786 
     94 H94        26.8098  -29.9260  -43.4716 H         1 UNK         0.0786 
     95 H95        24.1851  -28.0919  -41.1696 H         1 UNK         0.3172 
     96 H96        23.2458  -28.8015  -39.3300 H         1 UNK         0.0595 
     97 H97        24.9300  -27.3772  -38.1989 H         1 UNK         0.0839 
     98 H98        26.0363  -28.7433  -38.0688 H         1 UNK         0.0839 
     99 H99        24.5104  -28.7591  -37.1991 H         1 UNK         0.0839 
    100 H100       26.0841  -30.8375  -40.0030 H         1 UNK         0.2998 
    101 H101       25.0187  -33.2078  -38.6786 H         1 UNK         0.0822 
    102 H102       27.4666  -32.8316  -38.9450 H         1 UNK         0.0787 
    103 H103       26.9846  -34.3137  -39.7539 H         1 UNK         0.0787 
    104 H104       27.3034  -32.8658  -40.7006 H         1 UNK         0.0787 
    105 H105       24.4808  -31.7167  -41.7418 H         1 UNK         0.3055 
    106 H106       23.8218  -34.1140  -43.2474 H         1 UNK         0.1106 
    107 H107       23.2796  -32.4561  -45.0323 H         1 UNK         0.0828 
    108 H108       23.4409  -31.1412  -43.8780 H         1 UNK         0.0828 
    109 H109       24.8459  -32.1111  -44.3204 H         1 UNK         0.0828 
    110 H110       22.0402  -32.3868  -40.9167 H         1 UNK         0.2931 
    111 H111       19.4719  -32.2895  -42.0705 H         1 UNK         0.0412 
    112 H112       17.6494  -33.6889  -42.0507 H         1 UNK         0.3472 
    113 H113       17.7781  -35.3659  -41.5874 H         1 UNK         0.3472 
    114 H114       18.6167  -32.0311  -39.7479 H         1 UNK         0.0970 
    115 H115       20.1356  -32.5831  -39.0973 H         1 UNK         0.0970 
    116 H116       18.0191  -29.6734  -40.1331 H         1 UNK         0.0612 
    117 H117       19.1141  -28.3443  -40.4251 H         1 UNK         0.0612 
@<TRIPOS>BOND
     1    1    2 1    
     2    1   62 1    
     3    1   63 1    
     4    1   64 1    
     5    2    3 2    
     6    2    4 am   BACKBONE|DICT|INTERRES
     7    4    5 1    
     8    4   65 1    
     9    5    6 1    
    10    5   25 1    
    11    5   66 1    
    12    6    7 1    
    13    6   67 1    
    14    6   68 1    
    15    7    8 1    
    16    8    9 1    
    17    8   69 1    
    18    8   70 1    
    19    9   10 ar   
    20    9   14 ar   
    21   10   11 ar   
    22   10   71 1    
    23   11   12 ar   
    24   11   61 1    
    25   12   13 ar   
    26   12   72 1    
    27   13   14 ar   
    28   13   15 1    
    29   14   73 1    
    30   15   16 1    
    31   15   74 1    
    32   15   75 1    
    33   16   17 1    
    34   17   18 1    
    35   17   76 1    
    36   17   77 1    
    37   18   19 1    
    38   18   27 1    
    39   18   78 1    
    40   19   20 am   BACKBONE|DICT|INTERRES
    41   19   79 1    
    42   20   21 2    
    43   20   22 1    
    44   22   23 1    
    45   22   24 1    
    46   22   80 1    
    47   23   81 1    
    48   23   82 1    
    49   23   83 1    
    50   24   25 am   BACKBONE|DICT|INTERRES
    51   24   84 1    
    52   25   26 2    
    53   27   28 2    
    54   27   29 am   BACKBONE|DICT|INTERRES
    55   29   30 1    
    56   29   85 1    
    57   30   31 1    
    58   30   32 1    
    59   30   86 1    
    60   31   87 1    
    61   31   88 1    
    62   31   89 1    
    63   32   33 2    
    64   32   34 am   BACKBONE|DICT|INTERRES
    65   34   35 1    
    66   34   90 1    
    67   35   36 1    
    68   35   37 1    
    69   35   91 1    
    70   36   92 1    
    71   36   93 1    
    72   36   94 1    
    73   37   38 2    
    74   37   39 am   BACKBONE|DICT|INTERRES
    75   39   40 1    
    76   39   95 1    
    77   40   41 1    
    78   40   42 1    
    79   40   96 1    
    80   41   97 1    
    81   41   98 1    
    82   41   99 1    
    83   42   43 2    
    84   42   44 am   BACKBONE|DICT|INTERRES
    85   44   45 1    
    86   44  100 1    
    87   45   46 1    
    88   45   47 1    
    89   45  101 1    
    90   46  102 1    
    91   46  103 1    
    92   46  104 1    
    93   47   48 2    
    94   47   49 am   BACKBONE|DICT|INTERRES
    95   49   50 1    
    96   49  105 1    
    97   50   51 1    
    98   50   52 1    
    99   50  106 1    
   100   51  107 1    
   101   51  108 1    
   102   51  109 1    
   103   52   53 2    
   104   52   54 am   BACKBONE|DICT|INTERRES
   105   54   55 1    
   106   54  110 1    
   107   55   56 1    
   108   55   59 1    
   109   55  111 1    
   110   56   57 am   BACKBONE|DICT|INTERRES
   111   56   58 2    
   112   57  112 1    
   113   57  113 1    
   114   59   60 1    
   115   59  114 1    
   116   59  115 1    
   117   60   61 1    
   118   61  116 1    
   119   61  117 1    
@<TRIPOS>SUBSTRUCTURE
     1 UNK         1 GROUP             0       ****    0 ROOT    
