@<TRIPOS>MOLECULE
3R8
117   119    1
SMALL
USER_CHARGES


@<TRIPOS>ATOM
      1 CA         18.5076  -23.1199  -48.0741 C.3       0 UNK        -0.2013 
      2 C          19.0777  -24.5123  -47.8485 C.2       0 UNK         0.4866 
      3 O          20.2872  -24.7074  -47.9753 O.2       0 UNK        -0.5176 
      4 N          18.2154  -25.4834  -47.5254 N.am      1 UNK        -0.4884 
      5 CA         18.5838  -26.8635  -47.1934 C.3       1 UNK         0.0853 
      6 C6         17.3913  -27.8429  -47.3514 C.3       10 UNK        -0.0849 
      7 S7         15.8257  -27.2613  -46.6133 S.3       10 UNK        -0.2776 
      8 C8         14.9760  -28.8400  -46.3050 C.3       10 UNK         0.0316 
      9 C9         15.3964  -29.4500  -44.9771 C.ar      10 UNK        -0.0863 
     10 C10        16.2054  -30.5895  -44.9297 C.ar      10 UNK        -0.1009 
     11 C11        16.5527  -31.1644  -43.7015 C.ar      10 UNK        -0.0712 
     12 C12        16.0766  -30.5879  -42.5170 C.ar      10 UNK        -0.0894 
     13 C13        15.2958  -29.4288  -42.5533 C.ar      10 UNK        -0.0745 
     14 C14        14.9501  -28.8737  -43.7867 C.ar      10 UNK        -0.0972 
     15 C15        14.8257  -28.7585  -41.2690 C.3       10 UNK         0.0209 
     16 S16        16.1944  -28.1946  -40.2017 S.3       10 UNK        -0.2568 
     17 C17        17.3430  -27.3581  -41.3550 C.3       10 UNK        -0.0983 
     18 CA         18.6878  -28.1254  -41.4649 C.3       3 UNK         0.0876 
     19 N          19.3520  -27.9037  -42.7565 N.am      3 UNK        -0.4424 
     20 C          20.3894  -28.6245  -43.2023 C.2       2 UNK         0.4918 
     21 O          20.8585  -29.5776  -42.5820 O.2       2 UNK        -0.4875 
     22 CA         21.0365  -28.1947  -44.5367 C.3       2 UNK         0.0481 
     23 CB         22.1140  -29.1898  -45.0060 C.3       2 UNK        -0.1831 
     24 N          20.1010  -27.9898  -45.6459 N.am      2 UNK        -0.4498 
     25 C          19.2603  -26.9599  -45.8079 C.2       1 UNK         0.5027 
     26 O          19.0350  -26.1152  -44.9356 O.2       1 UNK        -0.4969 
     27 C          19.6146  -27.8106  -40.2667 C.2       3 UNK         0.5005 
     28 O          19.5130  -28.4638  -39.2263 O.2       3 UNK        -0.5279 
     29 N          20.5057  -26.8208  -40.4344 N.am      4 UNK        -0.4463 
     30 CA         21.5265  -26.4412  -39.4581 C.3       4 UNK         0.0283 
     31 CB         22.1880  -25.1250  -39.8977 C.3       4 UNK        -0.1875 
     32 C          22.5836  -27.5448  -39.3116 C.2       4 UNK         0.4949 
     33 O          23.1246  -28.0010  -40.3209 O.2       4 UNK        -0.5039 
     34 N          22.8926  -27.9180  -38.0628 N.am      5 UNK        -0.4663 
     35 CA         23.8257  -28.9950  -37.7021 C.3       5 UNK         0.0242 
     36 CB         23.7606  -29.2273  -36.1838 C.3       5 UNK        -0.1982 
     37 C          25.2818  -28.7679  -38.1490 C.2       5 UNK         0.5017 
     38 O          26.0339  -29.7363  -38.2556 O.2       5 UNK        -0.5012 
     39 N          25.6470  -27.5069  -38.4210 N.am      6 UNK        -0.4439 
     40 CA         26.9250  -27.1147  -39.0199 C.3       6 UNK         0.0297 
     41 CB         27.0735  -25.5867  -38.9411 C.3       6 UNK        -0.2006 
     42 C          27.0854  -27.5967  -40.4752 C.2       6 UNK         0.4892 
     43 O          28.2173  -27.8156  -40.9084 O.2       6 UNK        -0.5089 
     44 N          25.9642  -27.7549  -41.1926 N.am      7 UNK        -0.4243 
     45 CA         25.9076  -28.3227  -42.5387 C.3       7 UNK         0.0196 
     46 CB         24.9258  -27.5058  -43.3964 C.3       7 UNK        -0.2007 
     47 C          25.5016  -29.8030  -42.4665 C.2       7 UNK         0.5020 
     48 O          26.2138  -30.6437  -43.0151 O.2       7 UNK        -0.5147 
     49 N          24.3986  -30.0739  -41.7505 N.am      8 UNK        -0.4734 
     50 CA         23.7517  -31.3629  -41.4725 C.3       8 UNK         0.0238 
     51 CB         24.7120  -32.3317  -40.7548 C.3       8 UNK        -0.1912 
     52 C          23.1026  -32.0306  -42.7008 C.2       8 UNK         0.5038 
     53 O          23.6433  -31.9887  -43.8077 O.2       8 UNK        -0.5046 
     54 N          21.9461  -32.6610  -42.4640 N.am      9 UNK        -0.4200 
     55 CA         21.1630  -33.4094  -43.4575 C.3       9 UNK         0.0839 
     56 C          21.9047  -34.6749  -43.9666 C.2       9 UNK         0.5513 
     57 N          21.7553  -35.0106  -45.2406 N.am      9 UNK        -0.7519 
     58 O          22.5700  -35.3780  -43.2083 O.2       9 UNK        -0.4960 
     59 C59        19.7657  -33.7867  -42.8993 C.3       10 UNK        -0.0876 
     60 S60        18.7777  -32.3153  -42.4626 S.3       10 UNK        -0.2414 
     61 C61        17.4178  -32.4206  -43.6707 C.3       10 UNK         0.0169 
     62 H62        18.7347  -22.7801  -49.0843 H         1 UNK         0.0903 
     63 H63        17.4258  -23.0962  -47.9436 H         1 UNK         0.0903 
     64 H64        18.9495  -22.4155  -47.3698 H         1 UNK         0.0903 
     65 H65        17.2357  -25.2675  -47.4008 H         1 UNK         0.3096 
     66 H66        19.3400  -27.1674  -47.9217 H         1 UNK         0.1121 
     67 H67        17.2024  -28.0017  -48.4143 H         1 UNK         0.0849 
     68 H68        17.6425  -28.8279  -46.9533 H         1 UNK         0.0849 
     69 H69        13.8998  -28.6615  -46.2893 H         1 UNK         0.0865 
     70 H70        15.1548  -29.5291  -47.1320 H         1 UNK         0.0865 
     71 H71        16.5544  -31.0364  -45.8506 H         1 UNK         0.1346 
     72 H72        16.3354  -31.0249  -41.5622 H         1 UNK         0.1412 
     73 H73        14.3374  -27.9830  -43.8255 H         1 UNK         0.1426 
     74 H74        14.2060  -29.4587  -40.7074 H         1 UNK         0.0716 
     75 H75        14.1900  -27.9001  -41.4918 H         1 UNK         0.0716 
     76 H76        17.4950  -26.3291  -41.0234 H         1 UNK         0.0695 
     77 H77        16.8701  -27.2753  -42.3339 H         1 UNK         0.0695 
     78 H78        18.4739  -29.1962  -41.4224 H         1 UNK         0.0983 
     79 H79        19.0219  -27.1370  -43.3365 H         1 UNK         0.3095 
     80 H80        21.5350  -27.2430  -44.3419 H         1 UNK         0.0454 
     81 H81        21.6869  -30.1661  -45.2388 H         1 UNK         0.0851 
     82 H82        22.8668  -29.3496  -44.2350 H         1 UNK         0.0851 
     83 H83        22.6371  -28.8284  -45.8913 H         1 UNK         0.0851 
     84 H84        20.1793  -28.6578  -46.3992 H         1 UNK         0.2976 
     85 H85        20.5421  -26.3620  -41.3325 H         1 UNK         0.3116 
     86 H86        21.0349  -26.2796  -38.4964 H         1 UNK         0.0646 
     87 H87        22.9359  -24.8019  -39.1725 H         1 UNK         0.0847 
     88 H88        21.4563  -24.3215  -39.9839 H         1 UNK         0.0847 
     89 H89        22.6913  -25.2257  -40.8605 H         1 UNK         0.0847 
     90 H90        22.4031  -27.4777  -37.2960 H         1 UNK         0.3040 
     91 H91        23.4835  -29.9037  -38.2026 H         1 UNK         0.1015 
     92 H92        22.7531  -29.4958  -35.8653 H         1 UNK         0.0786 
     93 H93        24.0660  -28.3410  -35.6262 H         1 UNK         0.0786 
     94 H94        24.4197  -30.0437  -35.8841 H         1 UNK         0.0786 
     95 H95        24.9633  -26.7786  -38.2766 H         1 UNK         0.3172 
     96 H96        27.7257  -27.5676  -38.4313 H         1 UNK         0.0595 
     97 H97        26.2896  -25.0737  -39.5000 H         1 UNK         0.0839 
     98 H98        28.0305  -25.2670  -39.3562 H         1 UNK         0.0839 
     99 H99        27.0375  -25.2357  -37.9096 H         1 UNK         0.0839 
    100 H100       25.0717  -27.6024  -40.7364 H         1 UNK         0.2998 
    101 H101       26.8898  -28.2662  -43.0133 H         1 UNK         0.0822 
    102 H102       23.9194  -27.5016  -42.9763 H         1 UNK         0.0787 
    103 H103       25.2514  -26.4693  -43.4850 H         1 UNK         0.0787 
    104 H104       24.8630  -27.9111  -44.4069 H         1 UNK         0.0787 
    105 H105       23.8994  -29.2781  -41.3559 H         1 UNK         0.3055 
    106 H106       22.9471  -31.1178  -40.7764 H         1 UNK         0.1106 
    107 H107       25.5298  -32.6475  -41.4030 H         1 UNK         0.0828 
    108 H108       25.1455  -31.8755  -39.8649 H         1 UNK         0.0828 
    109 H109       24.1889  -33.2339  -40.4357 H         1 UNK         0.0828 
    110 H110       21.5603  -32.6449  -41.5325 H         1 UNK         0.2931 
    111 H111       21.0151  -32.7429  -44.3102 H         1 UNK         0.0412 
    112 H112       21.2044  -34.4454  -45.8682 H         1 UNK         0.3472 
    113 H113       22.2147  -35.8389  -45.5865 H         1 UNK         0.3472 
    114 H114       19.2128  -34.3873  -43.6243 H         1 UNK         0.0970 
    115 H115       19.8646  -34.4117  -42.0097 H         1 UNK         0.0970 
    116 H116       16.7901  -33.2795  -43.4302 H         1 UNK         0.0612 
    117 H117       17.8452  -32.6074  -44.6572 H         1 UNK         0.0612 
@<TRIPOS>BOND
     1    1    2 1    
     2    1   62 1    
     3    1   63 1    
     4    1   64 1    
     5    2    3 2    
     6    2    4 am   BACKBONE|DICT|INTERRES
     7    4    5 1    
     8    4   65 1    
     9    5    6 1    
    10    5   25 1    
    11    5   66 1    
    12    6    7 1    
    13    6   67 1    
    14    6   68 1    
    15    7    8 1    
    16    8    9 1    
    17    8   69 1    
    18    8   70 1    
    19    9   10 ar   
    20    9   14 ar   
    21   10   11 ar   
    22   10   71 1    
    23   11   12 ar   
    24   11   61 1    
    25   12   13 ar   
    26   12   72 1    
    27   13   14 ar   
    28   13   15 1    
    29   14   73 1    
    30   15   16 1    
    31   15   74 1    
    32   15   75 1    
    33   16   17 1    
    34   17   18 1    
    35   17   76 1    
    36   17   77 1    
    37   18   19 1    
    38   18   27 1    
    39   18   78 1    
    40   19   20 am   BACKBONE|DICT|INTERRES
    41   19   79 1    
    42   20   21 2    
    43   20   22 1    
    44   22   23 1    
    45   22   24 1    
    46   22   80 1    
    47   23   81 1    
    48   23   82 1    
    49   23   83 1    
    50   24   25 am   BACKBONE|DICT|INTERRES
    51   24   84 1    
    52   25   26 2    
    53   27   28 2    
    54   27   29 am   BACKBONE|DICT|INTERRES
    55   29   30 1    
    56   29   85 1    
    57   30   31 1    
    58   30   32 1    
    59   30   86 1    
    60   31   87 1    
    61   31   88 1    
    62   31   89 1    
    63   32   33 2    
    64   32   34 am   BACKBONE|DICT|INTERRES
    65   34   35 1    
    66   34   90 1    
    67   35   36 1    
    68   35   37 1    
    69   35   91 1    
    70   36   92 1    
    71   36   93 1    
    72   36   94 1    
    73   37   38 2    
    74   37   39 am   BACKBONE|DICT|INTERRES
    75   39   40 1    
    76   39   95 1    
    77   40   41 1    
    78   40   42 1    
    79   40   96 1    
    80   41   97 1    
    81   41   98 1    
    82   41   99 1    
    83   42   43 2    
    84   42   44 am   BACKBONE|DICT|INTERRES
    85   44   45 1    
    86   44  100 1    
    87   45   46 1    
    88   45   47 1    
    89   45  101 1    
    90   46  102 1    
    91   46  103 1    
    92   46  104 1    
    93   47   48 2    
    94   47   49 am   BACKBONE|DICT|INTERRES
    95   49   50 1    
    96   49  105 1    
    97   50   51 1    
    98   50   52 1    
    99   50  106 1    
   100   51  107 1    
   101   51  108 1    
   102   51  109 1    
   103   52   53 2    
   104   52   54 am   BACKBONE|DICT|INTERRES
   105   54   55 1    
   106   54  110 1    
   107   55   56 1    
   108   55   59 1    
   109   55  111 1    
   110   56   57 am   BACKBONE|DICT|INTERRES
   111   56   58 2    
   112   57  112 1    
   113   57  113 1    
   114   59   60 1    
   115   59  114 1    
   116   59  115 1    
   117   60   61 1    
   118   61  116 1    
   119   61  117 1    
@<TRIPOS>SUBSTRUCTURE
     1 UNK         1 GROUP             0       ****    0 ROOT    
