@<TRIPOS>MOLECULE
3R8
117   119    1
SMALL
USER_CHARGES


@<TRIPOS>ATOM
      1 CA         15.4486  -24.0375  -43.0798 C.3       0 UNK        -0.2013 
      2 C          16.3297  -25.2528  -43.3246 C.2       0 UNK         0.4866 
      3 O          17.2564  -25.1855  -44.1330 O.2       0 UNK        -0.5176 
      4 N          16.0574  -26.3633  -42.6274 N.am      1 UNK        -0.4884 
      5 CA         16.7831  -27.6366  -42.7266 C.3       1 UNK         0.0853 
      6 C6         15.8971  -28.8306  -42.2876 C.3       10 UNK        -0.0849 
      7 S7         14.6540  -29.1999  -43.5713 S.3       10 UNK        -0.2776 
      8 C8         15.3885  -30.6499  -44.4031 C.3       10 UNK         0.0316 
      9 C9         16.8340  -30.4202  -44.8337 C.ar      10 UNK        -0.0863 
     10 C10        17.8772  -31.0438  -44.1429 C.ar      10 UNK        -0.1009 
     11 C11        19.2112  -30.8520  -44.5228 C.ar      10 UNK        -0.0712 
     12 C12        19.4872  -30.0279  -45.6193 C.ar      10 UNK        -0.0894 
     13 C13        18.4550  -29.3956  -46.3211 C.ar      10 UNK        -0.0745 
     14 C14        17.1296  -29.5970  -45.9232 C.ar      10 UNK        -0.0972 
     15 C15        18.7595  -28.5277  -47.5347 C.3       10 UNK         0.0209 
     16 S16        19.2144  -26.8263  -47.0704 S.3       10 UNK        -0.2568 
     17 C17        21.0292  -26.9538  -46.9204 C.3       10 UNK        -0.0983 
     18 CA         21.5955  -26.1600  -45.7189 C.3       3 UNK         0.0876 
     19 N          20.9878  -26.5645  -44.4465 N.am      3 UNK        -0.4424 
     20 C          21.2350  -26.0100  -43.2500 C.2       2 UNK         0.4918 
     21 O          22.0358  -25.0890  -43.0759 O.2       2 UNK        -0.4875 
     22 CA         20.4114  -26.5490  -42.0701 C.3       2 UNK         0.0481 
     23 CB         20.4720  -25.6423  -40.8250 C.3       2 UNK        -0.1831 
     24 N          19.0292  -26.7303  -42.5010 N.am      2 UNK        -0.4498 
     25 C          18.1350  -27.5779  -41.9858 C.2       1 UNK         0.5027 
     26 O          18.3361  -28.2704  -40.9869 O.2       1 UNK        -0.4969 
     27 C          23.1283  -26.3004  -45.6653 C.2       3 UNK         0.5005 
     28 O          23.6181  -27.3457  -45.2353 O.2       3 UNK        -0.5279 
     29 N          23.8519  -25.2431  -46.0638 N.am      4 UNK        -0.4463 
     30 CA         25.3180  -25.1212  -46.0093 C.3       4 UNK         0.0283 
     31 CB         25.9811  -26.0671  -47.0338 C.3       4 UNK        -0.1875 
     32 C          25.8985  -25.2870  -44.5859 C.2       4 UNK         0.4949 
     33 O          27.0215  -25.7699  -44.4347 O.2       4 UNK        -0.5039 
     34 N          25.1118  -24.8885  -43.5737 N.am      5 UNK        -0.4663 
     35 CA         25.3739  -25.0061  -42.1344 C.3       5 UNK         0.0242 
     36 CB         26.6027  -24.1684  -41.7172 C.3       5 UNK        -0.1982 
     37 C          25.4334  -26.4636  -41.6311 C.2       5 UNK         0.5017 
     38 O          26.1289  -26.7388  -40.6510 O.2       5 UNK        -0.5012 
     39 N          24.6936  -27.3699  -42.2889 N.am      6 UNK        -0.4439 
     40 CA         24.4886  -28.7545  -41.8529 C.3       6 UNK         0.0297 
     41 CB         23.7539  -29.5331  -42.9569 C.3       6 UNK        -0.2006 
     42 C          23.7013  -28.8479  -40.5331 C.2       6 UNK         0.4892 
     43 O          22.9514  -27.9329  -40.1867 O.2       6 UNK        -0.5089 
     44 N          23.8634  -29.9791  -39.8444 N.am      7 UNK        -0.4243 
     45 CA         23.1458  -30.3473  -38.6300 C.3       7 UNK         0.0196 
     46 CB         23.8822  -29.7925  -37.3971 C.3       7 UNK        -0.2007 
     47 C          23.0503  -31.8756  -38.5839 C.2       7 UNK         0.5020 
     48 O          23.8382  -32.5521  -39.2512 O.2       7 UNK        -0.5147 
     49 N          22.0958  -32.3842  -37.7914 N.am      8 UNK        -0.4734 
     50 CA         21.7733  -33.8081  -37.6087 C.3       8 UNK         0.0238 
     51 CB         22.9177  -34.5409  -36.8745 C.3       8 UNK        -0.1912 
     52 C          21.3629  -34.4959  -38.9276 C.2       8 UNK         0.5038 
     53 O          21.8393  -35.5915  -39.2316 O.2       8 UNK        -0.5046 
     54 N          20.4926  -33.8195  -39.6900 N.am      9 UNK        -0.4200 
     55 CA         19.9824  -34.2599  -40.9991 C.3       9 UNK         0.0839 
     56 C          19.1076  -35.5488  -40.9690 C.2       9 UNK         0.5513 
     57 N          18.5699  -35.9641  -39.8282 N.am      9 UNK        -0.7519 
     58 O          18.9132  -36.1802  -42.0044 O.2       9 UNK        -0.4960 
     59 C59        19.2240  -33.1206  -41.7294 C.3       10 UNK        -0.0876 
     60 S60        20.2268  -31.6120  -41.9888 S.3       10 UNK        -0.2414 
     61 C61        20.3671  -31.5594  -43.8099 C.3       10 UNK         0.0169 
     62 H62        14.9678  -23.7309  -44.0083 H         1 UNK         0.0903 
     63 H63        14.6693  -24.2392  -42.3450 H         1 UNK         0.0903 
     64 H64        16.0506  -23.2051  -42.7167 H         1 UNK         0.0903 
     65 H65        15.2930  -26.3533  -41.9669 H         1 UNK         0.3096 
     66 H66        17.0441  -27.7903  -43.7759 H         1 UNK         0.1121 
     67 H67        15.3904  -28.6139  -41.3457 H         1 UNK         0.0849 
     68 H68        16.4879  -29.7289  -42.1024 H         1 UNK         0.0849 
     69 H69        15.3181  -31.5114  -43.7370 H         1 UNK         0.0865 
     70 H70        14.7862  -30.8977  -45.2784 H         1 UNK         0.0865 
     71 H71        17.6368  -31.6794  -43.3057 H         1 UNK         0.1346 
     72 H72        20.5110  -29.8943  -45.9382 H         1 UNK         0.1412 
     73 H73        16.3247  -29.1142  -46.4612 H         1 UNK         0.1426 
     74 H74        17.8840  -28.4814  -48.1843 H         1 UNK         0.0716 
     75 H75        19.5496  -28.9797  -48.1362 H         1 UNK         0.0716 
     76 H76        21.4600  -26.5846  -47.8531 H         1 UNK         0.0695 
     77 H77        21.3217  -28.0019  -46.8520 H         1 UNK         0.0695 
     78 H78        21.3493  -25.1057  -45.8622 H         1 UNK         0.0983 
     79 H79        20.3197  -27.3185  -44.5033 H         1 UNK         0.3095 
     80 H80        20.8286  -27.5251  -41.8158 H         1 UNK         0.0454 
     81 H81        20.0672  -24.6508  -41.0298 H         1 UNK         0.0851 
     82 H82        21.5010  -25.5151  -40.4862 H         1 UNK         0.0851 
     83 H83        19.9134  -26.0705  -39.9931 H         1 UNK         0.0851 
     84 H84        18.7214  -26.1490  -43.2785 H         1 UNK         0.2976 
     85 H85        23.3616  -24.4213  -46.3916 H         1 UNK         0.3116 
     86 H86        25.5505  -24.0983  -46.3092 H         1 UNK         0.0646 
     87 H87        25.5674  -25.9256  -48.0320 H         1 UNK         0.0847 
     88 H88        25.8498  -27.1148  -46.7611 H         1 UNK         0.0847 
     89 H89        27.0539  -25.8823  -47.1011 H         1 UNK         0.0847 
     90 H90        24.1868  -24.5476  -43.8066 H         1 UNK         0.3040 
     91 H91        24.5037  -24.5696  -41.6408 H         1 UNK         0.1015 
     92 H92        27.5319  -24.5905  -42.1005 H         1 UNK         0.0786 
     93 H93        26.6932  -24.1218  -40.6313 H         1 UNK         0.0786 
     94 H94        26.5250  -23.1426  -42.0774 H         1 UNK         0.0786 
     95 H95        24.1875  -27.0762  -43.1157 H         1 UNK         0.3172 
     96 H96        25.4707  -29.2070  -41.7009 H         1 UNK         0.0595 
     97 H97        23.5811  -30.5700  -42.6650 H         1 UNK         0.0839 
     98 H98        24.3331  -29.5534  -43.8801 H         1 UNK         0.0839 
     99 H99        22.7811  -29.0926  -43.1799 H         1 UNK         0.0839 
    100 H100       24.4413  -30.7235  -40.2170 H         1 UNK         0.2998 
    101 H101       22.1326  -29.9406  -38.6708 H         1 UNK         0.0822 
    102 H102       23.9475  -28.7048  -37.4315 H         1 UNK         0.0787 
    103 H103       23.3620  -30.0561  -36.4755 H         1 UNK         0.0787 
    104 H104       24.8969  -30.1862  -37.3249 H         1 UNK         0.0787 
    105 H105       21.5089  -31.7370  -37.2815 H         1 UNK         0.3055 
    106 H106       20.8945  -33.8498  -36.9629 H         1 UNK         0.1106 
    107 H107       23.8238  -34.5907  -37.4792 H         1 UNK         0.0828 
    108 H108       22.6334  -35.5660  -36.6335 H         1 UNK         0.0828 
    109 H109       23.1680  -34.0467  -35.9359 H         1 UNK         0.0828 
    110 H110       20.1720  -32.9168  -39.3735 H         1 UNK         0.2931 
    111 H111       20.8574  -34.5068  -41.6037 H         1 UNK         0.0412 
    112 H112       18.0077  -36.8009  -39.8229 H         1 UNK         0.3472 
    113 H113       18.7209  -35.4526  -38.9737 H         1 UNK         0.3472 
    114 H114       18.3317  -32.8404  -41.1664 H         1 UNK         0.0970 
    115 H115       18.8674  -33.4803  -42.6963 H         1 UNK         0.0970 
    116 H116       21.3044  -31.0529  -44.0435 H         1 UNK         0.0612 
    117 H117       20.4675  -32.5718  -44.2028 H         1 UNK         0.0612 
@<TRIPOS>BOND
     1    1    2 1    
     2    1   62 1    
     3    1   63 1    
     4    1   64 1    
     5    2    3 2    
     6    2    4 am   BACKBONE|DICT|INTERRES
     7    4    5 1    
     8    4   65 1    
     9    5    6 1    
    10    5   25 1    
    11    5   66 1    
    12    6    7 1    
    13    6   67 1    
    14    6   68 1    
    15    7    8 1    
    16    8    9 1    
    17    8   69 1    
    18    8   70 1    
    19    9   10 ar   
    20    9   14 ar   
    21   10   11 ar   
    22   10   71 1    
    23   11   12 ar   
    24   11   61 1    
    25   12   13 ar   
    26   12   72 1    
    27   13   14 ar   
    28   13   15 1    
    29   14   73 1    
    30   15   16 1    
    31   15   74 1    
    32   15   75 1    
    33   16   17 1    
    34   17   18 1    
    35   17   76 1    
    36   17   77 1    
    37   18   19 1    
    38   18   27 1    
    39   18   78 1    
    40   19   20 am   BACKBONE|DICT|INTERRES
    41   19   79 1    
    42   20   21 2    
    43   20   22 1    
    44   22   23 1    
    45   22   24 1    
    46   22   80 1    
    47   23   81 1    
    48   23   82 1    
    49   23   83 1    
    50   24   25 am   BACKBONE|DICT|INTERRES
    51   24   84 1    
    52   25   26 2    
    53   27   28 2    
    54   27   29 am   BACKBONE|DICT|INTERRES
    55   29   30 1    
    56   29   85 1    
    57   30   31 1    
    58   30   32 1    
    59   30   86 1    
    60   31   87 1    
    61   31   88 1    
    62   31   89 1    
    63   32   33 2    
    64   32   34 am   BACKBONE|DICT|INTERRES
    65   34   35 1    
    66   34   90 1    
    67   35   36 1    
    68   35   37 1    
    69   35   91 1    
    70   36   92 1    
    71   36   93 1    
    72   36   94 1    
    73   37   38 2    
    74   37   39 am   BACKBONE|DICT|INTERRES
    75   39   40 1    
    76   39   95 1    
    77   40   41 1    
    78   40   42 1    
    79   40   96 1    
    80   41   97 1    
    81   41   98 1    
    82   41   99 1    
    83   42   43 2    
    84   42   44 am   BACKBONE|DICT|INTERRES
    85   44   45 1    
    86   44  100 1    
    87   45   46 1    
    88   45   47 1    
    89   45  101 1    
    90   46  102 1    
    91   46  103 1    
    92   46  104 1    
    93   47   48 2    
    94   47   49 am   BACKBONE|DICT|INTERRES
    95   49   50 1    
    96   49  105 1    
    97   50   51 1    
    98   50   52 1    
    99   50  106 1    
   100   51  107 1    
   101   51  108 1    
   102   51  109 1    
   103   52   53 2    
   104   52   54 am   BACKBONE|DICT|INTERRES
   105   54   55 1    
   106   54  110 1    
   107   55   56 1    
   108   55   59 1    
   109   55  111 1    
   110   56   57 am   BACKBONE|DICT|INTERRES
   111   56   58 2    
   112   57  112 1    
   113   57  113 1    
   114   59   60 1    
   115   59  114 1    
   116   59  115 1    
   117   60   61 1    
   118   61  116 1    
   119   61  117 1    
@<TRIPOS>SUBSTRUCTURE
     1 UNK         1 GROUP             0       ****    0 ROOT    
