@<TRIPOS>MOLECULE
3R8
117   119    1
SMALL
USER_CHARGES


@<TRIPOS>ATOM
      1 CA         15.3552  -25.2881  -39.3007 C.3       0 UNK        -0.2013 
      2 C          16.4444  -25.2089  -40.3601 C.2       0 UNK         0.4866 
      3 O          17.5602  -24.7818  -40.0612 O.2       0 UNK        -0.5176 
      4 N          16.1269  -25.6065  -41.5976 N.am      1 UNK        -0.4884 
      5 CA         17.0662  -25.6827  -42.7205 C.3       1 UNK         0.0853 
      6 C6         16.3290  -25.6878  -44.0866 C.3       10 UNK        -0.0849 
      7 S7         15.0551  -26.9903  -44.2562 S.3       10 UNK        -0.2776 
      8 C8         15.5050  -27.7788  -45.8427 C.3       10 UNK         0.0316 
      9 C9         16.6011  -28.8441  -45.7654 C.ar      10 UNK        -0.0863 
     10 C10        16.7375  -29.6913  -44.6587 C.ar      10 UNK        -0.1009 
     11 C11        17.6740  -30.7313  -44.6626 C.ar      10 UNK        -0.0712 
     12 C12        18.4911  -30.9187  -45.7817 C.ar      10 UNK        -0.0894 
     13 C13        18.3649  -30.0854  -46.8974 C.ar      10 UNK        -0.0745 
     14 C14        17.4226  -29.0512  -46.8782 C.ar      10 UNK        -0.0972 
     15 C15        19.1696  -30.3596  -48.1622 C.3       10 UNK         0.0209 
     16 S16        20.1717  -28.9328  -48.6902 S.3       10 UNK        -0.2568 
     17 C17        21.7677  -29.2224  -47.8593 C.3       10 UNK        -0.0983 
     18 CA         22.0469  -28.1669  -46.7644 C.3       3 UNK         0.0876 
     19 N          21.1790  -28.3553  -45.5930 N.am      3 UNK        -0.4424 
     20 C          21.0485  -27.4733  -44.5957 C.2       2 UNK         0.4918 
     21 O          21.6422  -26.3942  -44.5501 O.2       2 UNK        -0.4875 
     22 CA         20.1317  -27.8684  -43.4396 C.3       2 UNK         0.0481 
     23 CB         20.9434  -28.1357  -42.1584 C.3       2 UNK        -0.1831 
     24 N          19.1751  -26.7883  -43.2457 N.am      2 UNK        -0.4498 
     25 C          18.0158  -26.8906  -42.5876 C.2       1 UNK         0.5027 
     26 O          17.6714  -27.8836  -41.9407 O.2       1 UNK        -0.4969 
     27 C          23.5488  -28.1379  -46.4028 C.2       3 UNK         0.5005 
     28 O          24.3331  -27.5196  -47.1238 O.2       3 UNK        -0.5279 
     29 N          23.9193  -28.7761  -45.2840 N.am      4 UNK        -0.4463 
     30 CA         25.2688  -28.7662  -44.7154 C.3       4 UNK         0.0283 
     31 CB         25.4360  -30.0168  -43.8359 C.3       4 UNK        -0.1875 
     32 C          25.5828  -27.4986  -43.8955 C.2       4 UNK         0.4949 
     33 O          26.6983  -27.3920  -43.3848 O.2       4 UNK        -0.5039 
     34 N          24.6028  -26.5955  -43.7225 N.am      5 UNK        -0.4663 
     35 CA         24.5874  -25.3956  -42.8681 C.3       5 UNK         0.0242 
     36 CB         25.7109  -24.4047  -43.2313 C.3       5 UNK        -0.1982 
     37 C          24.5758  -25.7191  -41.3627 C.2       5 UNK         0.5017 
     38 O          23.7577  -25.1609  -40.6308 O.2       5 UNK        -0.5012 
     39 N          25.4461  -26.6421  -40.9378 N.am      6 UNK        -0.4439 
     40 CA         25.3874  -27.3336  -39.6512 C.3       6 UNK         0.0297 
     41 CB         26.7142  -28.0770  -39.4288 C.3       6 UNK        -0.2006 
     42 C          24.2106  -28.3239  -39.6278 C.2       6 UNK         0.4892 
     43 O          23.7851  -28.7952  -40.6860 O.2       6 UNK        -0.5089 
     44 N          23.7275  -28.6516  -38.4228 N.am      7 UNK        -0.4243 
     45 CA         22.5768  -29.5271  -38.1665 C.3       7 UNK         0.0196 
     46 CB         22.0672  -29.2685  -36.7360 C.3       7 UNK        -0.2007 
     47 C          22.8541  -31.0237  -38.4334 C.2       7 UNK         0.5020 
     48 O          22.6011  -31.8672  -37.5716 O.2       7 UNK        -0.5147 
     49 N          23.3431  -31.3370  -39.6391 N.am      8 UNK        -0.4734 
     50 CA         23.6077  -32.6940  -40.1325 C.3       8 UNK         0.0238 
     51 CB         24.4403  -32.6033  -41.4212 C.3       8 UNK        -0.1912 
     52 C          22.3310  -33.5206  -40.3778 C.2       8 UNK         0.5038 
     53 O          22.4164  -34.7456  -40.4725 O.2       8 UNK        -0.5046 
     54 N          21.1815  -32.8398  -40.4723 N.am      9 UNK        -0.4200 
     55 CA         19.8382  -33.4217  -40.6041 C.3       9 UNK         0.0839 
     56 C          19.3686  -34.2548  -39.3742 C.2       9 UNK         0.5513 
     57 N          19.9827  -34.1226  -38.2034 N.am      9 UNK        -0.7519 
     58 O          18.4260  -35.0338  -39.4882 O.2       9 UNK        -0.4960 
     59 C59        18.7846  -32.3344  -40.9424 C.3       10 UNK        -0.0876 
     60 S60        19.1968  -31.3552  -42.4287 S.3       10 UNK        -0.2414 
     61 C61        17.7544  -31.6900  -43.4827 C.3       10 UNK         0.0169 
     62 H62        15.1748  -24.3024  -38.8727 H         1 UNK         0.0903 
     63 H63        15.6618  -25.9578  -38.4977 H         1 UNK         0.0903 
     64 H64        14.4148  -25.6573  -39.7096 H         1 UNK         0.0903 
     65 H65        15.2100  -25.9880  -41.7853 H         1 UNK         0.3096 
     66 H66        17.6868  -24.7838  -42.6862 H         1 UNK         0.1121 
     67 H67        17.0452  -25.7616  -44.9074 H         1 UNK         0.0849 
     68 H68        15.8317  -24.7268  -44.2270 H         1 UNK         0.0849 
     69 H69        14.6103  -28.2570  -46.2432 H         1 UNK         0.0865 
     70 H70        15.7744  -27.0016  -46.5598 H         1 UNK         0.0865 
     71 H71        16.0942  -29.5625  -43.7992 H         1 UNK         0.1346 
     72 H72        19.1970  -31.7384  -45.7937 H         1 UNK         0.1412 
     73 H73        17.3050  -28.4286  -47.7552 H         1 UNK         0.1426 
     74 H74        19.8021  -31.2413  -48.0501 H         1 UNK         0.0716 
     75 H75        18.4689  -30.5968  -48.9640 H         1 UNK         0.0716 
     76 H76        22.5308  -29.1817  -48.6396 H         1 UNK         0.0695 
     77 H77        21.8133  -30.2324  -47.4484 H         1 UNK         0.0695 
     78 H78        21.8230  -27.1806  -47.1782 H         1 UNK         0.0983 
     79 H79        20.6221  -29.1977  -45.5796 H         1 UNK         0.3095 
     80 H80        19.5838  -28.7693  -43.7170 H         1 UNK         0.0454 
     81 H81        20.3014  -28.4361  -41.3308 H         1 UNK         0.0851 
     82 H82        21.5082  -27.2574  -41.8425 H         1 UNK         0.0851 
     83 H83        21.6576  -28.9444  -42.3159 H         1 UNK         0.0851 
     84 H84        19.3983  -25.9372  -43.7458 H         1 UNK         0.2976 
     85 H85        23.2098  -29.2640  -44.7569 H         1 UNK         0.3116 
     86 H86        25.9967  -28.8194  -45.5278 H         1 UNK         0.0646 
     87 H87        25.2318  -30.9307  -44.3939 H         1 UNK         0.0847 
     88 H88        26.4545  -30.0954  -43.4533 H         1 UNK         0.0847 
     89 H89        24.7691  -29.9884  -42.9737 H         1 UNK         0.0847 
     90 H90        23.7142  -26.7863  -44.1708 H         1 UNK         0.3040 
     91 H91        23.6379  -24.9017  -43.0836 H         1 UNK         0.1015 
     92 H92        26.7009  -24.7997  -43.0028 H         1 UNK         0.0786 
     93 H93        25.6000  -23.4746  -42.6724 H         1 UNK         0.0786 
     94 H94        25.6870  -24.1509  -44.2911 H         1 UNK         0.0786 
     95 H95        26.0511  -27.0459  -41.6480 H         1 UNK         0.3172 
     96 H96        25.2500  -26.5946  -38.8592 H         1 UNK         0.0595 
     97 H97        27.5603  -27.3896  -39.4383 H         1 UNK         0.0839 
     98 H98        26.8871  -28.8313  -40.1980 H         1 UNK         0.0839 
     99 H99        26.7237  -28.5868  -38.4645 H         1 UNK         0.0839 
    100 H100       24.1703  -28.2536  -37.6068 H         1 UNK         0.2998 
    101 H101       21.7789  -29.2357  -38.8533 H         1 UNK         0.0822 
    102 H102       21.1695  -29.8524  -36.5273 H         1 UNK         0.0787 
    103 H103       22.8134  -29.5379  -35.9874 H         1 UNK         0.0787 
    104 H104       21.8068  -28.2199  -36.5901 H         1 UNK         0.0787 
    105 H105       23.5333  -30.5615  -40.2720 H         1 UNK         0.3055 
    106 H106       24.1939  -33.2201  -39.3757 H         1 UNK         0.1106 
    107 H107       25.3599  -32.0391  -41.2645 H         1 UNK         0.0828 
    108 H108       24.7259  -33.5961  -41.7716 H         1 UNK         0.0828 
    109 H109       23.8809  -32.1245  -42.2255 H         1 UNK         0.0828 
    110 H110       21.2221  -31.8346  -40.4075 H         1 UNK         0.2931 
    111 H111       19.8786  -34.1157  -41.4458 H         1 UNK         0.0412 
    112 H112       20.7595  -33.4862  -38.0966 H         1 UNK         0.3472 
    113 H113       19.6683  -34.6693  -37.4172 H         1 UNK         0.3472 
    114 H114       17.8034  -32.7942  -41.0752 H         1 UNK         0.0970 
    115 H115       18.6751  -31.6400  -40.1072 H         1 UNK         0.0970 
    116 H116       17.8034  -32.7188  -43.8427 H         1 UNK         0.0612 
    117 H117       16.8456  -31.6146  -42.8835 H         1 UNK         0.0612 
@<TRIPOS>BOND
     1    1    2 1    
     2    1   62 1    
     3    1   63 1    
     4    1   64 1    
     5    2    3 2    
     6    2    4 am   BACKBONE|DICT|INTERRES
     7    4    5 1    
     8    4   65 1    
     9    5    6 1    
    10    5   25 1    
    11    5   66 1    
    12    6    7 1    
    13    6   67 1    
    14    6   68 1    
    15    7    8 1    
    16    8    9 1    
    17    8   69 1    
    18    8   70 1    
    19    9   10 ar   
    20    9   14 ar   
    21   10   11 ar   
    22   10   71 1    
    23   11   12 ar   
    24   11   61 1    
    25   12   13 ar   
    26   12   72 1    
    27   13   14 ar   
    28   13   15 1    
    29   14   73 1    
    30   15   16 1    
    31   15   74 1    
    32   15   75 1    
    33   16   17 1    
    34   17   18 1    
    35   17   76 1    
    36   17   77 1    
    37   18   19 1    
    38   18   27 1    
    39   18   78 1    
    40   19   20 am   BACKBONE|DICT|INTERRES
    41   19   79 1    
    42   20   21 2    
    43   20   22 1    
    44   22   23 1    
    45   22   24 1    
    46   22   80 1    
    47   23   81 1    
    48   23   82 1    
    49   23   83 1    
    50   24   25 am   BACKBONE|DICT|INTERRES
    51   24   84 1    
    52   25   26 2    
    53   27   28 2    
    54   27   29 am   BACKBONE|DICT|INTERRES
    55   29   30 1    
    56   29   85 1    
    57   30   31 1    
    58   30   32 1    
    59   30   86 1    
    60   31   87 1    
    61   31   88 1    
    62   31   89 1    
    63   32   33 2    
    64   32   34 am   BACKBONE|DICT|INTERRES
    65   34   35 1    
    66   34   90 1    
    67   35   36 1    
    68   35   37 1    
    69   35   91 1    
    70   36   92 1    
    71   36   93 1    
    72   36   94 1    
    73   37   38 2    
    74   37   39 am   BACKBONE|DICT|INTERRES
    75   39   40 1    
    76   39   95 1    
    77   40   41 1    
    78   40   42 1    
    79   40   96 1    
    80   41   97 1    
    81   41   98 1    
    82   41   99 1    
    83   42   43 2    
    84   42   44 am   BACKBONE|DICT|INTERRES
    85   44   45 1    
    86   44  100 1    
    87   45   46 1    
    88   45   47 1    
    89   45  101 1    
    90   46  102 1    
    91   46  103 1    
    92   46  104 1    
    93   47   48 2    
    94   47   49 am   BACKBONE|DICT|INTERRES
    95   49   50 1    
    96   49  105 1    
    97   50   51 1    
    98   50   52 1    
    99   50  106 1    
   100   51  107 1    
   101   51  108 1    
   102   51  109 1    
   103   52   53 2    
   104   52   54 am   BACKBONE|DICT|INTERRES
   105   54   55 1    
   106   54  110 1    
   107   55   56 1    
   108   55   59 1    
   109   55  111 1    
   110   56   57 am   BACKBONE|DICT|INTERRES
   111   56   58 2    
   112   57  112 1    
   113   57  113 1    
   114   59   60 1    
   115   59  114 1    
   116   59  115 1    
   117   60   61 1    
   118   61  116 1    
   119   61  117 1    
@<TRIPOS>SUBSTRUCTURE
     1 UNK         1 GROUP             0       ****    0 ROOT    
