@<TRIPOS>MOLECULE
3R8
117   119    1
SMALL
USER_CHARGES


@<TRIPOS>ATOM
      1 CA         15.5610  -23.6080  -42.0769 C.3       0 UNK        -0.2013 
      2 C          16.9973  -23.5976  -41.5600 C.2       0 UNK         0.4866 
      3 O          17.4660  -22.5567  -41.1029 O.2       0 UNK        -0.5176 
      4 N          17.7298  -24.7193  -41.5888 N.am      1 UNK        -0.4884 
      5 CA         17.3544  -26.0226  -42.1524 C.3       1 UNK         0.0853 
      6 C6         18.1009  -27.1694  -41.4246 C.3       10 UNK        -0.0849 
      7 S7         19.9170  -27.1175  -41.6107 S.3       10 UNK        -0.2776 
      8 C8         20.3386  -28.8309  -41.1773 C.3       10 UNK         0.0316 
      9 C9         20.1682  -29.7632  -42.3635 C.ar      10 UNK        -0.0863 
     10 C10        19.0329  -30.5674  -42.4726 C.ar      10 UNK        -0.1009 
     11 C11        18.8971  -31.4647  -43.5363 C.ar      10 UNK        -0.0712 
     12 C12        19.8851  -31.5113  -44.5247 C.ar      10 UNK        -0.0894 
     13 C13        21.0241  -30.7065  -44.4293 C.ar      10 UNK        -0.0745 
     14 C14        21.1658  -29.8444  -43.3374 C.ar      10 UNK        -0.0972 
     15 C15        22.1110  -30.8010  -45.4909 C.3       10 UNK         0.0209 
     16 S16        21.8116  -29.6661  -46.8821 S.3       10 UNK        -0.2568 
     17 C17        22.3028  -28.0649  -46.1578 C.3       10 UNK        -0.0983 
     18 CA         21.2225  -26.9632  -46.2986 C.3       3 UNK         0.0876 
     19 N          19.9014  -27.3861  -45.8135 N.am      3 UNK        -0.4424 
     20 C          18.7514  -27.0265  -46.3996 C.2       2 UNK         0.4918 
     21 O          18.6814  -26.3302  -47.4131 O.2       2 UNK        -0.4875 
     22 CA         17.4510  -27.5032  -45.7295 C.3       2 UNK         0.0481 
     23 CB         17.2106  -28.9948  -46.0126 C.3       2 UNK        -0.1831 
     24 N          17.3990  -27.2585  -44.2838 N.am      2 UNK        -0.4498 
     25 C          17.5219  -26.0598  -43.6914 C.2       1 UNK         0.5027 
     26 O          17.7479  -25.0179  -44.3110 O.2       1 UNK        -0.4969 
     27 C          21.7045  -25.6744  -45.6007 C.2       3 UNK         0.5005 
     28 O          22.6276  -25.0376  -46.1106 O.2       3 UNK        -0.5279 
     29 N          21.1056  -25.3356  -44.4450 N.am      4 UNK        -0.4463 
     30 CA         21.5113  -24.2822  -43.5036 C.3       4 UNK         0.0283 
     31 CB         21.3067  -22.8809  -44.1157 C.3       4 UNK        -0.1875 
     32 C          22.9433  -24.5233  -42.9854 C.2       4 UNK         0.4949 
     33 O          23.8172  -23.6679  -43.1384 O.2       4 UNK        -0.5039 
     34 N          23.1593  -25.7184  -42.4239 N.am      5 UNK        -0.4663 
     35 CA         24.4581  -26.2354  -41.9956 C.3       5 UNK         0.0242 
     36 CB         25.0441  -27.0917  -43.1360 C.3       5 UNK        -0.1982 
     37 C          24.2995  -27.0547  -40.7069 C.2       5 UNK         0.5017 
     38 O          23.1788  -27.2677  -40.2447 O.2       5 UNK        -0.5012 
     39 N          25.4247  -27.5327  -40.1620 N.am      6 UNK        -0.4439 
     40 CA         25.4813  -28.3767  -38.9609 C.3       6 UNK         0.0297 
     41 CB         26.8561  -28.1880  -38.2948 C.3       6 UNK        -0.2006 
     42 C          25.2054  -29.8730  -39.2290 C.2       6 UNK         0.4892 
     43 O          25.2686  -30.6659  -38.2890 O.2       6 UNK        -0.5089 
     44 N          24.9418  -30.2426  -40.4919 N.am      7 UNK        -0.4243 
     45 CA         24.7852  -31.6217  -40.9684 C.3       7 UNK         0.0196 
     46 CB         24.6735  -31.6125  -42.5010 C.3       7 UNK        -0.2007 
     47 C          23.6029  -32.3961  -40.3588 C.2       7 UNK         0.5020 
     48 O          23.6995  -33.6168  -40.2319 O.2       7 UNK        -0.5147 
     49 N          22.5140  -31.6887  -40.0163 N.am      8 UNK        -0.4734 
     50 CA         21.2929  -32.2002  -39.3674 C.3       8 UNK         0.0238 
     51 CB         21.5778  -32.4957  -37.8798 C.3       8 UNK        -0.1912 
     52 C          20.6464  -33.4000  -40.0965 C.2       8 UNK         0.5038 
     53 O          20.2096  -34.3548  -39.4507 O.2       8 UNK        -0.5046 
     54 N          20.6277  -33.3280  -41.4329 N.am      9 UNK        -0.4200 
     55 CA         20.1656  -34.3677  -42.3687 C.3       9 UNK         0.0839 
     56 C          21.0756  -35.6318  -42.4428 C.2       9 UNK         0.5513 
     57 N          22.2674  -35.6418  -41.8570 N.am      9 UNK        -0.7519 
     58 O          20.7089  -36.6186  -43.0760 O.2       9 UNK        -0.4960 
     59 C59        18.6568  -34.7393  -42.2277 C.3       10 UNK        -0.0876 
     60 S60        17.4756  -33.3513  -42.0610 S.3       10 UNK        -0.2414 
     61 C61        17.6952  -32.3982  -43.6026 C.3       10 UNK         0.0169 
     62 H62        14.9420  -24.2854  -41.4896 H         1 UNK         0.0903 
     63 H63        15.1226  -22.6130  -42.0029 H         1 UNK         0.0903 
     64 H64        15.5199  -23.9070  -43.1235 H         1 UNK         0.0903 
     65 H65        18.6794  -24.6762  -41.2484 H         1 UNK         0.3096 
     66 H66        16.2904  -26.1814  -41.9681 H         1 UNK         0.1121 
     67 H67        17.7244  -28.1392  -41.7499 H         1 UNK         0.0849 
     68 H68        17.8767  -27.1250  -40.3574 H         1 UNK         0.0849 
     69 H69        21.3708  -28.8753  -40.8362 H         1 UNK         0.0865 
     70 H70        19.7319  -29.1562  -40.3308 H         1 UNK         0.0865 
     71 H71        18.2679  -30.5266  -41.7094 H         1 UNK         0.1346 
     72 H72        19.7810  -32.1922  -45.3585 H         1 UNK         0.1412 
     73 H73        22.0525  -29.2356  -43.2356 H         1 UNK         0.1426 
     74 H74        22.1581  -31.8203  -45.8771 H         1 UNK         0.0716 
     75 H75        23.0926  -30.5985  -45.0613 H         1 UNK         0.0716 
     76 H76        23.2191  -27.7523  -46.6625 H         1 UNK         0.0695 
     77 H77        22.5816  -28.1979  -45.1139 H         1 UNK         0.0695 
     78 H78        21.1516  -26.7281  -47.3632 H         1 UNK         0.0983 
     79 H79        19.8798  -28.0048  -45.0153 H         1 UNK         0.3095 
     80 H80        16.6279  -26.9425  -46.1772 H         1 UNK         0.0454 
     81 H81        17.2100  -29.1924  -47.0854 H         1 UNK         0.0851 
     82 H82        16.2477  -29.3259  -45.6238 H         1 UNK         0.0851 
     83 H83        17.9851  -29.6205  -45.5701 H         1 UNK         0.0851 
     84 H84        17.2278  -28.0677  -43.7052 H         1 UNK         0.2976 
     85 H85        20.3372  -25.9140  -44.1375 H         1 UNK         0.3116 
     86 H86        20.8483  -24.3597  -42.6408 H         1 UNK         0.0646 
     87 H87        20.2767  -22.7414  -44.4441 H         1 UNK         0.0847 
     88 H88        21.9589  -22.7086  -44.9722 H         1 UNK         0.0847 
     89 H89        21.5221  -22.1024  -43.3830 H         1 UNK         0.0847 
     90 H90        22.3709  -26.3224  -42.2250 H         1 UNK         0.3040 
     91 H91        25.1338  -25.4056  -41.7757 H         1 UNK         0.1015 
     92 H92        26.0490  -27.4431  -42.9000 H         1 UNK         0.0786 
     93 H93        25.1184  -26.5180  -44.0605 H         1 UNK         0.0786 
     94 H94        24.4286  -27.9684  -43.3408 H         1 UNK         0.0786 
     95 H95        26.3090  -27.3181  -40.6018 H         1 UNK         0.3172 
     96 H96        24.7198  -28.0351  -38.2565 H         1 UNK         0.0595 
     97 H97        27.6675  -28.5334  -38.9366 H         1 UNK         0.0839 
     98 H98        26.9208  -28.7473  -37.3603 H         1 UNK         0.0839 
     99 H99        27.0404  -27.1411  -38.0525 H         1 UNK         0.0839 
    100 H100       24.9198  -29.5177  -41.1922 H         1 UNK         0.2998 
    101 H101       25.6943  -32.1627  -40.6967 H         1 UNK         0.0822 
    102 H102       25.5552  -31.1687  -42.9637 H         1 UNK         0.0787 
    103 H103       24.5791  -32.6262  -42.8938 H         1 UNK         0.0787 
    104 H104       23.8001  -31.0528  -42.8325 H         1 UNK         0.0787 
    105 H105       22.5489  -30.6915  -40.1708 H         1 UNK         0.3055 
    106 H106       20.5548  -31.3980  -39.4070 H         1 UNK         0.1106 
    107 H107       22.2796  -33.3222  -37.7619 H         1 UNK         0.0828 
    108 H108       20.6637  -32.7650  -37.3492 H         1 UNK         0.0828 
    109 H109       21.9992  -31.6258  -37.3760 H         1 UNK         0.0828 
    110 H110       21.0034  -32.4981  -41.8678 H         1 UNK         0.2931 
    111 H111       20.2851  -33.9213  -43.3537 H         1 UNK         0.0412 
    112 H112       22.5981  -34.8511  -41.3134 H         1 UNK         0.3472 
    113 H113       22.8404  -36.4672  -41.9308 H         1 UNK         0.3472 
    114 H114       18.5186  -35.3810  -41.3558 H         1 UNK         0.0970 
    115 H115       18.3401  -35.3378  -43.0837 H         1 UNK         0.0970 
    116 H116       16.8006  -31.7981  -43.7731 H         1 UNK         0.0612 
    117 H117       17.7727  -33.0877  -44.4446 H         1 UNK         0.0612 
@<TRIPOS>BOND
     1    1    2 1    
     2    1   62 1    
     3    1   63 1    
     4    1   64 1    
     5    2    3 2    
     6    2    4 am   BACKBONE|DICT|INTERRES
     7    4    5 1    
     8    4   65 1    
     9    5    6 1    
    10    5   25 1    
    11    5   66 1    
    12    6    7 1    
    13    6   67 1    
    14    6   68 1    
    15    7    8 1    
    16    8    9 1    
    17    8   69 1    
    18    8   70 1    
    19    9   10 ar   
    20    9   14 ar   
    21   10   11 ar   
    22   10   71 1    
    23   11   12 ar   
    24   11   61 1    
    25   12   13 ar   
    26   12   72 1    
    27   13   14 ar   
    28   13   15 1    
    29   14   73 1    
    30   15   16 1    
    31   15   74 1    
    32   15   75 1    
    33   16   17 1    
    34   17   18 1    
    35   17   76 1    
    36   17   77 1    
    37   18   19 1    
    38   18   27 1    
    39   18   78 1    
    40   19   20 am   BACKBONE|DICT|INTERRES
    41   19   79 1    
    42   20   21 2    
    43   20   22 1    
    44   22   23 1    
    45   22   24 1    
    46   22   80 1    
    47   23   81 1    
    48   23   82 1    
    49   23   83 1    
    50   24   25 am   BACKBONE|DICT|INTERRES
    51   24   84 1    
    52   25   26 2    
    53   27   28 2    
    54   27   29 am   BACKBONE|DICT|INTERRES
    55   29   30 1    
    56   29   85 1    
    57   30   31 1    
    58   30   32 1    
    59   30   86 1    
    60   31   87 1    
    61   31   88 1    
    62   31   89 1    
    63   32   33 2    
    64   32   34 am   BACKBONE|DICT|INTERRES
    65   34   35 1    
    66   34   90 1    
    67   35   36 1    
    68   35   37 1    
    69   35   91 1    
    70   36   92 1    
    71   36   93 1    
    72   36   94 1    
    73   37   38 2    
    74   37   39 am   BACKBONE|DICT|INTERRES
    75   39   40 1    
    76   39   95 1    
    77   40   41 1    
    78   40   42 1    
    79   40   96 1    
    80   41   97 1    
    81   41   98 1    
    82   41   99 1    
    83   42   43 2    
    84   42   44 am   BACKBONE|DICT|INTERRES
    85   44   45 1    
    86   44  100 1    
    87   45   46 1    
    88   45   47 1    
    89   45  101 1    
    90   46  102 1    
    91   46  103 1    
    92   46  104 1    
    93   47   48 2    
    94   47   49 am   BACKBONE|DICT|INTERRES
    95   49   50 1    
    96   49  105 1    
    97   50   51 1    
    98   50   52 1    
    99   50  106 1    
   100   51  107 1    
   101   51  108 1    
   102   51  109 1    
   103   52   53 2    
   104   52   54 am   BACKBONE|DICT|INTERRES
   105   54   55 1    
   106   54  110 1    
   107   55   56 1    
   108   55   59 1    
   109   55  111 1    
   110   56   57 am   BACKBONE|DICT|INTERRES
   111   56   58 2    
   112   57  112 1    
   113   57  113 1    
   114   59   60 1    
   115   59  114 1    
   116   59  115 1    
   117   60   61 1    
   118   61  116 1    
   119   61  117 1    
@<TRIPOS>SUBSTRUCTURE
     1 UNK         1 GROUP             0       ****    0 ROOT    
