@<TRIPOS>MOLECULE
3R8
117   119    1
SMALL
USER_CHARGES


@<TRIPOS>ATOM
      1 CA         17.5041  -29.4660  -41.6417 C.3       0 UNK        -0.2013 
      2 C          17.3208  -28.0088  -42.0327 C.2       0 UNK         0.4866 
      3 O          17.0763  -27.1735  -41.1617 O.2       0 UNK        -0.5176 
      4 N          17.4345  -27.7049  -43.3314 N.am      1 UNK        -0.4884 
      5 CA         17.3656  -26.3490  -43.8866 C.3       1 UNK         0.0853 
      6 C6         16.6135  -26.2901  -45.2475 C.3       10 UNK        -0.0849 
      7 S7         14.9525  -27.0516  -45.1889 S.3       10 UNK        -0.2776 
      8 C8         15.1198  -28.4418  -46.3596 C.3       10 UNK         0.0316 
      9 C9         15.9866  -29.5637  -45.8029 C.ar      10 UNK        -0.0863 
     10 C10        15.4128  -30.5917  -45.0475 C.ar      10 UNK        -0.1009 
     11 C11        16.1946  -31.6348  -44.5375 C.ar      10 UNK        -0.0712 
     12 C12        17.5739  -31.6239  -44.7840 C.ar      10 UNK        -0.0894 
     13 C13        18.1634  -30.5869  -45.5096 C.ar      10 UNK        -0.0745 
     14 C14        17.3627  -29.5773  -46.0439 C.ar      10 UNK        -0.0972 
     15 C15        19.6716  -30.5325  -45.6737 C.3       10 UNK         0.0209 
     16 S16        20.4336  -29.9320  -44.1354 S.3       10 UNK        -0.2568 
     17 C17        22.1161  -29.5003  -44.6959 C.3       10 UNK        -0.0983 
     18 CA         22.5318  -28.0534  -44.3279 C.3       3 UNK         0.0876 
     19 N          21.5937  -27.0530  -44.8457 N.am      3 UNK        -0.4424 
     20 C          21.8097  -25.7305  -44.8722 C.2       2 UNK         0.4918 
     21 O          22.8631  -25.2046  -44.5120 O.2       2 UNK        -0.4875 
     22 CA         20.6415  -24.8388  -45.3390 C.3       2 UNK         0.0481 
     23 CB         20.8058  -24.4834  -46.8249 C.3       2 UNK        -0.1831 
     24 N          19.3042  -25.4114  -45.1216 N.am      2 UNK        -0.4498 
     25 C          18.7984  -25.7709  -43.9302 C.2       1 UNK         0.5027 
     26 O          19.4434  -25.6836  -42.8846 O.2       1 UNK        -0.4969 
     27 C          22.8041  -27.9180  -42.8139 C.2       3 UNK         0.5005 
     28 O          23.8701  -28.3454  -42.3702 O.2       3 UNK        -0.5279 
     29 N          21.8865  -27.3010  -42.0486 N.am      4 UNK        -0.4463 
     30 CA         22.0051  -27.0946  -40.5983 C.3       4 UNK         0.0283 
     31 CB         20.6902  -26.5232  -40.0471 C.3       4 UNK        -0.1875 
     32 C          23.1950  -26.2108  -40.1750 C.2       4 UNK         0.4949 
     33 O          23.5942  -26.2523  -39.0116 O.2       4 UNK        -0.5039 
     34 N          23.7528  -25.4399  -41.1188 N.am      5 UNK        -0.4663 
     35 CA         24.9844  -24.6703  -40.9405 C.3       5 UNK         0.0242 
     36 CB         25.0657  -23.6061  -42.0471 C.3       5 UNK        -0.1982 
     37 C          26.2557  -25.5428  -40.9409 C.2       5 UNK         0.5017 
     38 O          27.2861  -25.0800  -40.4499 O.2       5 UNK        -0.5012 
     39 N          26.1770  -26.7599  -41.4993 N.am      6 UNK        -0.4439 
     40 CA         27.2970  -27.6935  -41.6423 C.3       6 UNK         0.0297 
     41 CB         27.4869  -28.0258  -43.1321 C.3       6 UNK        -0.2006 
     42 C          27.0839  -28.9822  -40.8339 C.2       6 UNK         0.4892 
     43 O          28.0369  -29.4707  -40.2253 O.2       6 UNK        -0.5089 
     44 N          25.8579  -29.5165  -40.8476 N.am      7 UNK        -0.4243 
     45 CA         25.4664  -30.7608  -40.1942 C.3       7 UNK         0.0196 
     46 CB         25.7685  -31.9569  -41.1245 C.3       7 UNK        -0.2007 
     47 C          23.9977  -30.6374  -39.7624 C.2       7 UNK         0.5020 
     48 O          23.6899  -29.7692  -38.9467 O.2       7 UNK        -0.5147 
     49 N          23.1230  -31.4946  -40.2983 N.am      8 UNK        -0.4734 
     50 CA         21.6820  -31.5562  -40.0568 C.3       8 UNK         0.0238 
     51 CB         21.3941  -32.0133  -38.6095 C.3       8 UNK        -0.1912 
     52 C          21.0680  -32.5320  -41.0733 C.2       8 UNK         0.5038 
     53 O          21.8087  -33.1656  -41.8322 O.2       8 UNK        -0.5046 
     54 N          19.7341  -32.6546  -41.0543 N.am      9 UNK        -0.4200 
     55 CA         18.9807  -33.6640  -41.8136 C.3       9 UNK         0.0839 
     56 C          19.3003  -35.1093  -41.3362 C.2       9 UNK         0.5513 
     57 N          19.4575  -36.0525  -42.2545 N.am      9 UNK        -0.7519 
     58 O          19.3723  -35.3828  -40.1396 O.2       9 UNK        -0.4960 
     59 C59        17.4558  -33.3722  -41.7601 C.3       10 UNK        -0.0876 
     60 S60        16.5401  -34.1205  -43.1530 S.3       10 UNK        -0.2414 
     61 C61        15.4966  -32.7304  -43.7253 C.3       10 UNK         0.0169 
     62 H62        16.5457  -29.9013  -41.3607 H         1 UNK         0.0903 
     63 H63        17.9216  -30.0508  -42.4592 H         1 UNK         0.0903 
     64 H64        18.1821  -29.5448  -40.7925 H         1 UNK         0.0903 
     65 H65        17.6040  -28.4461  -43.9982 H         1 UNK         0.3096 
     66 H66        16.8102  -25.7113  -43.1950 H         1 UNK         0.1121 
     67 H67        16.4764  -25.2492  -45.5472 H         1 UNK         0.0849 
     68 H68        17.1899  -26.7531  -46.0463 H         1 UNK         0.0849 
     69 H69        14.1248  -28.8274  -46.5872 H         1 UNK         0.0865 
     70 H70        15.5224  -28.0805  -47.3073 H         1 UNK         0.0865 
     71 H71        14.3477  -30.5810  -44.8577 H         1 UNK         0.1346 
     72 H72        18.2119  -32.4016  -44.3972 H         1 UNK         0.1412 
     73 H73        17.8186  -28.7937  -46.6319 H         1 UNK         0.1426 
     74 H74        19.9395  -29.8768  -46.5037 H         1 UNK         0.0716 
     75 H75        20.0631  -31.5220  -45.9145 H         1 UNK         0.0716 
     76 H76        22.8166  -30.2250  -44.2756 H         1 UNK         0.0695 
     77 H77        22.1833  -29.6281  -45.7771 H         1 UNK         0.0695 
     78 H78        23.4904  -27.8624  -44.8157 H         1 UNK         0.0983 
     79 H79        20.6959  -27.4027  -45.1443 H         1 UNK         0.3095 
     80 H80        20.6947  -23.9135  -44.7618 H         1 UNK         0.0454 
     81 H81        21.7806  -24.0306  -47.0125 H         1 UNK         0.0851 
     82 H82        20.7287  -25.3644  -47.4631 H         1 UNK         0.0851 
     83 H83        20.0522  -23.7653  -47.1486 H         1 UNK         0.0851 
     84 H84        18.7235  -25.5067  -45.9417 H         1 UNK         0.2976 
     85 H85        21.0498  -26.9283  -42.4864 H         1 UNK         0.3116 
     86 H86        22.1542  -28.0755  -40.1474 H         1 UNK         0.0646 
     87 H87        20.7229  -26.4496  -38.9594 H         1 UNK         0.0847 
     88 H88        19.8408  -27.1566  -40.3023 H         1 UNK         0.0847 
     89 H89        20.4919  -25.5231  -40.4339 H         1 UNK         0.0847 
     90 H90        23.3502  -25.4478  -42.0469 H         1 UNK         0.3040 
     91 H91        24.9393  -24.1602  -39.9755 H         1 UNK         0.1015 
     92 H92        24.2047  -22.9379  -42.0196 H         1 UNK         0.0786 
     93 H93        25.1074  -24.0581  -43.0393 H         1 UNK         0.0786 
     94 H94        25.9576  -22.9886  -41.9318 H         1 UNK         0.0786 
     95 H95        25.2751  -27.0830  -41.8354 H         1 UNK         0.3172 
     96 H96        28.2220  -27.2371  -41.2838 H         1 UNK         0.0595 
     97 H97        27.7164  -27.1306  -43.7102 H         1 UNK         0.0839 
     98 H98        26.5948  -28.4826  -43.5630 H         1 UNK         0.0839 
     99 H99        28.3130  -28.7239  -43.2747 H         1 UNK         0.0839 
    100 H100       25.1130  -29.0493  -41.3656 H         1 UNK         0.2998 
    101 H101       26.0445  -30.8835  -39.2758 H         1 UNK         0.0822 
    102 H102       26.8350  -32.0237  -41.3403 H         1 UNK         0.0787 
    103 H103       25.4805  -32.9023  -40.6625 H         1 UNK         0.0787 
    104 H104       25.2464  -31.8732  -42.0787 H         1 UNK         0.0787 
    105 H105       23.4383  -32.1646  -40.9912 H         1 UNK         0.3055 
    106 H106       21.2555  -30.5656  -40.2299 H         1 UNK         0.1106 
    107 H107       21.8126  -33.0010  -38.4120 H         1 UNK         0.0828 
    108 H108       21.8106  -31.3233  -37.8760 H         1 UNK         0.0828 
    109 H109       20.3234  -32.0684  -38.4112 H         1 UNK         0.0828 
    110 H110       19.2081  -32.1301  -40.3725 H         1 UNK         0.2931 
    111 H111       19.3154  -33.5713  -42.8481 H         1 UNK         0.0412 
    112 H112       19.6523  -36.9973  -41.9619 H         1 UNK         0.3472 
    113 H113       19.3743  -35.8379  -43.2362 H         1 UNK         0.3472 
    114 H114       17.2844  -32.2972  -41.7897 H         1 UNK         0.0970 
    115 H115       17.0181  -33.7121  -40.8193 H         1 UNK         0.0970 
    116 H116       15.0090  -32.2785  -42.8602 H         1 UNK         0.0612 
    117 H117       14.6996  -33.1522  -44.3392 H         1 UNK         0.0612 
@<TRIPOS>BOND
     1    1    2 1    
     2    1   62 1    
     3    1   63 1    
     4    1   64 1    
     5    2    3 2    
     6    2    4 am   BACKBONE|DICT|INTERRES
     7    4    5 1    
     8    4   65 1    
     9    5    6 1    
    10    5   25 1    
    11    5   66 1    
    12    6    7 1    
    13    6   67 1    
    14    6   68 1    
    15    7    8 1    
    16    8    9 1    
    17    8   69 1    
    18    8   70 1    
    19    9   10 ar   
    20    9   14 ar   
    21   10   11 ar   
    22   10   71 1    
    23   11   12 ar   
    24   11   61 1    
    25   12   13 ar   
    26   12   72 1    
    27   13   14 ar   
    28   13   15 1    
    29   14   73 1    
    30   15   16 1    
    31   15   74 1    
    32   15   75 1    
    33   16   17 1    
    34   17   18 1    
    35   17   76 1    
    36   17   77 1    
    37   18   19 1    
    38   18   27 1    
    39   18   78 1    
    40   19   20 am   BACKBONE|DICT|INTERRES
    41   19   79 1    
    42   20   21 2    
    43   20   22 1    
    44   22   23 1    
    45   22   24 1    
    46   22   80 1    
    47   23   81 1    
    48   23   82 1    
    49   23   83 1    
    50   24   25 am   BACKBONE|DICT|INTERRES
    51   24   84 1    
    52   25   26 2    
    53   27   28 2    
    54   27   29 am   BACKBONE|DICT|INTERRES
    55   29   30 1    
    56   29   85 1    
    57   30   31 1    
    58   30   32 1    
    59   30   86 1    
    60   31   87 1    
    61   31   88 1    
    62   31   89 1    
    63   32   33 2    
    64   32   34 am   BACKBONE|DICT|INTERRES
    65   34   35 1    
    66   34   90 1    
    67   35   36 1    
    68   35   37 1    
    69   35   91 1    
    70   36   92 1    
    71   36   93 1    
    72   36   94 1    
    73   37   38 2    
    74   37   39 am   BACKBONE|DICT|INTERRES
    75   39   40 1    
    76   39   95 1    
    77   40   41 1    
    78   40   42 1    
    79   40   96 1    
    80   41   97 1    
    81   41   98 1    
    82   41   99 1    
    83   42   43 2    
    84   42   44 am   BACKBONE|DICT|INTERRES
    85   44   45 1    
    86   44  100 1    
    87   45   46 1    
    88   45   47 1    
    89   45  101 1    
    90   46  102 1    
    91   46  103 1    
    92   46  104 1    
    93   47   48 2    
    94   47   49 am   BACKBONE|DICT|INTERRES
    95   49   50 1    
    96   49  105 1    
    97   50   51 1    
    98   50   52 1    
    99   50  106 1    
   100   51  107 1    
   101   51  108 1    
   102   51  109 1    
   103   52   53 2    
   104   52   54 am   BACKBONE|DICT|INTERRES
   105   54   55 1    
   106   54  110 1    
   107   55   56 1    
   108   55   59 1    
   109   55  111 1    
   110   56   57 am   BACKBONE|DICT|INTERRES
   111   56   58 2    
   112   57  112 1    
   113   57  113 1    
   114   59   60 1    
   115   59  114 1    
   116   59  115 1    
   117   60   61 1    
   118   61  116 1    
   119   61  117 1    
@<TRIPOS>SUBSTRUCTURE
     1 UNK         1 GROUP             0       ****    0 ROOT    
