@<TRIPOS>MOLECULE
3R8
117   119    1
SMALL
USER_CHARGES


@<TRIPOS>ATOM
      1 CA         16.9049  -25.8433  -49.6237 C.3       0 UNK        -0.2013 
      2 C          16.5585  -24.8606  -48.5083 C.2       0 UNK         0.4866 
      3 O          15.7532  -23.9574  -48.7265 O.2       0 UNK        -0.5176 
      4 N          17.1354  -24.9854  -47.3080 N.am      1 UNK        -0.4884 
      5 CA         18.1405  -25.9664  -46.9023 C.3       1 UNK         0.0853 
      6 C6         17.4935  -27.2939  -46.4266 C.3       10 UNK        -0.0849 
      7 S7         18.6345  -28.7084  -46.5729 S.3       10 UNK        -0.2776 
      8 C8         17.6625  -30.0295  -45.7844 C.3       10 UNK         0.0316 
      9 C9         17.7498  -29.9806  -44.2649 C.ar      10 UNK        -0.0863 
     10 C10        18.7970  -30.6291  -43.6030 C.ar      10 UNK        -0.1009 
     11 C11        18.8537  -30.6431  -42.2062 C.ar      10 UNK        -0.0712 
     12 C12        17.8585  -29.9942  -41.4713 C.ar      10 UNK        -0.0894 
     13 C13        16.8329  -29.3005  -42.1210 C.ar      10 UNK        -0.0745 
     14 C14        16.7744  -29.3118  -43.5183 C.ar      10 UNK        -0.0972 
     15 C15        15.7942  -28.5315  -41.3140 C.3       10 UNK         0.0209 
     16 S16        16.5457  -27.2644  -40.2353 S.3       10 UNK        -0.2568 
     17 C17        17.4046  -26.1859  -41.4333 C.3       10 UNK        -0.0983 
     18 CA         18.9181  -26.4996  -41.5380 C.3       3 UNK         0.0876 
     19 N          19.5031  -25.9322  -42.7528 N.am      3 UNK        -0.4424 
     20 C          20.7434  -26.1707  -43.1980 C.2       2 UNK         0.4918 
     21 O          21.5446  -26.9043  -42.6161 O.2       2 UNK        -0.4875 
     22 CA         21.1373  -25.4914  -44.5253 C.3       2 UNK         0.0481 
     23 CB         22.5713  -25.8399  -44.9669 C.3       2 UNK        -0.1831 
     24 N          20.2127  -25.8533  -45.6026 N.am      2 UNK        -0.4498 
     25 C          18.9943  -25.3325  -45.7918 C.2       1 UNK         0.5027 
     26 O          18.5223  -24.4279  -45.0953 O.2       1 UNK        -0.4969 
     27 C          19.7095  -26.0519  -40.2928 C.2       3 UNK         0.5005 
     28 O          20.0012  -24.8615  -40.1553 O.2       3 UNK        -0.5279 
     29 N          20.0986  -27.0243  -39.4550 N.am      4 UNK        -0.4463 
     30 CA         20.9681  -26.9303  -38.2707 C.3       4 UNK         0.0283 
     31 CB         20.3851  -25.9724  -37.2130 C.3       4 UNK        -0.1875 
     32 C          22.4452  -26.5958  -38.5690 C.2       4 UNK         0.4949 
     33 O          23.3112  -27.0005  -37.7933 O.2       4 UNK        -0.5039 
     34 N          22.7193  -25.8806  -39.6671 N.am      5 UNK        -0.4663 
     35 CA         24.0615  -25.5320  -40.1350 C.3       5 UNK         0.0242 
     36 CB         23.9623  -24.3802  -41.1478 C.3       5 UNK        -0.1982 
     37 C          24.8151  -26.7299  -40.7377 C.2       5 UNK         0.5017 
     38 O          26.0259  -26.8371  -40.5371 O.2       5 UNK        -0.5012 
     39 N          24.0986  -27.6019  -41.4619 N.am      6 UNK        -0.4439 
     40 CA         24.6247  -28.8413  -42.0379 C.3       6 UNK         0.0297 
     41 CB         23.5752  -29.4481  -42.9830 C.3       6 UNK        -0.2006 
     42 C          25.0145  -29.8580  -40.9516 C.2       6 UNK         0.4892 
     43 O          24.2717  -30.0312  -39.9827 O.2       6 UNK        -0.5089 
     44 N          26.1565  -30.5300  -41.1523 N.am      7 UNK        -0.4243 
     45 CA         26.6888  -31.5558  -40.2476 C.3       7 UNK         0.0196 
     46 CB         28.1583  -31.8338  -40.6042 C.3       7 UNK        -0.2007 
     47 C          25.8766  -32.8633  -40.2593 C.2       7 UNK         0.5020 
     48 O          25.8438  -33.5636  -39.2470 O.2       7 UNK        -0.5147 
     49 N          25.2337  -33.1640  -41.3918 N.am      8 UNK        -0.4734 
     50 CA         24.3121  -34.2786  -41.5792 C.3       8 UNK         0.0238 
     51 CB         25.0799  -35.5299  -42.0399 C.3       8 UNK        -0.1912 
     52 C          23.2740  -33.8483  -42.6187 C.2       8 UNK         0.5038 
     53 O          23.6262  -33.1315  -43.5599 O.2       8 UNK        -0.5046 
     54 N          22.0242  -34.2772  -42.4260 N.am      9 UNK        -0.4200 
     55 CA         20.8929  -33.9510  -43.3042 C.3       9 UNK         0.0839 
     56 C          20.8336  -34.8776  -44.5474 C.2       9 UNK         0.5513 
     57 N          20.2586  -34.4062  -45.6452 N.am      9 UNK        -0.7519 
     58 O          21.2679  -36.0276  -44.5169 O.2       9 UNK        -0.4960 
     59 C59        19.5434  -33.9555  -42.5342 C.3       10 UNK        -0.0876 
     60 S60        19.5610  -33.0215  -40.9602 S.3       10 UNK        -0.2414 
     61 C61        19.9992  -31.3334  -41.4832 C.3       10 UNK         0.0169 
     62 H62        17.8935  -25.6271  -50.0274 H         1 UNK         0.0903 
     63 H63        16.8876  -26.8750  -49.2756 H         1 UNK         0.0903 
     64 H64        16.1864  -25.7617  -50.4391 H         1 UNK         0.0903 
     65 H65        16.9429  -24.2990  -46.5875 H         1 UNK         0.3096 
     66 H66        18.8026  -26.1540  -47.7505 H         1 UNK         0.1121 
     67 H67        16.6133  -27.5292  -47.0262 H         1 UNK         0.0849 
     68 H68        17.1326  -27.2086  -45.4003 H         1 UNK         0.0849 
     69 H69        16.6232  -29.9718  -46.1122 H         1 UNK         0.0865 
     70 H70        18.0327  -30.9928  -46.1387 H         1 UNK         0.0865 
     71 H71        19.5642  -31.1281  -44.1777 H         1 UNK         0.1346 
     72 H72        17.8984  -30.0014  -40.3905 H         1 UNK         0.1412 
     73 H73        15.9684  -28.7999  -44.0259 H         1 UNK         0.1426 
     74 H74        15.2345  -29.2346  -40.6959 H         1 UNK         0.0716 
     75 H75        15.0665  -28.0502  -41.9693 H         1 UNK         0.0716 
     76 H76        17.2414  -25.1438  -41.1517 H         1 UNK         0.0695 
     77 H77        16.9269  -26.3087  -42.4069 H         1 UNK         0.0695 
     78 H78        19.0382  -27.5777  -41.6440 H         1 UNK         0.0983 
     79 H79        18.9253  -25.2948  -43.2886 H         1 UNK         0.3095 
     80 H80        21.0925  -24.4126  -44.3626 H         1 UNK         0.0454 
     81 H81        22.8541  -25.2878  -45.8631 H         1 UNK         0.0851 
     82 H82        22.6796  -26.9031  -45.1819 H         1 UNK         0.0851 
     83 H83        23.2979  -25.5893  -44.1938 H         1 UNK         0.0851 
     84 H84        20.4872  -26.6406  -46.1743 H         1 UNK         0.2976 
     85 H85        19.8185  -27.9672  -39.6864 H         1 UNK         0.3116 
     86 H86        20.9679  -27.9310  -37.8354 H         1 UNK         0.0646 
     87 H87        20.3928  -24.9356  -37.5502 H         1 UNK         0.0847 
     88 H88        19.3582  -26.2363  -36.9605 H         1 UNK         0.0847 
     89 H89        20.9665  -26.0137  -36.2911 H         1 UNK         0.0847 
     90 H90        21.9337  -25.5418  -40.2110 H         1 UNK         0.3040 
     91 H91        24.6407  -25.1811  -39.2777 H         1 UNK         0.1015 
     92 H92        24.9472  -24.1085  -41.5304 H         1 UNK         0.0786 
     93 H93        23.5357  -23.4877  -40.6896 H         1 UNK         0.0786 
     94 H94        23.3399  -24.6457  -42.0019 H         1 UNK         0.0786 
     95 H95        23.1123  -27.4114  -41.6179 H         1 UNK         0.3172 
     96 H96        25.5111  -28.5885  -42.6236 H         1 UNK         0.0595 
     97 H97        22.6451  -29.6711  -42.4593 H         1 UNK         0.0839 
     98 H98        23.9329  -30.3781  -43.4263 H         1 UNK         0.0839 
     99 H99        23.3402  -28.7705  -43.8029 H         1 UNK         0.0839 
    100 H100       26.7044  -30.3243  -41.9758 H         1 UNK         0.2998 
    101 H101       26.6537  -31.1592  -39.2304 H         1 UNK         0.0822 
    102 H102       28.5896  -32.5742  -39.9288 H         1 UNK         0.0787 
    103 H103       28.2626  -32.2195  -41.6192 H         1 UNK         0.0787 
    104 H104       28.7648  -30.9315  -40.5221 H         1 UNK         0.0787 
    105 H105       25.2771  -32.5223  -42.1735 H         1 UNK         0.3055 
    106 H106       23.8012  -34.4894  -40.6365 H         1 UNK         0.1106 
    107 H107       25.8130  -35.8419  -41.2959 H         1 UNK         0.0828 
    108 H108       24.4008  -36.3687  -42.1983 H         1 UNK         0.0828 
    109 H109       25.6082  -35.3549  -42.9780 H         1 UNK         0.0828 
    110 H110       21.8183  -34.8881  -41.6496 H         1 UNK         0.2931 
    111 H111       21.0510  -32.9406  -43.6836 H         1 UNK         0.0412 
    112 H112       19.8934  -33.4680  -45.6853 H         1 UNK         0.3472 
    113 H113       20.1989  -35.0000  -46.4580 H         1 UNK         0.3472 
    114 H114       18.7449  -33.5562  -43.1621 H         1 UNK         0.0970 
    115 H115       19.2494  -34.9799  -42.2973 H         1 UNK         0.0970 
    116 H116       20.8978  -31.3468  -42.0994 H         1 UNK         0.0612 
    117 H117       20.2640  -30.7580  -40.5949 H         1 UNK         0.0612 
@<TRIPOS>BOND
     1    1    2 1    
     2    1   62 1    
     3    1   63 1    
     4    1   64 1    
     5    2    3 2    
     6    2    4 am   BACKBONE|DICT|INTERRES
     7    4    5 1    
     8    4   65 1    
     9    5    6 1    
    10    5   25 1    
    11    5   66 1    
    12    6    7 1    
    13    6   67 1    
    14    6   68 1    
    15    7    8 1    
    16    8    9 1    
    17    8   69 1    
    18    8   70 1    
    19    9   10 ar   
    20    9   14 ar   
    21   10   11 ar   
    22   10   71 1    
    23   11   12 ar   
    24   11   61 1    
    25   12   13 ar   
    26   12   72 1    
    27   13   14 ar   
    28   13   15 1    
    29   14   73 1    
    30   15   16 1    
    31   15   74 1    
    32   15   75 1    
    33   16   17 1    
    34   17   18 1    
    35   17   76 1    
    36   17   77 1    
    37   18   19 1    
    38   18   27 1    
    39   18   78 1    
    40   19   20 am   BACKBONE|DICT|INTERRES
    41   19   79 1    
    42   20   21 2    
    43   20   22 1    
    44   22   23 1    
    45   22   24 1    
    46   22   80 1    
    47   23   81 1    
    48   23   82 1    
    49   23   83 1    
    50   24   25 am   BACKBONE|DICT|INTERRES
    51   24   84 1    
    52   25   26 2    
    53   27   28 2    
    54   27   29 am   BACKBONE|DICT|INTERRES
    55   29   30 1    
    56   29   85 1    
    57   30   31 1    
    58   30   32 1    
    59   30   86 1    
    60   31   87 1    
    61   31   88 1    
    62   31   89 1    
    63   32   33 2    
    64   32   34 am   BACKBONE|DICT|INTERRES
    65   34   35 1    
    66   34   90 1    
    67   35   36 1    
    68   35   37 1    
    69   35   91 1    
    70   36   92 1    
    71   36   93 1    
    72   36   94 1    
    73   37   38 2    
    74   37   39 am   BACKBONE|DICT|INTERRES
    75   39   40 1    
    76   39   95 1    
    77   40   41 1    
    78   40   42 1    
    79   40   96 1    
    80   41   97 1    
    81   41   98 1    
    82   41   99 1    
    83   42   43 2    
    84   42   44 am   BACKBONE|DICT|INTERRES
    85   44   45 1    
    86   44  100 1    
    87   45   46 1    
    88   45   47 1    
    89   45  101 1    
    90   46  102 1    
    91   46  103 1    
    92   46  104 1    
    93   47   48 2    
    94   47   49 am   BACKBONE|DICT|INTERRES
    95   49   50 1    
    96   49  105 1    
    97   50   51 1    
    98   50   52 1    
    99   50  106 1    
   100   51  107 1    
   101   51  108 1    
   102   51  109 1    
   103   52   53 2    
   104   52   54 am   BACKBONE|DICT|INTERRES
   105   54   55 1    
   106   54  110 1    
   107   55   56 1    
   108   55   59 1    
   109   55  111 1    
   110   56   57 am   BACKBONE|DICT|INTERRES
   111   56   58 2    
   112   57  112 1    
   113   57  113 1    
   114   59   60 1    
   115   59  114 1    
   116   59  115 1    
   117   60   61 1    
   118   61  116 1    
   119   61  117 1    
@<TRIPOS>SUBSTRUCTURE
     1 UNK         1 GROUP             0       ****    0 ROOT    
