@<TRIPOS>MOLECULE
3R8
117   119    1
SMALL
USER_CHARGES


@<TRIPOS>ATOM
      1 CA         20.8515  -23.8101  -49.0583 C.3       0 UNK        -0.2013 
      2 C          19.5858  -24.5948  -49.3966 C.2       0 UNK         0.4866 
      3 O          18.9140  -24.2621  -50.3712 O.2       0 UNK        -0.5176 
      4 N          19.2221  -25.6445  -48.6456 N.am      1 UNK        -0.4884 
      5 CA         19.8567  -26.1132  -47.4082 C.3       1 UNK         0.0853 
      6 C6         19.3967  -27.5512  -47.0670 C.3       10 UNK        -0.0849 
      7 S7         20.5720  -28.4305  -45.9840 S.3       10 UNK        -0.2776 
      8 C8         19.7497  -30.0506  -45.8555 C.3       10 UNK         0.0316 
      9 C9         19.0737  -30.2333  -44.5053 C.ar      10 UNK        -0.0863 
     10 C10        19.6412  -31.0800  -43.5488 C.ar      10 UNK        -0.1009 
     11 C11        19.0228  -31.2723  -42.3106 C.ar      10 UNK        -0.0712 
     12 C12        17.8272  -30.6070  -42.0301 C.ar      10 UNK        -0.0894 
     13 C13        17.2554  -29.7464  -42.9734 C.ar      10 UNK        -0.0745 
     14 C14        17.8765  -29.5723  -44.2140 C.ar      10 UNK        -0.0972 
     15 C15        15.9775  -28.9918  -42.6406 C.3       10 UNK         0.0209 
     16 S16        16.2293  -27.8239  -41.2663 S.3       10 UNK        -0.2568 
     17 C17        17.2669  -26.5245  -42.0269 C.3       10 UNK        -0.0983 
     18 CA         18.8062  -26.7789  -41.9883 C.3       3 UNK         0.0876 
     19 N          19.5136  -25.9914  -43.0061 N.am      3 UNK        -0.4424 
     20 C          19.5847  -24.6523  -43.0716 C.2       2 UNK         0.4918 
     21 O          19.0089  -23.8879  -42.2962 O.2       2 UNK        -0.4875 
     22 CA         20.4393  -24.0519  -44.2038 C.3       2 UNK         0.0481 
     23 CB         21.8446  -23.6977  -43.6922 C.3       2 UNK        -0.1831 
     24 N          20.5529  -24.9236  -45.3771 N.am      2 UNK        -0.4498 
     25 C          19.5563  -25.1468  -46.2445 C.2       1 UNK         0.5027 
     26 O          18.4373  -24.6362  -46.1508 O.2       1 UNK        -0.4969 
     27 C          19.4555  -26.6352  -40.5878 C.2       3 UNK         0.5005 
     28 O          20.5615  -26.0995  -40.4665 O.2       3 UNK        -0.5279 
     29 N          18.7793  -27.1676  -39.5603 N.am      4 UNK        -0.4463 
     30 CA         19.1328  -27.2372  -38.1346 C.3       4 UNK         0.0283 
     31 CB         19.2763  -25.8318  -37.5181 C.3       4 UNK        -0.1875 
     32 C          20.3611  -28.1113  -37.8219 C.2       4 UNK         0.4949 
     33 O          20.2699  -28.9963  -36.9711 O.2       4 UNK        -0.5039 
     34 N          21.4750  -27.8508  -38.5084 N.am      5 UNK        -0.4663 
     35 CA         22.7438  -28.5604  -38.4045 C.3       5 UNK         0.0242 
     36 CB         23.4947  -28.1393  -37.1240 C.3       5 UNK        -0.1982 
     37 C          23.5378  -28.2827  -39.6868 C.2       5 UNK         0.5017 
     38 O          24.5135  -27.5300  -39.6549 O.2       5 UNK        -0.5012 
     39 N          23.0677  -28.8447  -40.8050 N.am      6 UNK        -0.4439 
     40 CA         23.6378  -28.6704  -42.1376 C.3       6 UNK         0.0297 
     41 CB         22.7913  -27.6449  -42.9087 C.3       6 UNK        -0.2006 
     42 C          23.6292  -30.0177  -42.8617 C.2       6 UNK         0.4892 
     43 O          22.7324  -30.8256  -42.6183 O.2       6 UNK        -0.5089 
     44 N          24.6079  -30.2258  -43.7542 N.am      7 UNK        -0.4243 
     45 CA         24.7673  -31.4015  -44.6202 C.3       7 UNK         0.0196 
     46 CB         23.7520  -31.3324  -45.7839 C.3       7 UNK        -0.2007 
     47 C          24.7152  -32.7224  -43.8247 C.2       7 UNK         0.5020 
     48 O          25.6437  -33.0036  -43.0662 O.2       7 UNK        -0.5147 
     49 N          23.6195  -33.4793  -43.9756 N.am      8 UNK        -0.4734 
     50 CA         23.3390  -34.7418  -43.2857 C.3       8 UNK         0.0238 
     51 CB         22.0377  -35.3371  -43.8485 C.3       8 UNK        -0.1912 
     52 C          23.2568  -34.6395  -41.7503 C.2       8 UNK         0.5038 
     53 O          23.4950  -35.6477  -41.0834 O.2       8 UNK        -0.5046 
     54 N          22.9346  -33.4519  -41.2213 N.am      9 UNK        -0.4200 
     55 CA         22.9292  -33.1403  -39.7831 C.3       9 UNK         0.0839 
     56 C          24.0743  -32.1744  -39.3637 C.2       9 UNK         0.5513 
     57 N          25.0504  -31.8844  -40.2170 N.am      9 UNK        -0.7519 
     58 O          24.1046  -31.7072  -38.2291 O.2       9 UNK        -0.4960 
     59 C59        21.5198  -32.7235  -39.2701 C.3       10 UNK        -0.0876 
     60 S60        20.7495  -31.3205  -40.1499 S.3       10 UNK        -0.2414 
     61 C61        19.6406  -32.2093  -41.2851 C.3       10 UNK         0.0169 
     62 H62        20.7308  -23.2550  -48.1287 H         1 UNK         0.0903 
     63 H63        21.7159  -24.4672  -48.9713 H         1 UNK         0.0903 
     64 H64        21.0708  -23.0883  -49.8450 H         1 UNK         0.0903 
     65 H65        18.3642  -26.1193  -48.8883 H         1 UNK         0.3096 
     66 H66        20.9346  -26.1369  -47.5793 H         1 UNK         0.1121 
     67 H67        19.3184  -28.1371  -47.9847 H         1 UNK         0.0849 
     68 H68        18.3996  -27.5578  -46.6225 H         1 UNK         0.0849 
     69 H69        19.0150  -30.1753  -46.6523 H         1 UNK         0.0865 
     70 H70        20.4924  -30.8321  -46.0171 H         1 UNK         0.0865 
     71 H71        20.5673  -31.5934  -43.7658 H         1 UNK         0.1346 
     72 H72        17.3489  -30.7453  -41.0699 H         1 UNK         0.1412 
     73 H73        17.4352  -28.9133  -44.9482 H         1 UNK         0.1426 
     74 H74        15.2063  -29.7092  -42.3568 H         1 UNK         0.0716 
     75 H75        15.5939  -28.4553  -43.5099 H         1 UNK         0.0716 
     76 H76        17.0274  -25.5761  -41.5428 H         1 UNK         0.0695 
     77 H77        16.9392  -26.4120  -43.0618 H         1 UNK         0.0695 
     78 H78        18.9904  -27.8144  -42.2711 H         1 UNK         0.0983 
     79 H79        20.0334  -26.5247  -43.6868 H         1 UNK         0.3095 
     80 H80        19.9572  -23.1232  -44.5171 H         1 UNK         0.0454 
     81 H81        22.4251  -23.1769  -44.4538 H         1 UNK         0.0851 
     82 H82        22.4033  -24.5831  -43.3906 H         1 UNK         0.0851 
     83 H83        21.7884  -23.0392  -42.8242 H         1 UNK         0.0851 
     84 H84        21.4401  -25.3869  -45.5153 H         1 UNK         0.2976 
     85 H85        17.8932  -27.6006  -39.7962 H         1 UNK         0.3116 
     86 H86        18.2803  -27.7156  -37.6495 H         1 UNK         0.0646 
     87 H87        20.1087  -25.2762  -37.9507 H         1 UNK         0.0847 
     88 H88        18.3708  -25.2424  -37.6611 H         1 UNK         0.0847 
     89 H89        19.4552  -25.8959  -36.4440 H         1 UNK         0.0847 
     90 H90        21.4195  -27.1267  -39.2253 H         1 UNK         0.3040 
     91 H91        22.5445  -29.6317  -38.3547 H         1 UNK         0.1015 
     92 H92        24.4632  -28.6374  -37.0629 H         1 UNK         0.0786 
     93 H93        22.9373  -28.4100  -36.2274 H         1 UNK         0.0786 
     94 H94        23.6736  -27.0638  -37.0957 H         1 UNK         0.0786 
     95 H95        22.3005  -29.5068  -40.7569 H         1 UNK         0.3172 
     96 H96        24.6689  -28.3174  -42.0687 H         1 UNK         0.0595 
     97 H97        21.7690  -27.9995  -43.0469 H         1 UNK         0.0839 
     98 H98        23.2083  -27.4520  -43.8978 H         1 UNK         0.0839 
     99 H99        22.7460  -26.6950  -42.3767 H         1 UNK         0.0839 
    100 H100       25.3169  -29.5131  -43.8567 H         1 UNK         0.2998 
    101 H101       25.7687  -31.3443  -45.0497 H         1 UNK         0.0822 
    102 H102       23.8601  -32.1835  -46.4578 H         1 UNK         0.0787 
    103 H103       22.7222  -31.3123  -45.4280 H         1 UNK         0.0787 
    104 H104       23.9047  -30.4329  -46.3805 H         1 UNK         0.0787 
    105 H105       22.8998  -33.1357  -44.5943 H         1 UNK         0.3055 
    106 H106       24.1585  -35.4268  -43.5137 H         1 UNK         0.1106 
    107 H107       22.1135  -35.5182  -44.9209 H         1 UNK         0.0828 
    108 H108       21.8093  -36.2942  -43.3771 H         1 UNK         0.0828 
    109 H109       21.1852  -34.6785  -43.6768 H         1 UNK         0.0828 
    110 H110       22.7817  -32.6557  -41.8349 H         1 UNK         0.2931 
    111 H111       23.1729  -34.0499  -39.2320 H         1 UNK         0.0412 
    112 H112       25.7961  -31.2771  -39.9180 H         1 UNK         0.3472 
    113 H113       25.0816  -32.3050  -41.1373 H         1 UNK         0.3472 
    114 H114       21.5590  -32.4747  -38.2081 H         1 UNK         0.0970 
    115 H115       20.8515  -33.5835  -39.3307 H         1 UNK         0.0970 
    116 H116       18.8578  -32.7055  -40.7097 H         1 UNK         0.0612 
    117 H117       20.1965  -32.9974  -41.7946 H         1 UNK         0.0612 
@<TRIPOS>BOND
     1    1    2 1    
     2    1   62 1    
     3    1   63 1    
     4    1   64 1    
     5    2    3 2    
     6    2    4 am   BACKBONE|DICT|INTERRES
     7    4    5 1    
     8    4   65 1    
     9    5    6 1    
    10    5   25 1    
    11    5   66 1    
    12    6    7 1    
    13    6   67 1    
    14    6   68 1    
    15    7    8 1    
    16    8    9 1    
    17    8   69 1    
    18    8   70 1    
    19    9   10 ar   
    20    9   14 ar   
    21   10   11 ar   
    22   10   71 1    
    23   11   12 ar   
    24   11   61 1    
    25   12   13 ar   
    26   12   72 1    
    27   13   14 ar   
    28   13   15 1    
    29   14   73 1    
    30   15   16 1    
    31   15   74 1    
    32   15   75 1    
    33   16   17 1    
    34   17   18 1    
    35   17   76 1    
    36   17   77 1    
    37   18   19 1    
    38   18   27 1    
    39   18   78 1    
    40   19   20 am   BACKBONE|DICT|INTERRES
    41   19   79 1    
    42   20   21 2    
    43   20   22 1    
    44   22   23 1    
    45   22   24 1    
    46   22   80 1    
    47   23   81 1    
    48   23   82 1    
    49   23   83 1    
    50   24   25 am   BACKBONE|DICT|INTERRES
    51   24   84 1    
    52   25   26 2    
    53   27   28 2    
    54   27   29 am   BACKBONE|DICT|INTERRES
    55   29   30 1    
    56   29   85 1    
    57   30   31 1    
    58   30   32 1    
    59   30   86 1    
    60   31   87 1    
    61   31   88 1    
    62   31   89 1    
    63   32   33 2    
    64   32   34 am   BACKBONE|DICT|INTERRES
    65   34   35 1    
    66   34   90 1    
    67   35   36 1    
    68   35   37 1    
    69   35   91 1    
    70   36   92 1    
    71   36   93 1    
    72   36   94 1    
    73   37   38 2    
    74   37   39 am   BACKBONE|DICT|INTERRES
    75   39   40 1    
    76   39   95 1    
    77   40   41 1    
    78   40   42 1    
    79   40   96 1    
    80   41   97 1    
    81   41   98 1    
    82   41   99 1    
    83   42   43 2    
    84   42   44 am   BACKBONE|DICT|INTERRES
    85   44   45 1    
    86   44  100 1    
    87   45   46 1    
    88   45   47 1    
    89   45  101 1    
    90   46  102 1    
    91   46  103 1    
    92   46  104 1    
    93   47   48 2    
    94   47   49 am   BACKBONE|DICT|INTERRES
    95   49   50 1    
    96   49  105 1    
    97   50   51 1    
    98   50   52 1    
    99   50  106 1    
   100   51  107 1    
   101   51  108 1    
   102   51  109 1    
   103   52   53 2    
   104   52   54 am   BACKBONE|DICT|INTERRES
   105   54   55 1    
   106   54  110 1    
   107   55   56 1    
   108   55   59 1    
   109   55  111 1    
   110   56   57 am   BACKBONE|DICT|INTERRES
   111   56   58 2    
   112   57  112 1    
   113   57  113 1    
   114   59   60 1    
   115   59  114 1    
   116   59  115 1    
   117   60   61 1    
   118   61  116 1    
   119   61  117 1    
@<TRIPOS>SUBSTRUCTURE
     1 UNK         1 GROUP             0       ****    0 ROOT    
