@<TRIPOS>MOLECULE
3R8
117   119    1
SMALL
USER_CHARGES


@<TRIPOS>ATOM
      1 CA         20.0033  -29.3190  -42.0667 C.3       0 UNK        -0.2013 
      2 C          19.5214  -27.8990  -41.8311 C.2       0 UNK         0.4866 
      3 O          20.1048  -27.1836  -41.0176 O.2       0 UNK        -0.5176 
      4 N          18.4651  -27.4715  -42.5351 N.am      1 UNK        -0.4884 
      5 CA         17.9960  -26.0804  -42.5084 C.3       1 UNK         0.0853 
      6 C6         16.5200  -25.9422  -42.9549 C.3       10 UNK        -0.0849 
      7 S7         16.1830  -26.4379  -44.6815 S.3       10 UNK        -0.2776 
      8 C8         15.2468  -27.9862  -44.4704 C.3       10 UNK         0.0316 
      9 C9         16.1516  -29.1974  -44.2841 C.ar      10 UNK        -0.0863 
     10 C10        16.0478  -29.9981  -43.1427 C.ar      10 UNK        -0.1009 
     11 C11        16.7983  -31.1740  -43.0269 C.ar      10 UNK        -0.0712 
     12 C12        17.6858  -31.5239  -44.0515 C.ar      10 UNK        -0.0894 
     13 C13        17.8241  -30.7160  -45.1846 C.ar      10 UNK        -0.0745 
     14 C14        17.0399  -29.5634  -45.2984 C.ar      10 UNK        -0.0972 
     15 C15        18.7523  -31.1441  -46.3177 C.3       10 UNK         0.0209 
     16 S16        19.6985  -29.7662  -47.0485 S.3       10 UNK        -0.2568 
     17 C17        21.2180  -29.7691  -46.0448 C.3       10 UNK        -0.0983 
     18 CA         22.0017  -28.4432  -46.2300 C.3       3 UNK         0.0876 
     19 N          21.3163  -27.3173  -45.5852 N.am      3 UNK        -0.4424 
     20 C          21.3721  -26.0402  -45.9895 C.2       2 UNK         0.4918 
     21 O          22.0789  -25.6670  -46.9274 O.2       2 UNK        -0.4875 
     22 CA         20.5063  -25.0098  -45.2389 C.3       2 UNK         0.0481 
     23 CB         19.8254  -24.0184  -46.2028 C.3       2 UNK        -0.1831 
     24 N          19.4989  -25.6588  -44.3987 N.am      2 UNK        -0.4498 
     25 C          18.9532  -25.1489  -43.2859 C.2       1 UNK         0.5027 
     26 O          19.1976  -24.0223  -42.8512 O.2       1 UNK        -0.4969 
     27 C          23.4660  -28.5315  -45.7539 C.2       3 UNK         0.5005 
     28 O          23.8535  -29.5131  -45.1159 O.2       3 UNK        -0.5279 
     29 N          24.2456  -27.4852  -46.0683 N.am      4 UNK        -0.4463 
     30 CA         25.6622  -27.2454  -45.7551 C.3       4 UNK         0.0283 
     31 CB         26.5752  -28.3258  -46.3682 C.3       4 UNK        -0.1875 
     32 C          25.9424  -27.0547  -44.2544 C.2       4 UNK         0.4949 
     33 O          26.4984  -26.0263  -43.8679 O.2       4 UNK        -0.5039 
     34 N          25.5421  -28.0342  -43.4399 N.am      5 UNK        -0.4663 
     35 CA         25.5467  -27.9694  -41.9819 C.3       5 UNK         0.0242 
     36 CB         25.5726  -29.4032  -41.4248 C.3       5 UNK        -0.1982 
     37 C          24.2999  -27.2294  -41.4746 C.2       5 UNK         0.5017 
     38 O          23.2666  -27.2307  -42.1487 O.2       5 UNK        -0.5012 
     39 N          24.4147  -26.6540  -40.2728 N.am      6 UNK        -0.4439 
     40 CA         23.2855  -26.1692  -39.4851 C.3       6 UNK         0.0297 
     41 CB         23.7097  -24.9281  -38.6813 C.3       6 UNK        -0.2006 
     42 C          22.8562  -27.3155  -38.5614 C.2       6 UNK         0.4892 
     43 O          23.6652  -27.7563  -37.7407 O.2       6 UNK        -0.5089 
     44 N          21.6174  -27.7890  -38.7414 N.am      7 UNK        -0.4243 
     45 CA         21.0437  -29.0060  -38.1580 C.3       7 UNK         0.0196 
     46 CB         20.9867  -28.9283  -36.6148 C.3       7 UNK        -0.2007 
     47 C          21.7419  -30.2705  -38.6997 C.2       7 UNK         0.5020 
     48 O          22.2947  -30.2385  -39.8013 O.2       7 UNK        -0.5147 
     49 N          21.6512  -31.3820  -37.9561 N.am      8 UNK        -0.4734 
     50 CA         22.1622  -32.7326  -38.2534 C.3       8 UNK         0.0238 
     51 CB         23.6938  -32.7354  -38.4339 C.3       8 UNK        -0.1912 
     52 C          21.4640  -33.4461  -39.4284 C.2       8 UNK         0.5038 
     53 O          21.1861  -34.6402  -39.3135 O.2       8 UNK        -0.5046 
     54 N          21.1801  -32.7126  -40.5123 N.am      9 UNK        -0.4200 
     55 CA         20.4515  -33.1496  -41.7169 C.3       9 UNK         0.0839 
     56 C          21.2024  -34.2018  -42.5888 C.2       9 UNK         0.5513 
     57 N          22.5028  -34.4017  -42.4117 N.am      9 UNK        -0.7519 
     58 O          20.6078  -34.8223  -43.4664 O.2       9 UNK        -0.4960 
     59 C59        18.9807  -33.5571  -41.4091 C.3       10 UNK        -0.0876 
     60 S60        18.0051  -32.1798  -40.7053 S.3       10 UNK        -0.2414 
     61 C61        16.5781  -32.1001  -41.8348 C.3       10 UNK         0.0169 
     62 H62        19.8121  -29.9250  -41.1835 H         1 UNK         0.0903 
     63 H63        19.5072  -29.7813  -42.9172 H         1 UNK         0.0903 
     64 H64        21.0773  -29.3233  -42.2545 H         1 UNK         0.0903 
     65 H65        17.9692  -28.0991  -43.1557 H         1 UNK         0.3096 
     66 H66        18.0328  -25.7441  -41.4690 H         1 UNK         0.1121 
     67 H67        16.1951  -24.9066  -42.8370 H         1 UNK         0.0849 
     68 H68        15.8850  -26.5181  -42.2801 H         1 UNK         0.0849 
     69 H69        14.5387  -27.8857  -43.6464 H         1 UNK         0.0865 
     70 H70        14.6417  -28.1457  -45.3641 H         1 UNK         0.0865 
     71 H71        15.3448  -29.7323  -42.3648 H         1 UNK         0.1346 
     72 H72        18.2543  -32.4395  -43.9820 H         1 UNK         0.1412 
     73 H73        17.1021  -28.9567  -46.1918 H         1 UNK         0.1426 
     74 H74        18.1422  -31.5941  -47.1018 H         1 UNK         0.0716 
     75 H75        19.4450  -31.9192  -45.9855 H         1 UNK         0.0716 
     76 H76        21.8130  -30.6253  -46.3689 H         1 UNK         0.0695 
     77 H77        20.9735  -29.9395  -44.9950 H         1 UNK         0.0695 
     78 H78        22.0554  -28.2501  -47.3045 H         1 UNK         0.0983 
     79 H79        20.8114  -27.5371  -44.7418 H         1 UNK         0.3095 
     80 H80        21.1899  -24.4533  -44.5947 H         1 UNK         0.0454 
     81 H81        20.5594  -23.4953  -46.8169 H         1 UNK         0.0851 
     82 H82        19.2631  -23.2577  -45.6615 H         1 UNK         0.0851 
     83 H83        19.1359  -24.5270  -46.8775 H         1 UNK         0.0851 
     84 H84        19.1691  -26.5612  -44.7098 H         1 UNK         0.2976 
     85 H85        23.7792  -26.7175  -46.5433 H         1 UNK         0.3116 
     86 H86        25.9111  -26.3006  -46.2412 H         1 UNK         0.0646 
     87 H87        26.3947  -29.3115  -45.9385 H         1 UNK         0.0847 
     88 H88        26.4321  -28.3999  -47.4461 H         1 UNK         0.0847 
     89 H89        27.6258  -28.0877  -46.1969 H         1 UNK         0.0847 
     90 H90        25.0025  -28.7866  -43.8633 H         1 UNK         0.3040 
     91 H91        26.4414  -27.4390  -41.6477 H         1 UNK         0.1015 
     92 H92        25.5963  -29.4016  -40.3341 H         1 UNK         0.0786 
     93 H93        26.4519  -29.9482  -41.7686 H         1 UNK         0.0786 
     94 H94        24.6879  -29.9669  -41.7262 H         1 UNK         0.0786 
     95 H95        25.2855  -26.7545  -39.7700 H         1 UNK         0.3172 
     96 H96        22.4555  -25.8868  -40.1370 H         1 UNK         0.0595 
     97 H97        24.5340  -25.1438  -38.0002 H         1 UNK         0.0839 
     98 H98        22.8799  -24.5543  -38.0802 H         1 UNK         0.0839 
     99 H99        24.0233  -24.1186  -39.3406 H         1 UNK         0.0839 
    100 H100       21.0810  -27.4075  -39.5214 H         1 UNK         0.2998 
    101 H101       20.0173  -29.0493  -38.5254 H         1 UNK         0.0822 
    102 H102       20.3402  -29.7025  -36.2009 H         1 UNK         0.0787 
    103 H103       20.5826  -27.9713  -36.2841 H         1 UNK         0.0787 
    104 H104       21.9721  -29.0459  -36.1624 H         1 UNK         0.0787 
    105 H105       21.1423  -31.3072  -37.0857 H         1 UNK         0.3055 
    106 H106       21.9424  -33.3283  -37.3654 H         1 UNK         0.1106 
    107 H107       24.1947  -32.2967  -37.5710 H         1 UNK         0.0828 
    108 H108       24.0695  -33.7536  -38.5430 H         1 UNK         0.0828 
    109 H109       24.0061  -32.1806  -39.3190 H         1 UNK         0.0828 
    110 H110       21.5028  -31.7483  -40.5043 H         1 UNK         0.2931 
    111 H111       20.4090  -32.2667  -42.3552 H         1 UNK         0.0412 
    112 H112       23.0060  -33.8894  -41.7055 H         1 UNK         0.3472 
    113 H113       22.9827  -35.0747  -42.9885 H         1 UNK         0.3472 
    114 H114       18.4840  -33.9247  -42.3068 H         1 UNK         0.0970 
    115 H115       18.9518  -34.3927  -40.7087 H         1 UNK         0.0970 
    116 H116       16.3192  -33.0993  -42.1872 H         1 UNK         0.0612 
    117 H117       15.7178  -31.7626  -41.2550 H         1 UNK         0.0612 
@<TRIPOS>BOND
     1    1    2 1    
     2    1   62 1    
     3    1   63 1    
     4    1   64 1    
     5    2    3 2    
     6    2    4 am   BACKBONE|DICT|INTERRES
     7    4    5 1    
     8    4   65 1    
     9    5    6 1    
    10    5   25 1    
    11    5   66 1    
    12    6    7 1    
    13    6   67 1    
    14    6   68 1    
    15    7    8 1    
    16    8    9 1    
    17    8   69 1    
    18    8   70 1    
    19    9   10 ar   
    20    9   14 ar   
    21   10   11 ar   
    22   10   71 1    
    23   11   12 ar   
    24   11   61 1    
    25   12   13 ar   
    26   12   72 1    
    27   13   14 ar   
    28   13   15 1    
    29   14   73 1    
    30   15   16 1    
    31   15   74 1    
    32   15   75 1    
    33   16   17 1    
    34   17   18 1    
    35   17   76 1    
    36   17   77 1    
    37   18   19 1    
    38   18   27 1    
    39   18   78 1    
    40   19   20 am   BACKBONE|DICT|INTERRES
    41   19   79 1    
    42   20   21 2    
    43   20   22 1    
    44   22   23 1    
    45   22   24 1    
    46   22   80 1    
    47   23   81 1    
    48   23   82 1    
    49   23   83 1    
    50   24   25 am   BACKBONE|DICT|INTERRES
    51   24   84 1    
    52   25   26 2    
    53   27   28 2    
    54   27   29 am   BACKBONE|DICT|INTERRES
    55   29   30 1    
    56   29   85 1    
    57   30   31 1    
    58   30   32 1    
    59   30   86 1    
    60   31   87 1    
    61   31   88 1    
    62   31   89 1    
    63   32   33 2    
    64   32   34 am   BACKBONE|DICT|INTERRES
    65   34   35 1    
    66   34   90 1    
    67   35   36 1    
    68   35   37 1    
    69   35   91 1    
    70   36   92 1    
    71   36   93 1    
    72   36   94 1    
    73   37   38 2    
    74   37   39 am   BACKBONE|DICT|INTERRES
    75   39   40 1    
    76   39   95 1    
    77   40   41 1    
    78   40   42 1    
    79   40   96 1    
    80   41   97 1    
    81   41   98 1    
    82   41   99 1    
    83   42   43 2    
    84   42   44 am   BACKBONE|DICT|INTERRES
    85   44   45 1    
    86   44  100 1    
    87   45   46 1    
    88   45   47 1    
    89   45  101 1    
    90   46  102 1    
    91   46  103 1    
    92   46  104 1    
    93   47   48 2    
    94   47   49 am   BACKBONE|DICT|INTERRES
    95   49   50 1    
    96   49  105 1    
    97   50   51 1    
    98   50   52 1    
    99   50  106 1    
   100   51  107 1    
   101   51  108 1    
   102   51  109 1    
   103   52   53 2    
   104   52   54 am   BACKBONE|DICT|INTERRES
   105   54   55 1    
   106   54  110 1    
   107   55   56 1    
   108   55   59 1    
   109   55  111 1    
   110   56   57 am   BACKBONE|DICT|INTERRES
   111   56   58 2    
   112   57  112 1    
   113   57  113 1    
   114   59   60 1    
   115   59  114 1    
   116   59  115 1    
   117   60   61 1    
   118   61  116 1    
   119   61  117 1    
@<TRIPOS>SUBSTRUCTURE
     1 UNK         1 GROUP             0       ****    0 ROOT    
