@<TRIPOS>MOLECULE
3R8
117   119    1
SMALL
USER_CHARGES


@<TRIPOS>ATOM
      1 CA         19.7592  -24.7449  -41.9682 C.3       0 UNK        -0.2013 
      2 C          19.0192  -25.1587  -43.2306 C.2       0 UNK         0.4866 
      3 O          19.5432  -25.9468  -44.0168 O.2       0 UNK        -0.5176 
      4 N          17.8176  -24.6025  -43.4507 N.am      1 UNK        -0.4884 
      5 CA         16.8714  -24.9406  -44.5340 C.3       1 UNK         0.0853 
      6 C6         16.3283  -26.3927  -44.4243 C.3       10 UNK        -0.0849 
      7 S7         15.6685  -26.8275  -42.7734 S.3       10 UNK        -0.2776 
      8 C8         15.4634  -28.6386  -42.9046 C.3       10 UNK         0.0316 
      9 C9         16.7629  -29.3366  -43.2823 C.ar      10 UNK        -0.0863 
     10 C10        17.7518  -29.5701  -42.3214 C.ar      10 UNK        -0.1009 
     11 C11        18.9775  -30.1365  -42.6876 C.ar      10 UNK        -0.0712 
     12 C12        19.2083  -30.4679  -44.0267 C.ar      10 UNK        -0.0894 
     13 C13        18.2288  -30.2282  -44.9968 C.ar      10 UNK        -0.0745 
     14 C14        16.9974  -29.6952  -44.6128 C.ar      10 UNK        -0.0972 
     15 C15        18.5226  -30.4658  -46.4721 C.3       10 UNK         0.0209 
     16 S16        18.9281  -28.9038  -47.3304 S.3       10 UNK        -0.2568 
     17 C17        20.3996  -28.3969  -46.3878 C.3       10 UNK        -0.0983 
     18 CA         21.1027  -27.1228  -46.9220 C.3       3 UNK         0.0876 
     19 N          20.2928  -25.9187  -46.7480 N.am      3 UNK        -0.4424 
     20 C          20.1619  -24.9337  -47.6472 C.2       2 UNK         0.4918 
     21 O          20.6620  -24.9730  -48.7726 O.2       2 UNK        -0.4875 
     22 CA         19.3726  -23.6730  -47.2197 C.3       2 UNK         0.0481 
     23 CB         18.6009  -23.0280  -48.3909 C.3       2 UNK        -0.1831 
     24 N          18.5082  -23.8804  -46.0502 N.am      2 UNK        -0.4498 
     25 C          17.4268  -24.6713  -45.9575 C.2       1 UNK         0.5027 
     26 O          16.8908  -25.2056  -46.9297 O.2       1 UNK        -0.4969 
     27 C          22.4387  -26.9076  -46.1900 C.2       3 UNK         0.5005 
     28 O          23.4597  -26.6671  -46.8364 O.2       3 UNK        -0.5279 
     29 N          22.4036  -27.0204  -44.8560 N.am      4 UNK        -0.4463 
     30 CA         23.5347  -27.0630  -43.9328 C.3       4 UNK         0.0283 
     31 CB         24.4202  -28.2966  -44.2154 C.3       4 UNK        -0.1875 
     32 C          22.9753  -27.1283  -42.5042 C.2       4 UNK         0.4949 
     33 O          21.7724  -27.3290  -42.3265 O.2       4 UNK        -0.5039 
     34 N          23.8572  -26.9687  -41.5098 N.am      5 UNK        -0.4663 
     35 CA         23.5352  -27.0568  -40.0812 C.3       5 UNK         0.0242 
     36 CB         24.7956  -26.7077  -39.2715 C.3       5 UNK        -0.1982 
     37 C          23.0027  -28.4407  -39.6620 C.2       5 UNK         0.5017 
     38 O          23.2868  -29.4396  -40.3265 O.2       5 UNK        -0.5012 
     39 N          22.2888  -28.4795  -38.5271 N.am      6 UNK        -0.4439 
     40 CA         21.6543  -29.6743  -37.9507 C.3       6 UNK         0.0297 
     41 CB         20.9368  -29.2907  -36.6470 C.3       6 UNK        -0.2006 
     42 C          22.6010  -30.8656  -37.7087 C.2       6 UNK         0.4892 
     43 O          22.1583  -32.0119  -37.7705 O.2       6 UNK        -0.5089 
     44 N          23.8889  -30.5797  -37.4750 N.am      7 UNK        -0.4243 
     45 CA         24.9568  -31.5718  -37.3431 C.3       7 UNK         0.0196 
     46 CB         26.2346  -30.8677  -36.8579 C.3       7 UNK        -0.2007 
     47 C          25.2389  -32.3650  -38.6344 C.2       7 UNK         0.5020 
     48 O          25.7688  -33.4726  -38.5423 O.2       7 UNK        -0.5147 
     49 N          24.9020  -31.8025  -39.8053 N.am      8 UNK        -0.4734 
     50 CA         25.0825  -32.4561  -41.1025 C.3       8 UNK         0.0238 
     51 CB         25.1535  -31.3993  -42.2176 C.3       8 UNK        -0.1912 
     52 C          23.9729  -33.4775  -41.3916 C.2       8 UNK         0.5038 
     53 O          24.2807  -34.5781  -41.8517 O.2       8 UNK        -0.5046 
     54 N          22.7141  -33.0976  -41.1314 N.am      9 UNK        -0.4200 
     55 CA         21.5373  -33.9566  -41.3407 C.3       9 UNK         0.0839 
     56 C          21.2285  -34.9211  -40.1618 C.2       9 UNK         0.5513 
     57 N          21.6625  -34.6432  -38.9390 N.am      9 UNK        -0.7519 
     58 O          20.5990  -35.9556  -40.3682 O.2       9 UNK        -0.4960 
     59 C59        20.2894  -33.1536  -41.7925 C.3       10 UNK        -0.0876 
     60 S60        19.7916  -31.8258  -40.6414 S.3       10 UNK        -0.2414 
     61 C61        20.0695  -30.3322  -41.6442 C.3       10 UNK         0.0169 
     62 H62        19.8443  -25.5976  -41.2949 H         1 UNK         0.0903 
     63 H63        19.2502  -23.9401  -41.4387 H         1 UNK         0.0903 
     64 H64        20.7655  -24.4087  -42.2165 H         1 UNK         0.0903 
     65 H65        17.4595  -23.9434  -42.7727 H         1 UNK         0.3096 
     66 H66        16.0238  -24.2631  -44.4193 H         1 UNK         0.1121 
     67 H67        15.5369  -26.5693  -45.1551 H         1 UNK         0.0849 
     68 H68        17.1370  -27.0780  -44.6764 H         1 UNK         0.0849 
     69 H69        15.1035  -29.0263  -41.9504 H         1 UNK         0.0865 
     70 H70        14.6835  -28.8590  -43.6352 H         1 UNK         0.0865 
     71 H71        17.5798  -29.2834  -41.2929 H         1 UNK         0.1346 
     72 H72        20.1680  -30.8680  -44.3228 H         1 UNK         0.1412 
     73 H73        16.2481  -29.4916  -45.3658 H         1 UNK         0.1426 
     74 H74        19.3464  -31.1711  -46.5927 H         1 UNK         0.0716 
     75 H75        17.6551  -30.9217  -46.9516 H         1 UNK         0.0716 
     76 H76        21.0920  -29.2415  -46.3849 H         1 UNK         0.0695 
     77 H77        20.0895  -28.2447  -45.3533 H         1 UNK         0.0695 
     78 H78        21.3271  -27.2797  -47.9793 H         1 UNK         0.0983 
     79 H79        19.8818  -25.8066  -45.8231 H         1 UNK         0.3095 
     80 H80        20.1261  -22.9532  -46.8974 H         1 UNK         0.0454 
     81 H81        18.0458  -22.1484  -48.0658 H         1 UNK         0.0851 
     82 H82        17.8951  -23.7228  -48.8463 H         1 UNK         0.0851 
     83 H83        19.2842  -22.7047  -49.1770 H         1 UNK         0.0851 
     84 H84        18.8565  -23.4975  -45.1819 H         1 UNK         0.2976 
     85 H85        21.5071  -27.1230  -44.3845 H         1 UNK         0.3116 
     86 H86        24.1171  -26.1464  -44.0423 H         1 UNK         0.0646 
     87 H87        24.8867  -28.2439  -45.1987 H         1 UNK         0.0847 
     88 H88        25.2293  -28.3837  -43.4895 H         1 UNK         0.0847 
     89 H89        23.8419  -29.2201  -44.1699 H         1 UNK         0.0847 
     90 H90        24.8301  -26.8348  -41.7432 H         1 UNK         0.3040 
     91 H91        22.7597  -26.3164  -39.8726 H         1 UNK         0.1015 
     92 H92        25.6012  -27.4208  -39.4534 H         1 UNK         0.0786 
     93 H93        24.5929  -26.7122  -38.1997 H         1 UNK         0.0786 
     94 H94        25.1655  -25.7129  -39.5215 H         1 UNK         0.0786 
     95 H95        22.1277  -27.6122  -38.0348 H         1 UNK         0.3172 
     96 H96        20.8983  -30.0061  -38.6621 H         1 UNK         0.0595 
     97 H97        21.6327  -28.9076  -35.8995 H         1 UNK         0.0839 
     98 H98        20.4338  -30.1550  -36.2105 H         1 UNK         0.0839 
     99 H99        20.1743  -28.5310  -36.8200 H         1 UNK         0.0839 
    100 H100       24.1618  -29.6086  -37.4457 H         1 UNK         0.2998 
    101 H101       24.6502  -32.2918  -36.5812 H         1 UNK         0.0822 
    102 H102       26.0763  -30.3715  -35.9001 H         1 UNK         0.0787 
    103 H103       27.0461  -31.5836  -36.7192 H         1 UNK         0.0787 
    104 H104       26.5791  -30.1194  -37.5731 H         1 UNK         0.0787 
    105 H105       24.4342  -30.8994  -39.8132 H         1 UNK         0.3055 
    106 H106       26.0339  -32.9934  -41.0929 H         1 UNK         0.1106 
    107 H107       25.9403  -30.6698  -42.0252 H         1 UNK         0.0828 
    108 H108       25.3698  -31.8643  -43.1802 H         1 UNK         0.0828 
    109 H109       24.2136  -30.8575  -42.3247 H         1 UNK         0.0828 
    110 H110       22.5429  -32.1906  -40.7214 H         1 UNK         0.2931 
    111 H111       21.7669  -34.6140  -42.1820 H         1 UNK         0.0412 
    112 H112       21.4607  -35.2868  -38.1910 H         1 UNK         0.3472 
    113 H113       22.0733  -33.7409  -38.7236 H         1 UNK         0.3472 
    114 H114       20.4835  -32.7265  -42.7759 H         1 UNK         0.0970 
    115 H115       19.4364  -33.8196  -41.9360 H         1 UNK         0.0970 
    116 H116       20.0934  -29.4641  -40.9838 H         1 UNK         0.0612 
    117 H117       21.0553  -30.3776  -42.1105 H         1 UNK         0.0612 
@<TRIPOS>BOND
     1    1    2 1    
     2    1   62 1    
     3    1   63 1    
     4    1   64 1    
     5    2    3 2    
     6    2    4 am   BACKBONE|DICT|INTERRES
     7    4    5 1    
     8    4   65 1    
     9    5    6 1    
    10    5   25 1    
    11    5   66 1    
    12    6    7 1    
    13    6   67 1    
    14    6   68 1    
    15    7    8 1    
    16    8    9 1    
    17    8   69 1    
    18    8   70 1    
    19    9   10 ar   
    20    9   14 ar   
    21   10   11 ar   
    22   10   71 1    
    23   11   12 ar   
    24   11   61 1    
    25   12   13 ar   
    26   12   72 1    
    27   13   14 ar   
    28   13   15 1    
    29   14   73 1    
    30   15   16 1    
    31   15   74 1    
    32   15   75 1    
    33   16   17 1    
    34   17   18 1    
    35   17   76 1    
    36   17   77 1    
    37   18   19 1    
    38   18   27 1    
    39   18   78 1    
    40   19   20 am   BACKBONE|DICT|INTERRES
    41   19   79 1    
    42   20   21 2    
    43   20   22 1    
    44   22   23 1    
    45   22   24 1    
    46   22   80 1    
    47   23   81 1    
    48   23   82 1    
    49   23   83 1    
    50   24   25 am   BACKBONE|DICT|INTERRES
    51   24   84 1    
    52   25   26 2    
    53   27   28 2    
    54   27   29 am   BACKBONE|DICT|INTERRES
    55   29   30 1    
    56   29   85 1    
    57   30   31 1    
    58   30   32 1    
    59   30   86 1    
    60   31   87 1    
    61   31   88 1    
    62   31   89 1    
    63   32   33 2    
    64   32   34 am   BACKBONE|DICT|INTERRES
    65   34   35 1    
    66   34   90 1    
    67   35   36 1    
    68   35   37 1    
    69   35   91 1    
    70   36   92 1    
    71   36   93 1    
    72   36   94 1    
    73   37   38 2    
    74   37   39 am   BACKBONE|DICT|INTERRES
    75   39   40 1    
    76   39   95 1    
    77   40   41 1    
    78   40   42 1    
    79   40   96 1    
    80   41   97 1    
    81   41   98 1    
    82   41   99 1    
    83   42   43 2    
    84   42   44 am   BACKBONE|DICT|INTERRES
    85   44   45 1    
    86   44  100 1    
    87   45   46 1    
    88   45   47 1    
    89   45  101 1    
    90   46  102 1    
    91   46  103 1    
    92   46  104 1    
    93   47   48 2    
    94   47   49 am   BACKBONE|DICT|INTERRES
    95   49   50 1    
    96   49  105 1    
    97   50   51 1    
    98   50   52 1    
    99   50  106 1    
   100   51  107 1    
   101   51  108 1    
   102   51  109 1    
   103   52   53 2    
   104   52   54 am   BACKBONE|DICT|INTERRES
   105   54   55 1    
   106   54  110 1    
   107   55   56 1    
   108   55   59 1    
   109   55  111 1    
   110   56   57 am   BACKBONE|DICT|INTERRES
   111   56   58 2    
   112   57  112 1    
   113   57  113 1    
   114   59   60 1    
   115   59  114 1    
   116   59  115 1    
   117   60   61 1    
   118   61  116 1    
   119   61  117 1    
@<TRIPOS>SUBSTRUCTURE
     1 UNK         1 GROUP             0       ****    0 ROOT    
