@<TRIPOS>MOLECULE
3R8
117   119    1
SMALL
USER_CHARGES


@<TRIPOS>ATOM
      1 CA         13.9473  -25.1654  -41.5743 C.3       0 UNK        -0.2013 
      2 C          15.2925  -24.9239  -42.2426 C.2       0 UNK         0.4866 
      3 O          16.0833  -24.1195  -41.7502 O.2       0 UNK        -0.5176 
      4 N          15.5488  -25.6069  -43.3651 N.am      1 UNK        -0.4884 
      5 CA         16.8035  -25.5711  -44.1224 C.3       1 UNK         0.0853 
      6 C6         16.6400  -26.1343  -45.5648 C.3       10 UNK        -0.0849 
      7 S7         15.6455  -27.6709  -45.6801 S.3       10 UNK        -0.2776 
      8 C8         16.5966  -28.7008  -46.8481 C.3       10 UNK         0.0316 
      9 C9         17.5645  -29.6568  -46.1581 C.ar      10 UNK        -0.0863 
     10 C10        17.0899  -30.5926  -45.2322 C.ar      10 UNK        -0.1009 
     11 C11        17.9559  -31.5249  -44.6538 C.ar      10 UNK        -0.0712 
     12 C12        19.3086  -31.5156  -45.0057 C.ar      10 UNK        -0.0894 
     13 C13        19.8023  -30.5927  -45.9334 C.ar      10 UNK        -0.0745 
     14 C14        18.9199  -29.6657  -46.5064 C.ar      10 UNK        -0.0972 
     15 C15        21.2689  -30.6846  -46.3577 C.3       10 UNK         0.0209 
     16 S16        22.0495  -29.0943  -46.7999 S.3       10 UNK        -0.2568 
     17 C17        22.6981  -28.4934  -45.2043 C.3       10 UNK        -0.0983 
     18 CA         21.8563  -27.3125  -44.6518 C.3       3 UNK         0.0876 
     19 N          20.5374  -27.7222  -44.1541 N.am      3 UNK        -0.4424 
     20 C          20.2681  -28.4636  -43.0683 C.2       2 UNK         0.4918 
     21 O          21.1169  -29.0754  -42.4226 O.2       2 UNK        -0.4875 
     22 CA         18.7994  -28.5149  -42.5966 C.3       2 UNK         0.0481 
     23 CB         18.6886  -28.3476  -41.0677 C.3       2 UNK        -0.1831 
     24 N          17.8778  -27.5936  -43.2757 N.am      2 UNK        -0.4498 
     25 C          17.9406  -26.2566  -43.3426 C.2       1 UNK         0.5027 
     26 O          18.8505  -25.5840  -42.8539 O.2       1 UNK        -0.4969 
     27 C          22.6086  -26.4004  -43.6471 C.2       3 UNK         0.5005 
     28 O          23.8384  -26.3088  -43.6893 O.2       3 UNK        -0.5279 
     29 N          21.8482  -25.6853  -42.7985 N.am      4 UNK        -0.4463 
     30 CA         22.3046  -24.7590  -41.7602 C.3       4 UNK         0.0283 
     31 CB         22.8862  -23.4744  -42.3952 C.3       4 UNK        -0.1875 
     32 C          23.2390  -25.4532  -40.7499 C.2       4 UNK         0.4949 
     33 O          22.7872  -26.3457  -40.0319 O.2       4 UNK        -0.5039 
     34 N          24.5071  -25.0269  -40.6958 N.am      5 UNK        -0.4663 
     35 CA         25.5313  -25.5717  -39.8027 C.3       5 UNK         0.0242 
     36 CB         26.6240  -24.5091  -39.5972 C.3       5 UNK        -0.1982 
     37 C          26.1519  -26.8885  -40.3041 C.2       5 UNK         0.5017 
     38 O          26.7752  -27.5875  -39.5036 O.2       5 UNK        -0.5012 
     39 N          26.0024  -27.2005  -41.5986 N.am      6 UNK        -0.4439 
     40 CA         26.4984  -28.4335  -42.2086 C.3       6 UNK         0.0297 
     41 CB         26.9167  -28.1439  -43.6593 C.3       6 UNK        -0.2006 
     42 C          25.3994  -29.5012  -42.1748 C.2       6 UNK         0.4892 
     43 O          24.2273  -29.1614  -42.3216 O.2       6 UNK        -0.5089 
     44 N          25.7996  -30.7699  -42.0154 N.am      7 UNK        -0.4243 
     45 CA         24.9841  -31.9959  -42.0197 C.3       7 UNK         0.0196 
     46 CB         24.3068  -32.2146  -43.3883 C.3       7 UNK        -0.2007 
     47 C          23.9529  -32.1152  -40.8810 C.2       7 UNK         0.5020 
     48 O          23.9068  -33.1594  -40.2306 O.2       7 UNK        -0.5147 
     49 N          23.1231  -31.0812  -40.6841 N.am      8 UNK        -0.4734 
     50 CA         22.0184  -30.9783  -39.7185 C.3       8 UNK         0.0238 
     51 CB         22.5704  -30.8762  -38.2812 C.3       8 UNK        -0.1912 
     52 C          20.9648  -32.0960  -39.8768 C.2       8 UNK         0.5038 
     53 O          20.3871  -32.5424  -38.8838 O.2       8 UNK        -0.5046 
     54 N          20.7686  -32.5451  -41.1241 N.am      9 UNK        -0.4200 
     55 CA         19.9640  -33.7125  -41.5264 C.3       9 UNK         0.0839 
     56 C          20.5254  -35.0876  -41.0477 C.2       9 UNK         0.5513 
     57 N          21.7618  -35.1826  -40.5722 N.am      9 UNK        -0.7519 
     58 O          19.8394  -36.1024  -41.1416 O.2       9 UNK        -0.4960 
     59 C59        18.4420  -33.5601  -41.2326 C.3       10 UNK        -0.0876 
     60 S60        17.7180  -32.0479  -41.9490 S.3       10 UNK        -0.2414 
     61 C61        17.4294  -32.5613  -43.6713 C.3       10 UNK         0.0169 
     62 H62        13.3826  -24.2350  -41.5202 H         1 UNK         0.0903 
     63 H63        13.3467  -25.8952  -42.1170 H         1 UNK         0.0903 
     64 H64        14.0938  -25.5348  -40.5596 H         1 UNK         0.0903 
     65 H65        14.8594  -26.2547  -43.7227 H         1 UNK         0.3096 
     66 H66        17.0953  -24.5223  -44.2194 H         1 UNK         0.1121 
     67 H67        16.1332  -25.3866  -46.1770 H         1 UNK         0.0849 
     68 H68        17.6129  -26.2778  -46.0393 H         1 UNK         0.0849 
     69 H69        15.8910  -29.2966  -47.4289 H         1 UNK         0.0865 
     70 H70        17.1110  -28.0642  -47.5696 H         1 UNK         0.0865 
     71 H71        16.0395  -30.6053  -44.9745 H         1 UNK         0.1346 
     72 H72        19.9752  -32.2461  -44.5694 H         1 UNK         0.1412 
     73 H73        19.2824  -28.9692  -47.2496 H         1 UNK         0.1426 
     74 H74        21.8643  -31.1721  -45.5844 H         1 UNK         0.0716 
     75 H75        21.3189  -31.3355  -47.2313 H         1 UNK         0.0716 
     76 H76        23.7294  -28.1899  -45.3895 H         1 UNK         0.0695 
     77 H77        22.7540  -29.3091  -44.4848 H         1 UNK         0.0695 
     78 H78        21.6535  -26.6459  -45.4915 H         1 UNK         0.0983 
     79 H79        19.7506  -27.3029  -44.6242 H         1 UNK         0.3095 
     80 H80        18.4464  -29.5098  -42.8476 H         1 UNK         0.0454 
     81 H81        17.6519  -28.4050  -40.7366 H         1 UNK         0.0851 
     82 H82        19.0978  -27.3930  -40.7351 H         1 UNK         0.0851 
     83 H83        19.2332  -29.1359  -40.5473 H         1 UNK         0.0851 
     84 H84        17.1096  -28.0376  -43.7642 H         1 UNK         0.2976 
     85 H85        20.8416  -25.8193  -42.8355 H         1 UNK         0.3116 
     86 H86        21.4144  -24.4707  -41.1990 H         1 UNK         0.0646 
     87 H87        22.1447  -22.9847  -43.0264 H         1 UNK         0.0847 
     88 H88        23.1759  -22.7520  -41.6309 H         1 UNK         0.0847 
     89 H89        23.7603  -23.6740  -43.0160 H         1 UNK         0.0847 
     90 H90        24.7970  -24.2993  -41.3334 H         1 UNK         0.3040 
     91 H91        25.0740  -25.7811  -38.8328 H         1 UNK         0.1015 
     92 H92        27.1223  -24.2550  -40.5336 H         1 UNK         0.0786 
     93 H93        27.3903  -24.8649  -38.9069 H         1 UNK         0.0786 
     94 H94        26.2122  -23.5922  -39.1748 H         1 UNK         0.0786 
     95 H95        25.3662  -26.6504  -42.1668 H         1 UNK         0.3172 
     96 H96        27.3728  -28.7969  -41.6645 H         1 UNK         0.0595 
     97 H97        26.0749  -27.7980  -44.2606 H         1 UNK         0.0839 
     98 H98        27.3118  -29.0402  -44.1390 H         1 UNK         0.0839 
     99 H99        27.6949  -27.3819  -43.7034 H         1 UNK         0.0839 
    100 H100       26.7885  -30.9260  -41.8749 H         1 UNK         0.2998 
    101 H101       25.6928  -32.8137  -41.8778 H         1 UNK         0.0822 
    102 H102       23.7863  -33.1729  -43.4165 H         1 UNK         0.0787 
    103 H103       23.5712  -31.4408  -43.6085 H         1 UNK         0.0787 
    104 H104       25.0382  -32.2193  -44.1964 H         1 UNK         0.0787 
    105 H105       23.2524  -30.2730  -41.2964 H         1 UNK         0.3055 
    106 H106       21.5042  -30.0425  -39.9415 H         1 UNK         0.1106 
    107 H107       21.7712  -30.6716  -37.5678 H         1 UNK         0.0828 
    108 H108       23.0574  -31.8005  -37.9689 H         1 UNK         0.0828 
    109 H109       23.2956  -30.0671  -38.1930 H         1 UNK         0.0828 
    110 H110       21.2915  -32.0970  -41.8619 H         1 UNK         0.2931 
    111 H111       20.0712  -33.7535  -42.6103 H         1 UNK         0.0412 
    112 H112       22.1037  -36.0849  -40.2819 H         1 UNK         0.3472 
    113 H113       22.3606  -34.3688  -40.4787 H         1 UNK         0.3472 
    114 H114       17.8831  -34.4175  -41.6121 H         1 UNK         0.0970 
    115 H115       18.2636  -33.5463  -40.1565 H         1 UNK         0.0970 
    116 H116       16.3602  -32.7208  -43.8176 H         1 UNK         0.0612 
    117 H117       17.9087  -33.5208  -43.8704 H         1 UNK         0.0612 
@<TRIPOS>BOND
     1    1    2 1    
     2    1   62 1    
     3    1   63 1    
     4    1   64 1    
     5    2    3 2    
     6    2    4 am   BACKBONE|DICT|INTERRES
     7    4    5 1    
     8    4   65 1    
     9    5    6 1    
    10    5   25 1    
    11    5   66 1    
    12    6    7 1    
    13    6   67 1    
    14    6   68 1    
    15    7    8 1    
    16    8    9 1    
    17    8   69 1    
    18    8   70 1    
    19    9   10 ar   
    20    9   14 ar   
    21   10   11 ar   
    22   10   71 1    
    23   11   12 ar   
    24   11   61 1    
    25   12   13 ar   
    26   12   72 1    
    27   13   14 ar   
    28   13   15 1    
    29   14   73 1    
    30   15   16 1    
    31   15   74 1    
    32   15   75 1    
    33   16   17 1    
    34   17   18 1    
    35   17   76 1    
    36   17   77 1    
    37   18   19 1    
    38   18   27 1    
    39   18   78 1    
    40   19   20 am   BACKBONE|DICT|INTERRES
    41   19   79 1    
    42   20   21 2    
    43   20   22 1    
    44   22   23 1    
    45   22   24 1    
    46   22   80 1    
    47   23   81 1    
    48   23   82 1    
    49   23   83 1    
    50   24   25 am   BACKBONE|DICT|INTERRES
    51   24   84 1    
    52   25   26 2    
    53   27   28 2    
    54   27   29 am   BACKBONE|DICT|INTERRES
    55   29   30 1    
    56   29   85 1    
    57   30   31 1    
    58   30   32 1    
    59   30   86 1    
    60   31   87 1    
    61   31   88 1    
    62   31   89 1    
    63   32   33 2    
    64   32   34 am   BACKBONE|DICT|INTERRES
    65   34   35 1    
    66   34   90 1    
    67   35   36 1    
    68   35   37 1    
    69   35   91 1    
    70   36   92 1    
    71   36   93 1    
    72   36   94 1    
    73   37   38 2    
    74   37   39 am   BACKBONE|DICT|INTERRES
    75   39   40 1    
    76   39   95 1    
    77   40   41 1    
    78   40   42 1    
    79   40   96 1    
    80   41   97 1    
    81   41   98 1    
    82   41   99 1    
    83   42   43 2    
    84   42   44 am   BACKBONE|DICT|INTERRES
    85   44   45 1    
    86   44  100 1    
    87   45   46 1    
    88   45   47 1    
    89   45  101 1    
    90   46  102 1    
    91   46  103 1    
    92   46  104 1    
    93   47   48 2    
    94   47   49 am   BACKBONE|DICT|INTERRES
    95   49   50 1    
    96   49  105 1    
    97   50   51 1    
    98   50   52 1    
    99   50  106 1    
   100   51  107 1    
   101   51  108 1    
   102   51  109 1    
   103   52   53 2    
   104   52   54 am   BACKBONE|DICT|INTERRES
   105   54   55 1    
   106   54  110 1    
   107   55   56 1    
   108   55   59 1    
   109   55  111 1    
   110   56   57 am   BACKBONE|DICT|INTERRES
   111   56   58 2    
   112   57  112 1    
   113   57  113 1    
   114   59   60 1    
   115   59  114 1    
   116   59  115 1    
   117   60   61 1    
   118   61  116 1    
   119   61  117 1    
@<TRIPOS>SUBSTRUCTURE
     1 UNK         1 GROUP             0       ****    0 ROOT    
