@<TRIPOS>MOLECULE
3R8
117   119    1
SMALL
USER_CHARGES


@<TRIPOS>ATOM
      1 CA         19.8870  -27.9837  -41.4558 C.3       0 UNK        -0.2013 
      2 C          19.3866  -27.0012  -42.5037 C.2       0 UNK         0.4866 
      3 O          19.8162  -27.0812  -43.6523 O.2       0 UNK        -0.5176 
      4 N          18.4983  -26.0822  -42.0960 N.am      1 UNK        -0.4884 
      5 CA         17.7957  -25.0531  -42.8816 C.3       1 UNK         0.0853 
      6 C6         16.3355  -25.4688  -43.2386 C.3       10 UNK        -0.0849 
      7 S7         16.1398  -26.7806  -44.4998 S.3       10 UNK        -0.2776 
      8 C8         15.9815  -28.3054  -43.5055 C.3       10 UNK         0.0316 
      9 C9         17.0099  -29.3852  -43.8465 C.ar      10 UNK        -0.0863 
     10 C10        17.3756  -30.3070  -42.8612 C.ar      10 UNK        -0.1009 
     11 C11        18.2929  -31.3254  -43.1364 C.ar      10 UNK        -0.0712 
     12 C12        18.8649  -31.4080  -44.4099 C.ar      10 UNK        -0.0894 
     13 C13        18.5173  -30.4937  -45.4093 C.ar      10 UNK        -0.0745 
     14 C14        17.5729  -29.5016  -45.1243 C.ar      10 UNK        -0.0972 
     15 C15        19.1365  -30.6210  -46.8008 C.3       10 UNK         0.0209 
     16 S16        19.5397  -29.0265  -47.5977 S.3       10 UNK        -0.2568 
     17 C17        20.9064  -28.4307  -46.5495 C.3       10 UNK        -0.0983 
     18 CA         21.2142  -26.9283  -46.7781 C.3       3 UNK         0.0876 
     19 N          20.0617  -26.0618  -46.4975 N.am      3 UNK        -0.4424 
     20 C          19.9326  -24.8108  -46.9643 C.2       2 UNK         0.4918 
     21 O          20.7311  -24.2932  -47.7461 O.2       2 UNK        -0.4875 
     22 CA         18.7249  -23.9811  -46.4898 C.3       2 UNK         0.0481 
     23 CB         17.6582  -23.9146  -47.5944 C.3       2 UNK        -0.1831 
     24 N          18.1035  -24.4791  -45.2624 N.am      2 UNK        -0.4498 
     25 C          18.6243  -24.4203  -44.0302 C.2       1 UNK         0.5027 
     26 O          19.7111  -23.8963  -43.7760 O.2       1 UNK        -0.4969 
     27 C          22.4541  -26.4971  -45.9654 C.2       3 UNK         0.5005 
     28 O          23.5755  -26.7880  -46.3847 O.2       3 UNK        -0.5279 
     29 N          22.2293  -25.8144  -44.8292 N.am      4 UNK        -0.4463 
     30 CA         23.2178  -25.3150  -43.8660 C.3       4 UNK         0.0283 
     31 CB         24.1105  -24.2276  -44.4995 C.3       4 UNK        -0.1875 
     32 C          24.0245  -26.4480  -43.2030 C.2       4 UNK         0.4949 
     33 O          25.2020  -26.2717  -42.8889 O.2       4 UNK        -0.5039 
     34 N          23.3662  -27.5972  -42.9984 N.am      5 UNK        -0.4663 
     35 CA         23.9648  -28.8250  -42.4679 C.3       5 UNK         0.0242 
     36 CB         23.0841  -30.0154  -42.8776 C.3       5 UNK        -0.1982 
     37 C          24.1942  -28.8171  -40.9452 C.2       5 UNK         0.5017 
     38 O          24.8018  -29.7569  -40.4348 O.2       5 UNK        -0.5012 
     39 N          23.6864  -27.7931  -40.2396 N.am      6 UNK        -0.4439 
     40 CA         23.7979  -27.5763  -38.7876 C.3       6 UNK         0.0297 
     41 CB         25.2465  -27.1961  -38.4142 C.3       6 UNK        -0.2006 
     42 C          23.2570  -28.7511  -37.9432 C.2       6 UNK         0.4892 
     43 O          23.8193  -29.0679  -36.8942 O.2       6 UNK        -0.5089 
     44 N          22.1849  -29.3832  -38.4444 N.am      7 UNK        -0.4243 
     45 CA         21.5026  -30.5717  -37.9167 C.3       7 UNK         0.0196 
     46 CB         20.9487  -30.3226  -36.4975 C.3       7 UNK        -0.2007 
     47 C          22.3160  -31.8805  -38.0040 C.2       7 UNK         0.5020 
     48 O          21.8433  -32.9048  -37.5089 O.2       7 UNK        -0.5147 
     49 N          23.4822  -31.8728  -38.6671 N.am      8 UNK        -0.4734 
     50 CA         24.2661  -33.0713  -38.9807 C.3       8 UNK         0.0238 
     51 CB         25.7635  -32.7119  -39.0038 C.3       8 UNK        -0.1912 
     52 C          23.7706  -33.6643  -40.3112 C.2       8 UNK         0.5038 
     53 O          24.4963  -33.6588  -41.3075 O.2       8 UNK        -0.5046 
     54 N          22.5144  -34.1157  -40.3085 N.am      9 UNK        -0.4200 
     55 CA         21.7532  -34.5544  -41.4808 C.3       9 UNK         0.0839 
     56 C          20.6009  -35.5114  -41.0772 C.2       9 UNK         0.5513 
     57 N          19.9943  -36.1899  -42.0417 N.am      9 UNK        -0.7519 
     58 O          20.2477  -35.6460  -39.9067 O.2       9 UNK        -0.4960 
     59 C59        21.2724  -33.3528  -42.3452 C.3       10 UNK        -0.0876 
     60 S60        20.3152  -32.1050  -41.4049 S.3       10 UNK        -0.2414 
     61 C61        18.6370  -32.3477  -42.0615 C.3       10 UNK         0.0169 
     62 H62        19.2798  -27.9607  -40.5512 H         1 UNK         0.0903 
     63 H63        19.8551  -28.9972  -41.8546 H         1 UNK         0.0903 
     64 H64        20.9153  -27.7520  -41.1874 H         1 UNK         0.0903 
     65 H65        18.2524  -26.0806  -41.1162 H         1 UNK         0.3096 
     66 H66        17.6908  -24.2241  -42.1792 H         1 UNK         0.1121 
     67 H67        15.8081  -25.7674  -42.3316 H         1 UNK         0.0849 
     68 H68        15.7879  -24.5939  -43.5943 H         1 UNK         0.0849 
     69 H69        16.0537  -28.0580  -42.4458 H         1 UNK         0.0865 
     70 H70        14.9828  -28.7166  -43.6570 H         1 UNK         0.0865 
     71 H71        16.9341  -30.2392  -41.8762 H         1 UNK         0.1346 
     72 H72        19.5752  -32.1929  -44.6262 H         1 UNK         0.1412 
     73 H73        17.2830  -28.8154  -45.9066 H         1 UNK         0.1426 
     74 H74        18.4350  -31.1587  -47.4395 H         1 UNK         0.0716 
     75 H75        20.0444  -31.2251  -46.7622 H         1 UNK         0.0716 
     76 H76        20.6635  -28.6242  -45.5042 H         1 UNK         0.0695 
     77 H77        21.7846  -29.0391  -46.7745 H         1 UNK         0.0695 
     78 H78        21.4768  -26.8050  -47.8313 H         1 UNK         0.0983 
     79 H79        19.3942  -26.4171  -45.8242 H         1 UNK         0.3095 
     80 H80        19.0809  -22.9668  -46.2982 H         1 UNK         0.0454 
     81 H81        16.8300  -23.2657  -47.3093 H         1 UNK         0.0851 
     82 H82        18.0767  -23.5144  -48.5190 H         1 UNK         0.0851 
     83 H83        17.2507  -24.9006  -47.8216 H         1 UNK         0.0851 
     84 H84        17.2309  -24.9829  -45.3674 H         1 UNK         0.2976 
     85 H85        21.2593  -25.6886  -44.5581 H         1 UNK         0.3116 
     86 H86        22.6441  -24.8436  -43.0666 H         1 UNK         0.0646 
     87 H87        24.7456  -23.7566  -43.7483 H         1 UNK         0.0847 
     88 H88        23.5114  -23.4395  -44.9557 H         1 UNK         0.0847 
     89 H89        24.7673  -24.6376  -45.2673 H         1 UNK         0.0847 
     90 H90        22.4039  -27.6516  -43.3048 H         1 UNK         0.3040 
     91 H91        24.9459  -28.9559  -42.9305 H         1 UNK         0.1015 
     92 H92        22.9939  -30.0906  -43.9615 H         1 UNK         0.0786 
     93 H93        22.0796  -29.9364  -42.4630 H         1 UNK         0.0786 
     94 H94        23.5126  -30.9541  -42.5238 H         1 UNK         0.0786 
     95 H95        23.2130  -27.0690  -40.7603 H         1 UNK         0.3172 
     96 H96        23.1624  -26.7204  -38.5554 H         1 UNK         0.0595 
     97 H97        25.6015  -26.3532  -39.0071 H         1 UNK         0.0839 
     98 H98        25.9345  -28.0281  -38.5692 H         1 UNK         0.0839 
     99 H99        25.3188  -26.9056  -37.3653 H         1 UNK         0.0839 
    100 H100       21.8274  -29.0431  -39.3249 H         1 UNK         0.2998 
    101 H101       20.6438  -30.7249  -38.5721 H         1 UNK         0.0822 
    102 H102       21.7451  -30.2434  -35.7573 H         1 UNK         0.0787 
    103 H103       20.3578  -29.4076  -36.4562 H         1 UNK         0.0787 
    104 H104       20.2985  -31.1400  -36.1831 H         1 UNK         0.0787 
    105 H105       23.8044  -31.0098  -39.0934 H         1 UNK         0.3055 
    106 H106       24.1209  -33.8270  -38.2052 H         1 UNK         0.1106 
    107 H107       26.0836  -32.2861  -38.0528 H         1 UNK         0.0828 
    108 H108       26.3721  -33.5988  -39.1842 H         1 UNK         0.0828 
    109 H109       25.9997  -31.9928  -39.7882 H         1 UNK         0.0828 
    110 H110       21.9836  -34.0944  -39.4450 H         1 UNK         0.2931 
    111 H111       22.4299  -35.1571  -42.0899 H         1 UNK         0.0412 
    112 H112       19.2426  -36.8167  -41.7990 H         1 UNK         0.3472 
    113 H113       20.2816  -36.1046  -43.0042 H         1 UNK         0.3472 
    114 H114       20.7018  -33.7026  -43.2058 H         1 UNK         0.0970 
    115 H115       22.1398  -32.8508  -42.7727 H         1 UNK         0.0970 
    116 H116       17.9359  -32.2707  -41.2292 H         1 UNK         0.0612 
    117 H117       18.5193  -33.3580  -42.4553 H         1 UNK         0.0612 
@<TRIPOS>BOND
     1    1    2 1    
     2    1   62 1    
     3    1   63 1    
     4    1   64 1    
     5    2    3 2    
     6    2    4 am   BACKBONE|DICT|INTERRES
     7    4    5 1    
     8    4   65 1    
     9    5    6 1    
    10    5   25 1    
    11    5   66 1    
    12    6    7 1    
    13    6   67 1    
    14    6   68 1    
    15    7    8 1    
    16    8    9 1    
    17    8   69 1    
    18    8   70 1    
    19    9   10 ar   
    20    9   14 ar   
    21   10   11 ar   
    22   10   71 1    
    23   11   12 ar   
    24   11   61 1    
    25   12   13 ar   
    26   12   72 1    
    27   13   14 ar   
    28   13   15 1    
    29   14   73 1    
    30   15   16 1    
    31   15   74 1    
    32   15   75 1    
    33   16   17 1    
    34   17   18 1    
    35   17   76 1    
    36   17   77 1    
    37   18   19 1    
    38   18   27 1    
    39   18   78 1    
    40   19   20 am   BACKBONE|DICT|INTERRES
    41   19   79 1    
    42   20   21 2    
    43   20   22 1    
    44   22   23 1    
    45   22   24 1    
    46   22   80 1    
    47   23   81 1    
    48   23   82 1    
    49   23   83 1    
    50   24   25 am   BACKBONE|DICT|INTERRES
    51   24   84 1    
    52   25   26 2    
    53   27   28 2    
    54   27   29 am   BACKBONE|DICT|INTERRES
    55   29   30 1    
    56   29   85 1    
    57   30   31 1    
    58   30   32 1    
    59   30   86 1    
    60   31   87 1    
    61   31   88 1    
    62   31   89 1    
    63   32   33 2    
    64   32   34 am   BACKBONE|DICT|INTERRES
    65   34   35 1    
    66   34   90 1    
    67   35   36 1    
    68   35   37 1    
    69   35   91 1    
    70   36   92 1    
    71   36   93 1    
    72   36   94 1    
    73   37   38 2    
    74   37   39 am   BACKBONE|DICT|INTERRES
    75   39   40 1    
    76   39   95 1    
    77   40   41 1    
    78   40   42 1    
    79   40   96 1    
    80   41   97 1    
    81   41   98 1    
    82   41   99 1    
    83   42   43 2    
    84   42   44 am   BACKBONE|DICT|INTERRES
    85   44   45 1    
    86   44  100 1    
    87   45   46 1    
    88   45   47 1    
    89   45  101 1    
    90   46  102 1    
    91   46  103 1    
    92   46  104 1    
    93   47   48 2    
    94   47   49 am   BACKBONE|DICT|INTERRES
    95   49   50 1    
    96   49  105 1    
    97   50   51 1    
    98   50   52 1    
    99   50  106 1    
   100   51  107 1    
   101   51  108 1    
   102   51  109 1    
   103   52   53 2    
   104   52   54 am   BACKBONE|DICT|INTERRES
   105   54   55 1    
   106   54  110 1    
   107   55   56 1    
   108   55   59 1    
   109   55  111 1    
   110   56   57 am   BACKBONE|DICT|INTERRES
   111   56   58 2    
   112   57  112 1    
   113   57  113 1    
   114   59   60 1    
   115   59  114 1    
   116   59  115 1    
   117   60   61 1    
   118   61  116 1    
   119   61  117 1    
@<TRIPOS>SUBSTRUCTURE
     1 UNK         1 GROUP             0       ****    0 ROOT    
