@<TRIPOS>MOLECULE
3R8
117   119    1
SMALL
USER_CHARGES


@<TRIPOS>ATOM
      1 CA         18.4398  -23.4040  -41.9398 C.3       0 UNK        -0.2013 
      2 C          17.7620  -23.5662  -43.2993 C.2       0 UNK         0.4866 
      3 O          17.2378  -22.5832  -43.8188 O.2       0 UNK        -0.5176 
      4 N          17.7329  -24.7522  -43.9288 N.am      1 UNK        -0.4884 
      5 CA         18.2885  -26.0538  -43.5135 C.3       1 UNK         0.0853 
      6 C6         17.6695  -26.6296  -42.2113 C.3       10 UNK        -0.0849 
      7 S7         15.8612  -26.8416  -42.3867 S.3       10 UNK        -0.2776 
      8 C8         15.6088  -28.6403  -42.1869 C.3       10 UNK         0.0316 
      9 C9         16.5926  -29.4953  -42.9793 C.ar      10 UNK        -0.0863 
     10 C10        17.3805  -30.4358  -42.3101 C.ar      10 UNK        -0.1009 
     11 C11        18.3144  -31.2103  -43.0019 C.ar      10 UNK        -0.0712 
     12 C12        18.4443  -31.0463  -44.3853 C.ar      10 UNK        -0.0894 
     13 C13        17.6625  -30.1098  -45.0720 C.ar      10 UNK        -0.0745 
     14 C14        16.7292  -29.3457  -44.3636 C.ar      10 UNK        -0.0972 
     15 C15        17.8140  -29.9294  -46.5789 C.3       10 UNK         0.0209 
     16 S16        18.9988  -28.6094  -47.0133 S.3       10 UNK        -0.2568 
     17 C17        20.5848  -29.4420  -46.6637 C.3       10 UNK        -0.0983 
     18 CA         21.8307  -28.5157  -46.6255 C.3       3 UNK         0.0876 
     19 N          21.5618  -27.2766  -45.8837 N.am      3 UNK        -0.4424 
     20 C          22.4250  -26.3213  -45.5038 C.2       2 UNK         0.4918 
     21 O          23.6288  -26.3391  -45.7614 O.2       2 UNK        -0.4875 
     22 CA         21.8536  -25.1451  -44.6847 C.3       2 UNK         0.0481 
     23 CB         22.1357  -23.8035  -45.3809 C.3       2 UNK        -0.1831 
     24 N          20.4148  -25.2476  -44.4193 N.am      2 UNK        -0.4498 
     25 C          19.8325  -26.0863  -43.5497 C.2       1 UNK         0.5027 
     26 O          20.4633  -26.8688  -42.8365 O.2       1 UNK        -0.4969 
     27 C          23.0068  -29.3218  -46.0372 C.2       3 UNK         0.5005 
     28 O          23.8227  -29.8676  -46.7813 O.2       3 UNK        -0.5279 
     29 N          23.0456  -29.3703  -44.7012 N.am      4 UNK        -0.4463 
     30 CA         24.0607  -30.0193  -43.8888 C.3       4 UNK         0.0283 
     31 CB         23.5301  -31.3818  -43.4155 C.3       4 UNK        -0.1875 
     32 C          24.3932  -29.0630  -42.7397 C.2       4 UNK         0.4949 
     33 O          24.0309  -29.3251  -41.5901 O.2       4 UNK        -0.5039 
     34 N          25.0254  -27.9385  -43.1040 N.am      5 UNK        -0.4663 
     35 CA         25.5109  -26.8300  -42.2701 C.3       5 UNK         0.0242 
     36 CB         26.5900  -27.3083  -41.2772 C.3       5 UNK        -0.1982 
     37 C          24.4051  -26.0353  -41.5555 C.2       5 UNK         0.5017 
     38 O          24.2796  -24.8323  -41.7846 O.2       5 UNK        -0.5012 
     39 N          23.6392  -26.7194  -40.7040 N.am      6 UNK        -0.4439 
     40 CA         22.5520  -26.1913  -39.8894 C.3       6 UNK         0.0297 
     41 CB         23.1002  -25.2994  -38.7547 C.3       6 UNK        -0.2006 
     42 C          21.7353  -27.3803  -39.3700 C.2       6 UNK         0.4892 
     43 O          21.7771  -27.6836  -38.1766 O.2       6 UNK        -0.5089 
     44 N          21.0313  -28.0455  -40.2960 N.am      7 UNK        -0.4243 
     45 CA         20.1086  -29.1644  -40.0729 C.3       7 UNK         0.0196 
     46 CB         18.8786  -28.6873  -39.2661 C.3       7 UNK        -0.2007 
     47 C          20.7482  -30.4243  -39.4495 C.2       7 UNK         0.5020 
     48 O          20.0571  -31.1493  -38.7319 O.2       7 UNK        -0.5147 
     49 N          22.0378  -30.6853  -39.7188 N.am      8 UNK        -0.4734 
     50 CA         22.7590  -31.8264  -39.1390 C.3       8 UNK         0.0238 
     51 CB         24.2757  -31.6368  -39.3066 C.3       8 UNK        -0.1912 
     52 C          22.3029  -33.1798  -39.7114 C.2       8 UNK         0.5038 
     53 O          22.0371  -34.1034  -38.9418 O.2       8 UNK        -0.5046 
     54 N          22.2172  -33.2591  -41.0474 N.am      9 UNK        -0.4200 
     55 CA         21.8025  -34.4351  -41.8380 C.3       9 UNK         0.0839 
     56 C          22.7105  -35.6960  -41.6721 C.2       9 UNK         0.5513 
     57 N          23.9431  -35.5631  -41.1964 N.am      9 UNK        -0.7519 
     58 O          22.3162  -36.8067  -42.0184 O.2       9 UNK        -0.4960 
     59 C59        20.2739  -34.7263  -41.6982 C.3       10 UNK        -0.0876 
     60 S60        19.2714  -33.8406  -42.9418 S.3       10 UNK        -0.2414 
     61 C61        19.2159  -32.1685  -42.2307 C.3       10 UNK         0.0169 
     62 H62        17.7288  -23.6126  -41.1411 H         1 UNK         0.0903 
     63 H63        19.3078  -24.0457  -41.8104 H         1 UNK         0.0903 
     64 H64        18.7825  -22.3769  -41.8156 H         1 UNK         0.0903 
     65 H65        17.2439  -24.7834  -44.8132 H         1 UNK         0.3096 
     66 H66        18.0070  -26.7433  -44.3113 H         1 UNK         0.1121 
     67 H67        17.8697  -25.9924  -41.3512 H         1 UNK         0.0849 
     68 H68        18.1219  -27.5916  -41.9725 H         1 UNK         0.0849 
     69 H69        15.6665  -28.8741  -41.1225 H         1 UNK         0.0865 
     70 H70        14.5934  -28.8903  -42.4970 H         1 UNK         0.0865 
     71 H71        17.2801  -30.5536  -41.2401 H         1 UNK         0.1346 
     72 H72        19.1639  -31.6458  -44.9254 H         1 UNK         0.1412 
     73 H73        16.1205  -28.6198  -44.8858 H         1 UNK         0.1426 
     74 H74        16.8447  -29.6839  -47.0154 H         1 UNK         0.0716 
     75 H75        18.1244  -30.8660  -47.0450 H         1 UNK         0.0716 
     76 H76        20.7260  -30.2324  -47.4035 H         1 UNK         0.0695 
     77 H77        20.4757  -29.9430  -45.7029 H         1 UNK         0.0695 
     78 H78        22.0938  -28.2302  -47.6457 H         1 UNK         0.0983 
     79 H79        20.5910  -27.1395  -45.6471 H         1 UNK         0.3095 
     80 H80        22.3726  -25.1432  -43.7251 H         1 UNK         0.0454 
     81 H81        21.6511  -23.7439  -46.3561 H         1 UNK         0.0851 
     82 H82        23.2056  -23.6614  -45.5396 H         1 UNK         0.0851 
     83 H83        21.7885  -22.9633  -44.7794 H         1 UNK         0.0851 
     84 H84        19.8137  -24.6419  -44.9611 H         1 UNK         0.2976 
     85 H85        22.3444  -28.8496  -44.1910 H         1 UNK         0.3116 
     86 H86        24.9750  -30.1780  -44.4648 H         1 UNK         0.0646 
     87 H87        23.3460  -32.0470  -44.2595 H         1 UNK         0.0847 
     88 H88        22.5933  -31.2664  -42.8723 H         1 UNK         0.0847 
     89 H89        24.2516  -31.8760  -42.7644 H         1 UNK         0.0847 
     90 H90        25.1791  -27.8094  -44.0961 H         1 UNK         0.3040 
     91 H91        25.9920  -26.1325  -42.9585 H         1 UNK         0.1015 
     92 H92        26.2032  -28.0384  -40.5655 H         1 UNK         0.0786 
     93 H93        26.9853  -26.4717  -40.6994 H         1 UNK         0.0786 
     94 H94        27.4305  -27.7659  -41.7990 H         1 UNK         0.0786 
     95 H95        23.7843  -27.7269  -40.6673 H         1 UNK         0.3172 
     96 H96        21.8966  -25.5894  -40.5228 H         1 UNK         0.0595 
     97 H97        22.2933  -24.9509  -38.1089 H         1 UNK         0.0839 
     98 H98        23.6019  -24.4143  -39.1456 H         1 UNK         0.0839 
     99 H99        23.8121  -25.8379  -38.1281 H         1 UNK         0.0839 
    100 H100       21.0538  -27.6910  -41.2505 H         1 UNK         0.2998 
    101 H101       19.7642  -29.4566  -41.0644 H         1 UNK         0.0822 
    102 H102       18.4521  -27.7731  -39.6744 H         1 UNK         0.0787 
    103 H103       18.0901  -29.4402  -39.2647 H         1 UNK         0.0787 
    104 H104       19.1360  -28.4904  -38.2247 H         1 UNK         0.0787 
    105 H105       22.5669  -30.0579  -40.3156 H         1 UNK         0.3055 
    106 H106       22.5478  -31.8422  -38.0669 H         1 UNK         0.1106 
    107 H107       24.5773  -31.6325  -40.3535 H         1 UNK         0.0828 
    108 H108       24.8247  -32.4404  -38.8140 H         1 UNK         0.0828 
    109 H109       24.6085  -30.6987  -38.8619 H         1 UNK         0.0828 
    110 H110       22.4769  -32.4448  -41.5809 H         1 UNK         0.2931 
    111 H111       21.9878  -34.1489  -42.8741 H         1 UNK         0.0412 
    112 H112       24.5268  -36.3801  -41.1069 H         1 UNK         0.3472 
    113 H113       24.2923  -34.6607  -40.9186 H         1 UNK         0.3472 
    114 H114       19.9104  -34.4937  -40.6962 H         1 UNK         0.0970 
    115 H115       20.0471  -35.7839  -41.8391 H         1 UNK         0.0970 
    116 H116       18.8954  -32.2452  -41.1906 H         1 UNK         0.0612 
    117 H117       20.2227  -31.7531  -42.2210 H         1 UNK         0.0612 
@<TRIPOS>BOND
     1    1    2 1    
     2    1   62 1    
     3    1   63 1    
     4    1   64 1    
     5    2    3 2    
     6    2    4 am   BACKBONE|DICT|INTERRES
     7    4    5 1    
     8    4   65 1    
     9    5    6 1    
    10    5   25 1    
    11    5   66 1    
    12    6    7 1    
    13    6   67 1    
    14    6   68 1    
    15    7    8 1    
    16    8    9 1    
    17    8   69 1    
    18    8   70 1    
    19    9   10 ar   
    20    9   14 ar   
    21   10   11 ar   
    22   10   71 1    
    23   11   12 ar   
    24   11   61 1    
    25   12   13 ar   
    26   12   72 1    
    27   13   14 ar   
    28   13   15 1    
    29   14   73 1    
    30   15   16 1    
    31   15   74 1    
    32   15   75 1    
    33   16   17 1    
    34   17   18 1    
    35   17   76 1    
    36   17   77 1    
    37   18   19 1    
    38   18   27 1    
    39   18   78 1    
    40   19   20 am   BACKBONE|DICT|INTERRES
    41   19   79 1    
    42   20   21 2    
    43   20   22 1    
    44   22   23 1    
    45   22   24 1    
    46   22   80 1    
    47   23   81 1    
    48   23   82 1    
    49   23   83 1    
    50   24   25 am   BACKBONE|DICT|INTERRES
    51   24   84 1    
    52   25   26 2    
    53   27   28 2    
    54   27   29 am   BACKBONE|DICT|INTERRES
    55   29   30 1    
    56   29   85 1    
    57   30   31 1    
    58   30   32 1    
    59   30   86 1    
    60   31   87 1    
    61   31   88 1    
    62   31   89 1    
    63   32   33 2    
    64   32   34 am   BACKBONE|DICT|INTERRES
    65   34   35 1    
    66   34   90 1    
    67   35   36 1    
    68   35   37 1    
    69   35   91 1    
    70   36   92 1    
    71   36   93 1    
    72   36   94 1    
    73   37   38 2    
    74   37   39 am   BACKBONE|DICT|INTERRES
    75   39   40 1    
    76   39   95 1    
    77   40   41 1    
    78   40   42 1    
    79   40   96 1    
    80   41   97 1    
    81   41   98 1    
    82   41   99 1    
    83   42   43 2    
    84   42   44 am   BACKBONE|DICT|INTERRES
    85   44   45 1    
    86   44  100 1    
    87   45   46 1    
    88   45   47 1    
    89   45  101 1    
    90   46  102 1    
    91   46  103 1    
    92   46  104 1    
    93   47   48 2    
    94   47   49 am   BACKBONE|DICT|INTERRES
    95   49   50 1    
    96   49  105 1    
    97   50   51 1    
    98   50   52 1    
    99   50  106 1    
   100   51  107 1    
   101   51  108 1    
   102   51  109 1    
   103   52   53 2    
   104   52   54 am   BACKBONE|DICT|INTERRES
   105   54   55 1    
   106   54  110 1    
   107   55   56 1    
   108   55   59 1    
   109   55  111 1    
   110   56   57 am   BACKBONE|DICT|INTERRES
   111   56   58 2    
   112   57  112 1    
   113   57  113 1    
   114   59   60 1    
   115   59  114 1    
   116   59  115 1    
   117   60   61 1    
   118   61  116 1    
   119   61  117 1    
@<TRIPOS>SUBSTRUCTURE
     1 UNK         1 GROUP             0       ****    0 ROOT    
