@<TRIPOS>MOLECULE
3R8
117   119    1
SMALL
USER_CHARGES


@<TRIPOS>ATOM
      1 CA         18.7127  -29.5817  -40.4515 C.3       0 UNK        -0.2013 
      2 C          19.0427  -28.1404  -40.8021 C.2       0 UNK         0.4866 
      3 O          19.2657  -27.3276  -39.9037 O.2       0 UNK        -0.5176 
      4 N          19.0397  -27.8189  -42.1008 N.am      1 UNK        -0.4884 
      5 CA         19.2381  -26.4632  -42.6255 C.3       1 UNK         0.0853 
      6 C6         17.9391  -25.8228  -43.2151 C.3       10 UNK        -0.0849 
      7 S7         16.3944  -26.2487  -42.3280 S.3       10 UNK        -0.2776 
      8 C8         15.4495  -27.1844  -43.5828 C.3       10 UNK         0.0316 
      9 C9         16.2322  -28.3438  -44.1926 C.ar      10 UNK        -0.0863 
     10 C10        16.3578  -29.5592  -43.5131 C.ar      10 UNK        -0.1009 
     11 C11        17.0638  -30.6210  -44.0892 C.ar      10 UNK        -0.0712 
     12 C12        17.6343  -30.4626  -45.3556 C.ar      10 UNK        -0.0894 
     13 C13        17.5557  -29.2384  -46.0305 C.ar      10 UNK        -0.0745 
     14 C14        16.8256  -28.1984  -45.4506 C.ar      10 UNK        -0.0972 
     15 C15        18.2313  -28.9756  -47.3787 C.3       10 UNK         0.0209 
     16 S16        19.4953  -30.1795  -47.9246 S.3       10 UNK        -0.2568 
     17 C17        20.7321  -30.1928  -46.5809 C.3       10 UNK        -0.0983 
     18 CA         21.8346  -29.1175  -46.7377 C.3       3 UNK         0.0876 
     19 N          21.3419  -27.7926  -46.3372 N.am      3 UNK        -0.4424 
     20 C          22.0453  -26.6514  -46.3404 C.2       2 UNK         0.4918 
     21 O          23.1883  -26.5527  -46.7865 O.2       2 UNK        -0.4875 
     22 CA         21.4000  -25.4149  -45.6847 C.3       2 UNK         0.0481 
     23 CB         20.8269  -24.4872  -46.7676 C.3       2 UNK        -0.1831 
     24 N          20.3599  -25.6695  -44.6765 N.am      2 UNK        -0.4498 
     25 C          20.4315  -26.4801  -43.6065 C.2       1 UNK         0.5027 
     26 O          21.3853  -27.2323  -43.3896 O.2       1 UNK        -0.4969 
     27 C          23.0989  -29.5545  -45.9605 C.2       3 UNK         0.5005 
     28 O          23.9289  -30.2693  -46.5251 O.2       3 UNK        -0.5279 
     29 N          23.2344  -29.1146  -44.7019 N.am      4 UNK        -0.4463 
     30 CA         24.4044  -29.3434  -43.8547 C.3       4 UNK         0.0283 
     31 CB         24.1433  -30.5441  -42.9277 C.3       4 UNK        -0.1875 
     32 C          24.7604  -28.0545  -43.0969 C.2       4 UNK         0.4949 
     33 O          25.1465  -28.1147  -41.9275 O.2       4 UNK        -0.5039 
     34 N          24.6044  -26.9069  -43.7769 N.am      5 UNK        -0.4663 
     35 CA         24.7694  -25.5241  -43.3060 C.3       5 UNK         0.0242 
     36 CB         26.2327  -25.2291  -42.9171 C.3       5 UNK        -0.1982 
     37 C          23.7865  -25.1355  -42.1861 C.2       5 UNK         0.5017 
     38 O          22.9271  -24.2806  -42.4022 O.2       5 UNK        -0.5012 
     39 N          23.9337  -25.7741  -41.0224 N.am      6 UNK        -0.4439 
     40 CA         23.0850  -25.6272  -39.8406 C.3       6 UNK         0.0297 
     41 CB         23.4833  -24.3541  -39.0668 C.3       6 UNK        -0.2006 
     42 C          23.1073  -26.8741  -38.9334 C.2       6 UNK         0.4892 
     43 O          22.5138  -26.8265  -37.8544 O.2       6 UNK        -0.5089 
     44 N          23.7888  -27.9563  -39.3431 N.am      7 UNK        -0.4243 
     45 CA         23.8138  -29.2290  -38.6194 C.3       7 UNK         0.0196 
     46 CB         25.0990  -29.9888  -38.9852 C.3       7 UNK        -0.2007 
     47 C          22.5713  -30.0658  -38.9604 C.2       7 UNK         0.5020 
     48 O          21.9782  -29.8771  -40.0229 O.2       7 UNK        -0.5147 
     49 N          22.2075  -30.9869  -38.0595 N.am      8 UNK        -0.4734 
     50 CA         21.0606  -31.8875  -38.2112 C.3       8 UNK         0.0238 
     51 CB         20.8317  -32.6375  -36.8886 C.3       8 UNK        -0.1912 
     52 C          21.2392  -32.8849  -39.3707 C.2       8 UNK         0.5038 
     53 O          22.3497  -33.3776  -39.5853 O.2       8 UNK        -0.5046 
     54 N          20.1338  -33.1886  -40.0625 N.am      9 UNK        -0.4200 
     55 CA         20.0806  -34.1471  -41.1805 C.3       9 UNK         0.0839 
     56 C          20.1073  -35.6434  -40.7499 C.2       9 UNK         0.5513 
     57 N          19.9852  -35.9751  -39.4698 N.am      9 UNK        -0.7519 
     58 O          20.2475  -36.5219  -41.5968 O.2       9 UNK        -0.4960 
     59 C59        18.8814  -33.8634  -42.1252 C.3       10 UNK        -0.0876 
     60 S60        18.9695  -32.2071  -42.8816 S.3       10 UNK        -0.2414 
     61 C61        17.2308  -31.9410  -43.3508 C.3       10 UNK         0.0169 
     62 H62        19.5255  -30.2382  -40.7565 H         1 UNK         0.0903 
     63 H63        18.5647  -29.6918  -39.3779 H         1 UNK         0.0903 
     64 H64        17.8008  -29.9040  -40.9516 H         1 UNK         0.0903 
     65 H65        18.8724  -28.5351  -42.7938 H         1 UNK         0.3096 
     66 H66        19.5693  -25.8121  -41.8135 H         1 UNK         0.1121 
     67 H67        17.8088  -26.0734  -44.2650 H         1 UNK         0.0849 
     68 H68        18.0312  -24.7354  -43.1930 H         1 UNK         0.0849 
     69 H69        14.5375  -27.5664  -43.1218 H         1 UNK         0.0865 
     70 H70        15.1222  -26.4956  -44.3633 H         1 UNK         0.0865 
     71 H71        15.9067  -29.6740  -42.5369 H         1 UNK         0.1346 
     72 H72        18.1693  -31.2948  -45.7904 H         1 UNK         0.1412 
     73 H73        16.7302  -27.2598  -45.9801 H         1 UNK         0.1426 
     74 H74        17.4545  -28.9397  -48.1437 H         1 UNK         0.0716 
     75 H75        18.6890  -27.9857  -47.3687 H         1 UNK         0.0716 
     76 H76        21.1648  -31.1957  -46.6025 H         1 UNK         0.0695 
     77 H77        20.2559  -30.1072  -45.6041 H         1 UNK         0.0695 
     78 H78        22.1234  -29.0547  -47.7891 H         1 UNK         0.0983 
     79 H79        20.4188  -27.7715  -45.9328 H         1 UNK         0.3095 
     80 H80        22.2006  -24.8781  -45.1732 H         1 UNK         0.0454 
     81 H81        19.9827  -24.9441  -47.2855 H         1 UNK         0.0851 
     82 H82        21.5804  -24.2504  -47.5205 H         1 UNK         0.0851 
     83 H83        20.4911  -23.5400  -46.3451 H         1 UNK         0.0851 
     84 H84        19.5337  -25.0967  -44.7669 H         1 UNK         0.2976 
     85 H85        22.5132  -28.5164  -44.3007 H         1 UNK         0.3116 
     86 H86        25.2731  -29.5744  -44.4744 H         1 UNK         0.0646 
     87 H87        23.8876  -31.4376  -43.4971 H         1 UNK         0.0847 
     88 H88        23.3252  -30.3440  -42.2359 H         1 UNK         0.0847 
     89 H89        25.0281  -30.7822  -42.3376 H         1 UNK         0.0847 
     90 H90        24.2752  -26.9894  -44.7307 H         1 UNK         0.3040 
     91 H91        24.5299  -24.8884  -44.1602 H         1 UNK         0.1015 
     92 H92        26.5794  -25.8510  -42.0916 H         1 UNK         0.0786 
     93 H93        26.3505  -24.1889  -42.6102 H         1 UNK         0.0786 
     94 H94        26.9035  -25.3944  -43.7602 H         1 UNK         0.0786 
     95 H95        24.6475  -26.4950  -40.9953 H         1 UNK         0.3172 
     96 H96        22.0509  -25.5209  -40.1759 H         1 UNK         0.0595 
     97 H97        24.5137  -24.4075  -38.7137 H         1 UNK         0.0839 
     98 H98        22.8454  -24.2057  -38.1946 H         1 UNK         0.0839 
     99 H99        23.3868  -23.4626  -39.6864 H         1 UNK         0.0839 
    100 H100       24.1842  -27.9871  -40.2768 H         1 UNK         0.2998 
    101 H101       23.8213  -29.0331  -37.5448 H         1 UNK         0.0822 
    102 H102       25.9873  -29.4066  -38.7395 H         1 UNK         0.0787 
    103 H103       25.1673  -30.9316  -38.4410 H         1 UNK         0.0787 
    104 H104       25.1379  -30.2238  -40.0483 H         1 UNK         0.0787 
    105 H105       22.7728  -31.1097  -37.2317 H         1 UNK         0.3055 
    106 H106       20.1840  -31.2696  -38.4137 H         1 UNK         0.1106 
    107 H107       21.6841  -33.2669  -36.6288 H         1 UNK         0.0828 
    108 H108       19.9561  -33.2849  -36.9508 H         1 UNK         0.0828 
    109 H109       20.6604  -31.9462  -36.0632 H         1 UNK         0.0828 
    110 H110       19.2566  -32.7584  -39.8119 H         1 UNK         0.2931 
    111 H111       20.9884  -34.0023  -41.7700 H         1 UNK         0.0412 
    112 H112       20.0084  -36.9485  -39.2081 H         1 UNK         0.3472 
    113 H113       19.8736  -35.2656  -38.7643 H         1 UNK         0.3472 
    114 H114       17.9393  -33.9677  -41.5838 H         1 UNK         0.0970 
    115 H115       18.8486  -34.5910  -42.9387 H         1 UNK         0.0970 
    116 H116       16.6076  -31.9662  -42.4556 H         1 UNK         0.0612 
    117 H117       16.8977  -32.7593  -43.9910 H         1 UNK         0.0612 
@<TRIPOS>BOND
     1    1    2 1    
     2    1   62 1    
     3    1   63 1    
     4    1   64 1    
     5    2    3 2    
     6    2    4 am   BACKBONE|DICT|INTERRES
     7    4    5 1    
     8    4   65 1    
     9    5    6 1    
    10    5   25 1    
    11    5   66 1    
    12    6    7 1    
    13    6   67 1    
    14    6   68 1    
    15    7    8 1    
    16    8    9 1    
    17    8   69 1    
    18    8   70 1    
    19    9   10 ar   
    20    9   14 ar   
    21   10   11 ar   
    22   10   71 1    
    23   11   12 ar   
    24   11   61 1    
    25   12   13 ar   
    26   12   72 1    
    27   13   14 ar   
    28   13   15 1    
    29   14   73 1    
    30   15   16 1    
    31   15   74 1    
    32   15   75 1    
    33   16   17 1    
    34   17   18 1    
    35   17   76 1    
    36   17   77 1    
    37   18   19 1    
    38   18   27 1    
    39   18   78 1    
    40   19   20 am   BACKBONE|DICT|INTERRES
    41   19   79 1    
    42   20   21 2    
    43   20   22 1    
    44   22   23 1    
    45   22   24 1    
    46   22   80 1    
    47   23   81 1    
    48   23   82 1    
    49   23   83 1    
    50   24   25 am   BACKBONE|DICT|INTERRES
    51   24   84 1    
    52   25   26 2    
    53   27   28 2    
    54   27   29 am   BACKBONE|DICT|INTERRES
    55   29   30 1    
    56   29   85 1    
    57   30   31 1    
    58   30   32 1    
    59   30   86 1    
    60   31   87 1    
    61   31   88 1    
    62   31   89 1    
    63   32   33 2    
    64   32   34 am   BACKBONE|DICT|INTERRES
    65   34   35 1    
    66   34   90 1    
    67   35   36 1    
    68   35   37 1    
    69   35   91 1    
    70   36   92 1    
    71   36   93 1    
    72   36   94 1    
    73   37   38 2    
    74   37   39 am   BACKBONE|DICT|INTERRES
    75   39   40 1    
    76   39   95 1    
    77   40   41 1    
    78   40   42 1    
    79   40   96 1    
    80   41   97 1    
    81   41   98 1    
    82   41   99 1    
    83   42   43 2    
    84   42   44 am   BACKBONE|DICT|INTERRES
    85   44   45 1    
    86   44  100 1    
    87   45   46 1    
    88   45   47 1    
    89   45  101 1    
    90   46  102 1    
    91   46  103 1    
    92   46  104 1    
    93   47   48 2    
    94   47   49 am   BACKBONE|DICT|INTERRES
    95   49   50 1    
    96   49  105 1    
    97   50   51 1    
    98   50   52 1    
    99   50  106 1    
   100   51  107 1    
   101   51  108 1    
   102   51  109 1    
   103   52   53 2    
   104   52   54 am   BACKBONE|DICT|INTERRES
   105   54   55 1    
   106   54  110 1    
   107   55   56 1    
   108   55   59 1    
   109   55  111 1    
   110   56   57 am   BACKBONE|DICT|INTERRES
   111   56   58 2    
   112   57  112 1    
   113   57  113 1    
   114   59   60 1    
   115   59  114 1    
   116   59  115 1    
   117   60   61 1    
   118   61  116 1    
   119   61  117 1    
@<TRIPOS>SUBSTRUCTURE
     1 UNK         1 GROUP             0       ****    0 ROOT    
