@<TRIPOS>MOLECULE
3R8
117   119    1
SMALL
USER_CHARGES


@<TRIPOS>ATOM
      1 CA         17.6732  -21.9813  -47.9061 C.3       0 UNK        -0.2013 
      2 C          18.2234  -23.3835  -47.6930 C.2       0 UNK         0.4866 
      3 O          19.3803  -23.6428  -48.0244 O.2       0 UNK        -0.5176 
      4 N          17.4016  -24.2902  -47.1462 N.am      1 UNK        -0.4884 
      5 CA         17.7685  -25.6821  -46.8457 C.3       1 UNK         0.0853 
      6 C6         16.5162  -26.5509  -46.5392 C.3       10 UNK        -0.0849 
      7 S7         16.3709  -28.0417  -47.5869 S.3       10 UNK        -0.2776 
      8 C8         17.6052  -29.2031  -46.8907 C.3       10 UNK         0.0316 
      9 C9         17.3440  -29.7460  -45.4820 C.ar      10 UNK        -0.0863 
     10 C10        18.2802  -30.6295  -44.9328 C.ar      10 UNK        -0.1009 
     11 C11        18.1223  -31.1317  -43.6372 C.ar      10 UNK        -0.0712 
     12 C12        17.0296  -30.7231  -42.8685 C.ar      10 UNK        -0.0894 
     13 C13        16.0911  -29.8348  -43.3984 C.ar      10 UNK        -0.0745 
     14 C14        16.2290  -29.3882  -44.7141 C.ar      10 UNK        -0.0972 
     15 C15        14.9467  -29.3099  -42.5482 C.3       10 UNK         0.0209 
     16 S16        15.2366  -27.5691  -42.0892 S.3       10 UNK        -0.2568 
     17 C17        16.4777  -27.7276  -40.7606 C.3       10 UNK        -0.0983 
     18 CA         17.9532  -27.6161  -41.2308 C.3       3 UNK         0.0876 
     19 N          18.2034  -26.4077  -42.0367 N.am      3 UNK        -0.4424 
     20 C          19.3722  -26.0898  -42.6136 C.2       2 UNK         0.4918 
     21 O          20.3955  -26.7613  -42.4893 O.2       2 UNK        -0.4875 
     22 CA         19.3962  -24.7929  -43.4438 C.3       2 UNK         0.0481 
     23 CB         20.8303  -24.3102  -43.7500 C.3       2 UNK        -0.1831 
     24 N          18.6099  -24.9082  -44.6766 N.am      2 UNK        -0.4498 
     25 C          18.7903  -25.7728  -45.6905 C.2       1 UNK         0.5027 
     26 O          19.6988  -26.6011  -45.7496 O.2       1 UNK        -0.4969 
     27 C          18.8887  -27.7663  -40.0070 C.2       3 UNK         0.5005 
     28 O          19.1118  -28.8865  -39.5469 O.2       3 UNK        -0.5279 
     29 N          19.4126  -26.6409  -39.4993 N.am      4 UNK        -0.4463 
     30 CA         20.3646  -26.5746  -38.3895 C.3       4 UNK         0.0283 
     31 CB         20.3713  -25.1432  -37.8276 C.3       4 UNK        -0.1875 
     32 C          21.7964  -27.0094  -38.7594 C.2       4 UNK         0.4949 
     33 O          22.6020  -27.2160  -37.8497 O.2       4 UNK        -0.5039 
     34 N          22.1160  -27.1313  -40.0575 N.am      5 UNK        -0.4663 
     35 CA         23.4340  -27.5314  -40.5582 C.3       5 UNK         0.0242 
     36 CB         23.5897  -27.0715  -42.0199 C.3       5 UNK        -0.1982 
     37 C          23.6645  -29.0445  -40.3964 C.2       5 UNK         0.5017 
     38 O          23.6981  -29.7762  -41.3866 O.2       5 UNK        -0.5012 
     39 N          23.8402  -29.4883  -39.1448 N.am      6 UNK        -0.4439 
     40 CA         24.0717  -30.8829  -38.7480 C.3       6 UNK         0.0297 
     41 CB         24.2339  -30.9577  -37.2220 C.3       6 UNK        -0.2006 
     42 C          25.2665  -31.5558  -39.4495 C.2       6 UNK         0.4892 
     43 O          25.2100  -32.7558  -39.7149 O.2       6 UNK        -0.5089 
     44 N          26.3017  -30.7686  -39.7746 N.am      7 UNK        -0.4243 
     45 CA         27.4683  -31.1993  -40.5490 C.3       7 UNK         0.0196 
     46 CB         28.5491  -30.1084  -40.4787 C.3       7 UNK        -0.2007 
     47 C          27.1458  -31.5414  -42.0166 C.2       7 UNK         0.5020 
     48 O          27.8572  -32.3541  -42.6077 O.2       7 UNK        -0.5147 
     49 N          26.0967  -30.9256  -42.5796 N.am      8 UNK        -0.4734 
     50 CA         25.5988  -31.2092  -43.9264 C.3       8 UNK         0.0238 
     51 CB         25.0422  -29.9213  -44.5571 C.3       8 UNK        -0.1912 
     52 C          24.5277  -32.3088  -43.8963 C.2       8 UNK         0.5038 
     53 O          24.5493  -33.1890  -44.7579 O.2       8 UNK        -0.5046 
     54 N          23.6190  -32.2417  -42.9130 N.am      9 UNK        -0.4200 
     55 CA         22.5511  -33.2296  -42.6956 C.3       9 UNK         0.0839 
     56 C          23.0604  -34.6365  -42.2749 C.2       9 UNK         0.5513 
     57 N          24.1399  -34.7486  -41.5118 N.am      9 UNK        -0.7519 
     58 O          22.4646  -35.6423  -42.6514 O.2       9 UNK        -0.4960 
     59 C59        21.4797  -32.7177  -41.7002 C.3       10 UNK        -0.0876 
     60 S60        20.5606  -31.2747  -42.3334 S.3       10 UNK        -0.2414 
     61 C61        19.1289  -32.1190  -43.0700 C.3       10 UNK         0.0169 
     62 H62        16.6378  -21.8935  -47.5774 H         1 UNK         0.0903 
     63 H63        18.2679  -21.2568  -47.3502 H         1 UNK         0.0903 
     64 H64        17.7164  -21.7182  -48.9627 H         1 UNK         0.0903 
     65 H65        16.4564  -24.0191  -46.9129 H         1 UNK         0.3096 
     66 H66        18.2678  -26.0744  -47.7350 H         1 UNK         0.1121 
     67 H67        16.4528  -26.8183  -45.4840 H         1 UNK         0.0849 
     68 H68        15.6039  -25.9801  -46.7201 H         1 UNK         0.0849 
     69 H69        17.6737  -30.0528  -47.5715 H         1 UNK         0.0865 
     70 H70        18.5850  -28.7253  -46.9107 H         1 UNK         0.0865 
     71 H71        19.1423  -30.9272  -45.5146 H         1 UNK         0.1346 
     72 H72        16.9219  -31.0812  -41.8536 H         1 UNK         0.1412 
     73 H73        15.4708  -28.7294  -45.1091 H         1 UNK         0.1426 
     74 H74        14.8046  -29.9168  -41.6526 H         1 UNK         0.0716 
     75 H75        14.0166  -29.3765  -43.1146 H         1 UNK         0.0716 
     76 H76        16.3139  -28.6755  -40.2440 H         1 UNK         0.0695 
     77 H77        16.2597  -26.9491  -40.0268 H         1 UNK         0.0695 
     78 H78        18.1743  -28.4626  -41.8821 H         1 UNK         0.0983 
     79 H79        17.4006  -25.8174  -42.2002 H         1 UNK         0.3095 
     80 H80        18.9161  -24.0215  -42.8398 H         1 UNK         0.0454 
     81 H81        21.3910  -24.1487  -42.8285 H         1 UNK         0.0851 
     82 H82        20.8234  -23.3670  -44.2959 H         1 UNK         0.0851 
     83 H83        21.3887  -25.0354  -44.3429 H         1 UNK         0.0851 
     84 H84        17.8296  -24.2709  -44.7540 H         1 UNK         0.2976 
     85 H85        19.1653  -25.7656  -39.9375 H         1 UNK         0.3116 
     86 H86        20.0177  -27.2468  -37.6017 H         1 UNK         0.0646 
     87 H87        19.3792  -24.8430  -37.4899 H         1 UNK         0.0847 
     88 H88        20.7092  -24.4187  -38.5696 H         1 UNK         0.0847 
     89 H89        21.0393  -25.0634  -36.9687 H         1 UNK         0.0847 
     90 H90        21.3971  -26.9926  -40.7615 H         1 UNK         0.3040 
     91 H91        24.2001  -27.0179  -39.9728 H         1 UNK         0.1015 
     92 H92        24.5917  -27.2891  -42.3918 H         1 UNK         0.0786 
     93 H93        23.4315  -25.9977  -42.1195 H         1 UNK         0.0786 
     94 H94        22.8839  -27.5760  -42.6809 H         1 UNK         0.0786 
     95 H95        23.7178  -28.8098  -38.3989 H         1 UNK         0.3172 
     96 H96        23.1770  -31.4450  -39.0193 H         1 UNK         0.0595 
     97 H97        25.0932  -30.3808  -36.8778 H         1 UNK         0.0839 
     98 H98        24.3808  -31.9882  -36.8950 H         1 UNK         0.0839 
     99 H99        23.3488  -30.5807  -36.7091 H         1 UNK         0.0839 
    100 H100       26.2614  -29.7952  -39.5104 H         1 UNK         0.2998 
    101 H101       27.8638  -32.1046  -40.0830 H         1 UNK         0.0822 
    102 H102       28.8491  -29.9114  -39.4493 H         1 UNK         0.0787 
    103 H103       29.4450  -30.4116  -41.0227 H         1 UNK         0.0787 
    104 H104       28.2051  -29.1699  -40.9156 H         1 UNK         0.0787 
    105 H105       25.5173  -30.3196  -42.0087 H         1 UNK         0.3055 
    106 H106       26.4204  -31.5610  -44.5549 H         1 UNK         0.1106 
    107 H107       25.8015  -29.1405  -44.5996 H         1 UNK         0.0828 
    108 H108       24.7073  -30.1038  -45.5790 H         1 UNK         0.0828 
    109 H109       24.1890  -29.5288  -44.0029 H         1 UNK         0.0828 
    110 H110       23.6388  -31.4476  -42.2797 H         1 UNK         0.2931 
    111 H111       22.0550  -33.3669  -43.6588 H         1 UNK         0.0412 
    112 H112       24.5866  -33.9303  -41.1089 H         1 UNK         0.3472 
    113 H113       24.4621  -35.6669  -41.2517 H         1 UNK         0.3472 
    114 H114       20.7656  -33.5065  -41.4552 H         1 UNK         0.0970 
    115 H115       21.9466  -32.4396  -40.7549 H         1 UNK         0.0970 
    116 H116       19.4732  -32.7913  -43.8574 H         1 UNK         0.0612 
    117 H117       18.6496  -32.7454  -42.3161 H         1 UNK         0.0612 
@<TRIPOS>BOND
     1    1    2 1    
     2    1   62 1    
     3    1   63 1    
     4    1   64 1    
     5    2    3 2    
     6    2    4 am   BACKBONE|DICT|INTERRES
     7    4    5 1    
     8    4   65 1    
     9    5    6 1    
    10    5   25 1    
    11    5   66 1    
    12    6    7 1    
    13    6   67 1    
    14    6   68 1    
    15    7    8 1    
    16    8    9 1    
    17    8   69 1    
    18    8   70 1    
    19    9   10 ar   
    20    9   14 ar   
    21   10   11 ar   
    22   10   71 1    
    23   11   12 ar   
    24   11   61 1    
    25   12   13 ar   
    26   12   72 1    
    27   13   14 ar   
    28   13   15 1    
    29   14   73 1    
    30   15   16 1    
    31   15   74 1    
    32   15   75 1    
    33   16   17 1    
    34   17   18 1    
    35   17   76 1    
    36   17   77 1    
    37   18   19 1    
    38   18   27 1    
    39   18   78 1    
    40   19   20 am   BACKBONE|DICT|INTERRES
    41   19   79 1    
    42   20   21 2    
    43   20   22 1    
    44   22   23 1    
    45   22   24 1    
    46   22   80 1    
    47   23   81 1    
    48   23   82 1    
    49   23   83 1    
    50   24   25 am   BACKBONE|DICT|INTERRES
    51   24   84 1    
    52   25   26 2    
    53   27   28 2    
    54   27   29 am   BACKBONE|DICT|INTERRES
    55   29   30 1    
    56   29   85 1    
    57   30   31 1    
    58   30   32 1    
    59   30   86 1    
    60   31   87 1    
    61   31   88 1    
    62   31   89 1    
    63   32   33 2    
    64   32   34 am   BACKBONE|DICT|INTERRES
    65   34   35 1    
    66   34   90 1    
    67   35   36 1    
    68   35   37 1    
    69   35   91 1    
    70   36   92 1    
    71   36   93 1    
    72   36   94 1    
    73   37   38 2    
    74   37   39 am   BACKBONE|DICT|INTERRES
    75   39   40 1    
    76   39   95 1    
    77   40   41 1    
    78   40   42 1    
    79   40   96 1    
    80   41   97 1    
    81   41   98 1    
    82   41   99 1    
    83   42   43 2    
    84   42   44 am   BACKBONE|DICT|INTERRES
    85   44   45 1    
    86   44  100 1    
    87   45   46 1    
    88   45   47 1    
    89   45  101 1    
    90   46  102 1    
    91   46  103 1    
    92   46  104 1    
    93   47   48 2    
    94   47   49 am   BACKBONE|DICT|INTERRES
    95   49   50 1    
    96   49  105 1    
    97   50   51 1    
    98   50   52 1    
    99   50  106 1    
   100   51  107 1    
   101   51  108 1    
   102   51  109 1    
   103   52   53 2    
   104   52   54 am   BACKBONE|DICT|INTERRES
   105   54   55 1    
   106   54  110 1    
   107   55   56 1    
   108   55   59 1    
   109   55  111 1    
   110   56   57 am   BACKBONE|DICT|INTERRES
   111   56   58 2    
   112   57  112 1    
   113   57  113 1    
   114   59   60 1    
   115   59  114 1    
   116   59  115 1    
   117   60   61 1    
   118   61  116 1    
   119   61  117 1    
@<TRIPOS>SUBSTRUCTURE
     1 UNK         1 GROUP             0       ****    0 ROOT    
