@<TRIPOS>MOLECULE
3R8
117   119    1
SMALL
USER_CHARGES


@<TRIPOS>ATOM
      1 CA         15.8322  -22.4204  -44.8807 C.3       0 UNK        -0.2013 
      2 C          16.6656  -23.6843  -45.0276 C.2       0 UNK         0.4866 
      3 O          17.3118  -23.8782  -46.0586 O.2       0 UNK        -0.5176 
      4 N          16.6600  -24.5499  -44.0062 N.am      1 UNK        -0.4884 
      5 CA         17.4075  -25.8100  -43.9682 C.3       1 UNK         0.0853 
      6 C6         16.8102  -26.8206  -42.9530 C.3       10 UNK        -0.0849 
      7 S7         15.0603  -27.2516  -43.2495 S.3       10 UNK        -0.2776 
      8 C8         15.1139  -28.2663  -44.7705 C.3       10 UNK         0.0316 
      9 C9         16.1501  -29.3880  -44.7529 C.ar      10 UNK        -0.0863 
     10 C10        16.2723  -30.2482  -43.6529 C.ar      10 UNK        -0.1009 
     11 C11        17.2498  -31.2486  -43.6425 C.ar      10 UNK        -0.0712 
     12 C12        18.0624  -31.4286  -44.7621 C.ar      10 UNK        -0.0894 
     13 C13        17.9783  -30.5540  -45.8470 C.ar      10 UNK        -0.0745 
     14 C14        17.0092  -29.5475  -45.8469 C.ar      10 UNK        -0.0972 
     15 C15        19.0160  -30.6380  -46.9572 C.3       10 UNK         0.0209 
     16 S16        20.3791  -29.4419  -46.7094 S.3       10 UNK        -0.2568 
     17 C17        20.8144  -29.6877  -44.9477 C.3       10 UNK        -0.0983 
     18 CA         21.7667  -28.6233  -44.3561 C.3       3 UNK         0.0876 
     19 N          21.3236  -27.2710  -44.6941 N.am      3 UNK        -0.4424 
     20 C          21.8989  -26.1203  -44.3269 C.2       2 UNK         0.4918 
     21 O          22.9651  -26.0514  -43.7160 O.2       2 UNK        -0.4875 
     22 CA         21.0993  -24.8366  -44.6314 C.3       2 UNK         0.0481 
     23 CB         21.5723  -24.2115  -45.9520 C.3       2 UNK        -0.1831 
     24 N          19.6422  -25.0467  -44.6812 N.am      2 UNK        -0.4498 
     25 C          18.9018  -25.5489  -43.6813 C.2       1 UNK         0.5027 
     26 O          19.3721  -25.8284  -42.5773 O.2       1 UNK        -0.4969 
     27 C          21.8719  -28.8480  -42.8302 C.2       3 UNK         0.5005 
     28 O          22.7790  -29.5505  -42.3876 O.2       3 UNK        -0.5279 
     29 N          20.9544  -28.2525  -42.0506 N.am      4 UNK        -0.4463 
     30 CA         20.9206  -28.3605  -40.5906 C.3       4 UNK         0.0283 
     31 CB         19.5301  -27.9735  -40.0622 C.3       4 UNK        -0.1875 
     32 C          22.0118  -27.5091  -39.9285 C.2       4 UNK         0.4949 
     33 O          22.5767  -27.9374  -38.9236 O.2       4 UNK        -0.5039 
     34 N          22.3331  -26.3519  -40.5267 N.am      5 UNK        -0.4663 
     35 CA         23.4643  -25.5065  -40.1283 C.3       5 UNK         0.0242 
     36 CB         23.3558  -24.1329  -40.8096 C.3       5 UNK        -0.1982 
     37 C          24.8186  -26.1726  -40.4323 C.2       5 UNK         0.5017 
     38 O          25.7539  -26.0335  -39.6444 O.2       5 UNK        -0.5012 
     39 N          24.8778  -26.9260  -41.5400 N.am      6 UNK        -0.4439 
     40 CA         25.9965  -27.7978  -41.9118 C.3       6 UNK         0.0297 
     41 CB         25.9035  -28.1090  -43.4152 C.3       6 UNK        -0.2006 
     42 C          26.0650  -29.1058  -41.0927 C.2       6 UNK         0.4892 
     43 O          27.0654  -29.8162  -41.1985 O.2       6 UNK        -0.5089 
     44 N          25.0145  -29.4028  -40.3107 N.am      7 UNK        -0.4243 
     45 CA         24.8052  -30.5992  -39.4855 C.3       7 UNK         0.0196 
     46 CB         25.8384  -30.6679  -38.3407 C.3       7 UNK        -0.2007 
     47 C          24.7223  -31.9016  -40.3075 C.2       7 UNK         0.5020 
     48 O          25.1825  -32.9490  -39.8501 O.2       7 UNK        -0.5147 
     49 N          24.1329  -31.8189  -41.5071 N.am      8 UNK        -0.4734 
     50 CA         23.9667  -32.9423  -42.4321 C.3       8 UNK         0.0238 
     51 CB         23.9897  -32.4074  -43.8733 C.3       8 UNK        -0.1912 
     52 C          22.6858  -33.7564  -42.1757 C.2       8 UNK         0.5038 
     53 O          22.6053  -34.8912  -42.6487 O.2       8 UNK        -0.5046 
     54 N          21.7104  -33.1794  -41.4584 N.am      9 UNK        -0.4200 
     55 CA         20.4488  -33.8366  -41.0751 C.3       9 UNK         0.0839 
     56 C          20.6723  -35.0389  -40.1178 C.2       9 UNK         0.5513 
     57 N          19.9098  -36.1115  -40.2793 N.am      9 UNK        -0.7519 
     58 O          21.4933  -34.9868  -39.2044 O.2       9 UNK        -0.4960 
     59 C59        19.4305  -32.8430  -40.4552 C.3       10 UNK        -0.0876 
     60 S60        19.0211  -31.4654  -41.5732 S.3       10 UNK        -0.2414 
     61 C61        17.5165  -32.0794  -42.3987 C.3       10 UNK         0.0169 
     62 H62        15.0886  -22.3677  -45.6754 H         1 UNK         0.0903 
     63 H63        15.3099  -22.3848  -43.9248 H         1 UNK         0.0903 
     64 H64        16.4705  -21.5402  -44.9520 H         1 UNK         0.0903 
     65 H65        16.1169  -24.3423  -43.1797 H         1 UNK         0.3096 
     66 H66        17.3526  -26.2743  -44.9554 H         1 UNK         0.1121 
     67 H67        16.8720  -26.4177  -41.9400 H         1 UNK         0.0849 
     68 H68        17.3986  -27.7398  -42.9355 H         1 UNK         0.0849 
     69 H69        14.1289  -28.7071  -44.9288 H         1 UNK         0.0865 
     70 H70        15.2842  -27.5992  -45.6169 H         1 UNK         0.0865 
     71 H71        15.6392  -30.1074  -42.7876 H         1 UNK         0.1346 
     72 H72        18.8352  -32.1853  -44.7412 H         1 UNK         0.1412 
     73 H73        16.9515  -28.8678  -46.6864 H         1 UNK         0.1426 
     74 H74        18.5440  -30.4483  -47.9223 H         1 UNK         0.0716 
     75 H75        19.4329  -31.6449  -47.0130 H         1 UNK         0.0716 
     76 H76        21.2238  -30.6916  -44.8284 H         1 UNK         0.0695 
     77 H77        19.8940  -29.6584  -44.3664 H         1 UNK         0.0695 
     78 H78        22.7606  -28.7610  -44.7858 H         1 UNK         0.0983 
     79 H79        20.4726  -27.2220  -45.2343 H         1 UNK         0.3095 
     80 H80        21.3014  -24.1287  -43.8252 H         1 UNK         0.0454 
     81 H81        21.0807  -23.2565  -46.1378 H         1 UNK         0.0851 
     82 H82        21.3725  -24.8638  -46.8030 H         1 UNK         0.0851 
     83 H83        22.6466  -24.0222  -45.9312 H         1 UNK         0.0851 
     84 H84        19.1586  -24.7656  -45.5279 H         1 UNK         0.2976 
     85 H85        20.2739  -27.6277  -42.4687 H         1 UNK         0.3116 
     86 H86        21.1014  -29.4041  -40.3232 H         1 UNK         0.0646 
     87 H87        18.7428  -28.5487  -40.5496 H         1 UNK         0.0847 
     88 H88        19.3148  -26.9155  -40.2118 H         1 UNK         0.0847 
     89 H89        19.4573  -28.1683  -38.9917 H         1 UNK         0.0847 
     90 H90        21.8181  -26.0757  -41.3515 H         1 UNK         0.3040 
     91 H91        23.4084  -25.3553  -39.0477 H         1 UNK         0.1015 
     92 H92        24.1588  -23.4726  -40.4792 H         1 UNK         0.0786 
     93 H93        22.4133  -23.6423  -40.5660 H         1 UNK         0.0786 
     94 H94        23.4248  -24.2071  -41.8948 H         1 UNK         0.0786 
     95 H95        24.0803  -26.9127  -42.1669 H         1 UNK         0.3172 
     96 H96        26.9267  -27.2540  -41.7351 H         1 UNK         0.0595 
     97 H97        25.0145  -28.6931  -43.6524 H         1 UNK         0.0839 
     98 H98        26.7673  -28.6857  -43.7484 H         1 UNK         0.0839 
     99 H99        25.8743  -27.1962  -44.0107 H         1 UNK         0.0839 
    100 H100       24.2406  -28.7520  -40.3158 H         1 UNK         0.2998 
    101 H101       23.8223  -30.4765  -39.0283 H         1 UNK         0.0822 
    102 H102       25.8580  -29.7395  -37.7697 H         1 UNK         0.0787 
    103 H103       25.5967  -31.4708  -37.6433 H         1 UNK         0.0787 
    104 H104       26.8457  -30.8546  -38.7140 H         1 UNK         0.0787 
    105 H105       23.7501  -30.9213  -41.8080 H         1 UNK         0.3055 
    106 H106       24.8099  -33.6272  -42.3157 H         1 UNK         0.1106 
    107 H107       23.1675  -31.7181  -44.0595 H         1 UNK         0.0828 
    108 H108       23.9043  -33.2208  -44.5951 H         1 UNK         0.0828 
    109 H109       24.9208  -31.8817  -44.0855 H         1 UNK         0.0828 
    110 H110       21.8564  -32.2439  -41.1117 H         1 UNK         0.2931 
    111 H111       20.0090  -34.2242  -41.9967 H         1 UNK         0.0412 
    112 H112       20.0281  -36.8955  -39.6562 H         1 UNK         0.3472 
    113 H113       19.2274  -36.1604  -41.0202 H         1 UNK         0.3472 
    114 H114       18.5068  -33.3557  -40.1792 H         1 UNK         0.0970 
    115 H115       19.8270  -32.4208  -39.5298 H         1 UNK         0.0970 
    116 H116       17.6470  -33.1261  -42.6778 H         1 UNK         0.0612 
    117 H117       16.6740  -32.0352  -41.7070 H         1 UNK         0.0612 
@<TRIPOS>BOND
     1    1    2 1    
     2    1   62 1    
     3    1   63 1    
     4    1   64 1    
     5    2    3 2    
     6    2    4 am   BACKBONE|DICT|INTERRES
     7    4    5 1    
     8    4   65 1    
     9    5    6 1    
    10    5   25 1    
    11    5   66 1    
    12    6    7 1    
    13    6   67 1    
    14    6   68 1    
    15    7    8 1    
    16    8    9 1    
    17    8   69 1    
    18    8   70 1    
    19    9   10 ar   
    20    9   14 ar   
    21   10   11 ar   
    22   10   71 1    
    23   11   12 ar   
    24   11   61 1    
    25   12   13 ar   
    26   12   72 1    
    27   13   14 ar   
    28   13   15 1    
    29   14   73 1    
    30   15   16 1    
    31   15   74 1    
    32   15   75 1    
    33   16   17 1    
    34   17   18 1    
    35   17   76 1    
    36   17   77 1    
    37   18   19 1    
    38   18   27 1    
    39   18   78 1    
    40   19   20 am   BACKBONE|DICT|INTERRES
    41   19   79 1    
    42   20   21 2    
    43   20   22 1    
    44   22   23 1    
    45   22   24 1    
    46   22   80 1    
    47   23   81 1    
    48   23   82 1    
    49   23   83 1    
    50   24   25 am   BACKBONE|DICT|INTERRES
    51   24   84 1    
    52   25   26 2    
    53   27   28 2    
    54   27   29 am   BACKBONE|DICT|INTERRES
    55   29   30 1    
    56   29   85 1    
    57   30   31 1    
    58   30   32 1    
    59   30   86 1    
    60   31   87 1    
    61   31   88 1    
    62   31   89 1    
    63   32   33 2    
    64   32   34 am   BACKBONE|DICT|INTERRES
    65   34   35 1    
    66   34   90 1    
    67   35   36 1    
    68   35   37 1    
    69   35   91 1    
    70   36   92 1    
    71   36   93 1    
    72   36   94 1    
    73   37   38 2    
    74   37   39 am   BACKBONE|DICT|INTERRES
    75   39   40 1    
    76   39   95 1    
    77   40   41 1    
    78   40   42 1    
    79   40   96 1    
    80   41   97 1    
    81   41   98 1    
    82   41   99 1    
    83   42   43 2    
    84   42   44 am   BACKBONE|DICT|INTERRES
    85   44   45 1    
    86   44  100 1    
    87   45   46 1    
    88   45   47 1    
    89   45  101 1    
    90   46  102 1    
    91   46  103 1    
    92   46  104 1    
    93   47   48 2    
    94   47   49 am   BACKBONE|DICT|INTERRES
    95   49   50 1    
    96   49  105 1    
    97   50   51 1    
    98   50   52 1    
    99   50  106 1    
   100   51  107 1    
   101   51  108 1    
   102   51  109 1    
   103   52   53 2    
   104   52   54 am   BACKBONE|DICT|INTERRES
   105   54   55 1    
   106   54  110 1    
   107   55   56 1    
   108   55   59 1    
   109   55  111 1    
   110   56   57 am   BACKBONE|DICT|INTERRES
   111   56   58 2    
   112   57  112 1    
   113   57  113 1    
   114   59   60 1    
   115   59  114 1    
   116   59  115 1    
   117   60   61 1    
   118   61  116 1    
   119   61  117 1    
@<TRIPOS>SUBSTRUCTURE
     1 UNK         1 GROUP             0       ****    0 ROOT    
