@<TRIPOS>MOLECULE
3R8
117   119    1
SMALL
USER_CHARGES


@<TRIPOS>ATOM
      1 CA         12.7756  -26.5970  -42.2914 C.3       0 UNK        -0.2013 
      2 C          13.6268  -26.6013  -43.5526 C.2       0 UNK         0.4866 
      3 O          13.1556  -26.1802  -44.6092 O.2       0 UNK        -0.5176 
      4 N          14.8754  -27.0694  -43.4482 N.am      1 UNK        -0.4884 
      5 CA         15.8535  -27.1036  -44.5414 C.3       1 UNK         0.0853 
      6 C6         15.5593  -28.2075  -45.5950 C.3       10 UNK        -0.0849 
      7 S7         16.2650  -27.8019  -47.2299 S.3       10 UNK        -0.2776 
      8 C8         17.2160  -29.3021  -47.6365 C.3       10 UNK         0.0316 
      9 C9         18.4570  -29.4714  -46.7691 C.ar      10 UNK        -0.0863 
     10 C10        18.5069  -30.4777  -45.8013 C.ar      10 UNK        -0.1009 
     11 C11        19.6559  -30.6685  -45.0256 C.ar      10 UNK        -0.0712 
     12 C12        20.7661  -29.8407  -45.2318 C.ar      10 UNK        -0.0894 
     13 C13        20.7387  -28.8463  -46.2145 C.ar      10 UNK        -0.0745 
     14 C14        19.5777  -28.6608  -46.9723 C.ar      10 UNK        -0.0972 
     15 C15        21.9806  -28.0187  -46.5180 C.3       10 UNK         0.0209 
     16 S16        21.9297  -26.3710  -45.7472 S.3       10 UNK        -0.2568 
     17 C17        22.7853  -26.6363  -44.1584 C.3       10 UNK        -0.0983 
     18 CA         21.8673  -26.3408  -42.9509 C.3       3 UNK         0.0876 
     19 N          20.7889  -27.3224  -42.8487 N.am      3 UNK        -0.4424 
     20 C          19.7066  -27.2054  -42.0731 C.2       2 UNK         0.4918 
     21 O          19.4895  -26.2638  -41.3081 O.2       2 UNK        -0.4875 
     22 CA         18.6844  -28.3466  -42.1967 C.3       2 UNK         0.0481 
     23 CB         18.3363  -28.9097  -40.8091 C.3       2 UNK        -0.1831 
     24 N          17.4416  -27.9993  -42.8995 N.am      2 UNK        -0.4498 
     25 C          17.2817  -27.2088  -43.9782 C.2       1 UNK         0.5027 
     26 O          18.1777  -26.5617  -44.5187 O.2       1 UNK        -0.4969 
     27 C          22.6960  -26.2350  -41.6575 C.2       3 UNK         0.5005 
     28 O          23.1701  -25.1432  -41.3403 O.2       3 UNK        -0.5279 
     29 N          22.8828  -27.3623  -40.9526 N.am      4 UNK        -0.4463 
     30 CA         23.5970  -27.5428  -39.6780 C.3       4 UNK         0.0283 
     31 CB         22.9740  -26.6992  -38.5500 C.3       4 UNK        -0.1875 
     32 C          25.1224  -27.3441  -39.7522 C.2       4 UNK         0.4949 
     33 O          25.8545  -28.0996  -39.1144 O.2       4 UNK        -0.5039 
     34 N          25.5809  -26.3686  -40.5467 N.am      5 UNK        -0.4663 
     35 CA         26.9864  -26.1686  -40.9160 C.3       5 UNK         0.0242 
     36 CB         27.1513  -24.7722  -41.5365 C.3       5 UNK        -0.1982 
     37 C          27.4966  -27.2551  -41.8816 C.2       5 UNK         0.5017 
     38 O          28.6913  -27.5536  -41.8816 O.2       5 UNK        -0.5012 
     39 N          26.5732  -27.8274  -42.6651 N.am      6 UNK        -0.4439 
     40 CA         26.7588  -29.0302  -43.4710 C.3       6 UNK         0.0297 
     41 CB         26.2435  -28.7734  -44.9027 C.3       6 UNK        -0.2006 
     42 C          26.0534  -30.1811  -42.7330 C.2       6 UNK         0.4892 
     43 O          26.4779  -30.5258  -41.6292 O.2       6 UNK        -0.5089 
     44 N          24.9919  -30.7473  -43.3219 N.am      7 UNK        -0.4243 
     45 CA         24.1434  -31.7493  -42.6767 C.3       7 UNK         0.0196 
     46 CB         23.3962  -32.5608  -43.7466 C.3       7 UNK        -0.2007 
     47 C          23.1658  -31.0874  -41.6912 C.2       7 UNK         0.5020 
     48 O          22.5725  -30.0524  -42.0110 O.2       7 UNK        -0.5147 
     49 N          22.9992  -31.7172  -40.5242 N.am      8 UNK        -0.4734 
     50 CA         22.1138  -31.2905  -39.4406 C.3       8 UNK         0.0238 
     51 CB         22.9296  -31.2108  -38.1341 C.3       8 UNK        -0.1912 
     52 C          20.9421  -32.2786  -39.3390 C.2       8 UNK         0.5038 
     53 O          20.8187  -32.9966  -38.3454 O.2       8 UNK        -0.5046 
     54 N          20.1262  -32.3255  -40.3977 N.am      9 UNK        -0.4200 
     55 CA         18.9725  -33.2295  -40.5406 C.3       9 UNK         0.0839 
     56 C          17.7197  -32.8769  -39.6817 C.2       9 UNK         0.5513 
     57 N          17.7217  -31.8049  -38.8988 N.am      9 UNK        -0.7519 
     58 O          16.7304  -33.6044  -39.7126 O.2       9 UNK        -0.4960 
     59 C59        18.6282  -33.4746  -42.0338 C.3       10 UNK        -0.0876 
     60 S60        18.2470  -31.9520  -42.9683 S.3       10 UNK        -0.2414 
     61 C61        19.7312  -31.8100  -44.0169 C.3       10 UNK         0.0169 
     62 H62        11.8771  -27.1943  -42.4439 H         1 UNK         0.0903 
     63 H63        13.3110  -27.0043  -41.4339 H         1 UNK         0.0903 
     64 H64        12.4705  -25.5794  -42.0483 H         1 UNK         0.0903 
     65 H65        15.2259  -27.3281  -42.5368 H         1 UNK         0.3096 
     66 H66        15.7941  -26.1312  -45.0371 H         1 UNK         0.1121 
     67 H67        15.9029  -29.1852  -45.2529 H         1 UNK         0.0849 
     68 H68        14.4840  -28.3140  -45.7431 H         1 UNK         0.0849 
     69 H69        16.5638  -30.1736  -47.5598 H         1 UNK         0.0865 
     70 H70        17.5208  -29.2483  -48.6827 H         1 UNK         0.0865 
     71 H71        17.6538  -31.1271  -45.6608 H         1 UNK         0.1346 
     72 H72        21.6657  -29.9897  -44.6520 H         1 UNK         0.1412 
     73 H73        19.5514  -27.8937  -47.7344 H         1 UNK         0.1426 
     74 H74        22.0604  -27.8851  -47.5979 H         1 UNK         0.0716 
     75 H75        22.8859  -28.5505  -46.2225 H         1 UNK         0.0716 
     76 H76        23.1705  -27.6550  -44.0987 H         1 UNK         0.0695 
     77 H77        23.6566  -25.9778  -44.1555 H         1 UNK         0.0695 
     78 H78        21.4045  -25.3628  -43.1027 H         1 UNK         0.0983 
     79 H79        20.8433  -28.1052  -43.4836 H         1 UNK         0.3095 
     80 H80        19.1493  -29.1497  -42.7661 H         1 UNK         0.0454 
     81 H81        19.2369  -29.2100  -40.2726 H         1 UNK         0.0851 
     82 H82        17.8206  -28.1724  -40.1925 H         1 UNK         0.0851 
     83 H83        17.6953  -29.7872  -40.8854 H         1 UNK         0.0851 
     84 H84        16.6324  -28.5142  -42.5888 H         1 UNK         0.2976 
     85 H85        22.5294  -28.2257  -41.3605 H         1 UNK         0.3116 
     86 H86        23.4430  -28.5890  -39.4200 H         1 UNK         0.0646 
     87 H87        23.4351  -26.9348  -37.5900 H         1 UNK         0.0847 
     88 H88        21.9059  -26.8938  -38.4535 H         1 UNK         0.0847 
     89 H89        23.1064  -25.6300  -38.7171 H         1 UNK         0.0847 
     90 H90        24.8882  -25.7522  -40.9668 H         1 UNK         0.3040 
     91 H91        27.5931  -26.2208  -40.0090 H         1 UNK         0.1015 
     92 H92        26.8529  -23.9904  -40.8376 H         1 UNK         0.0786 
     93 H93        26.5538  -24.6585  -42.4421 H         1 UNK         0.0786 
     94 H94        28.1919  -24.5853  -41.8057 H         1 UNK         0.0786 
     95 H95        25.6209  -27.5211  -42.5359 H         1 UNK         0.3172 
     96 H96        27.8173  -29.2902  -43.5351 H         1 UNK         0.0595 
     97 H97        26.8064  -27.9688  -45.3764 H         1 UNK         0.0839 
     98 H98        25.1924  -28.4893  -44.9258 H         1 UNK         0.0839 
     99 H99        26.3678  -29.6564  -45.5314 H         1 UNK         0.0839 
    100 H100       24.6873  -30.3998  -44.2185 H         1 UNK         0.2998 
    101 H101       24.7823  -32.4411  -42.1227 H         1 UNK         0.0822 
    102 H102       24.0926  -33.1325  -44.3604 H         1 UNK         0.0787 
    103 H103       22.7091  -33.2753  -43.2910 H         1 UNK         0.0787 
    104 H104       22.8162  -31.9262  -44.4142 H         1 UNK         0.0787 
    105 H105       23.4951  -32.5845  -40.3682 H         1 UNK         0.3055 
    106 H106       21.6957  -30.3022  -39.6439 H         1 UNK         0.1106 
    107 H107       23.3213  -32.1853  -37.8394 H         1 UNK         0.0828 
    108 H108       23.7790  -30.5351  -38.2292 H         1 UNK         0.0828 
    109 H109       22.3135  -30.8448  -37.3118 H         1 UNK         0.0828 
    110 H110       20.2917  -31.6996  -41.1712 H         1 UNK         0.2931 
    111 H111       19.2958  -34.1969  -40.1509 H         1 UNK         0.0412 
    112 H112       16.9054  -31.6005  -38.3441 H         1 UNK         0.3472 
    113 H113       18.5377  -31.2212  -38.8305 H         1 UNK         0.3472 
    114 H114       17.7800  -34.1555  -42.1274 H         1 UNK         0.0970 
    115 H115       19.4590  -33.9945  -42.5130 H         1 UNK         0.0970 
    116 H116       20.5960  -31.6848  -43.3658 H         1 UNK         0.0612 
    117 H117       19.8778  -32.7423  -44.5636 H         1 UNK         0.0612 
@<TRIPOS>BOND
     1    1    2 1    
     2    1   62 1    
     3    1   63 1    
     4    1   64 1    
     5    2    3 2    
     6    2    4 am   BACKBONE|DICT|INTERRES
     7    4    5 1    
     8    4   65 1    
     9    5    6 1    
    10    5   25 1    
    11    5   66 1    
    12    6    7 1    
    13    6   67 1    
    14    6   68 1    
    15    7    8 1    
    16    8    9 1    
    17    8   69 1    
    18    8   70 1    
    19    9   10 ar   
    20    9   14 ar   
    21   10   11 ar   
    22   10   71 1    
    23   11   12 ar   
    24   11   61 1    
    25   12   13 ar   
    26   12   72 1    
    27   13   14 ar   
    28   13   15 1    
    29   14   73 1    
    30   15   16 1    
    31   15   74 1    
    32   15   75 1    
    33   16   17 1    
    34   17   18 1    
    35   17   76 1    
    36   17   77 1    
    37   18   19 1    
    38   18   27 1    
    39   18   78 1    
    40   19   20 am   BACKBONE|DICT|INTERRES
    41   19   79 1    
    42   20   21 2    
    43   20   22 1    
    44   22   23 1    
    45   22   24 1    
    46   22   80 1    
    47   23   81 1    
    48   23   82 1    
    49   23   83 1    
    50   24   25 am   BACKBONE|DICT|INTERRES
    51   24   84 1    
    52   25   26 2    
    53   27   28 2    
    54   27   29 am   BACKBONE|DICT|INTERRES
    55   29   30 1    
    56   29   85 1    
    57   30   31 1    
    58   30   32 1    
    59   30   86 1    
    60   31   87 1    
    61   31   88 1    
    62   31   89 1    
    63   32   33 2    
    64   32   34 am   BACKBONE|DICT|INTERRES
    65   34   35 1    
    66   34   90 1    
    67   35   36 1    
    68   35   37 1    
    69   35   91 1    
    70   36   92 1    
    71   36   93 1    
    72   36   94 1    
    73   37   38 2    
    74   37   39 am   BACKBONE|DICT|INTERRES
    75   39   40 1    
    76   39   95 1    
    77   40   41 1    
    78   40   42 1    
    79   40   96 1    
    80   41   97 1    
    81   41   98 1    
    82   41   99 1    
    83   42   43 2    
    84   42   44 am   BACKBONE|DICT|INTERRES
    85   44   45 1    
    86   44  100 1    
    87   45   46 1    
    88   45   47 1    
    89   45  101 1    
    90   46  102 1    
    91   46  103 1    
    92   46  104 1    
    93   47   48 2    
    94   47   49 am   BACKBONE|DICT|INTERRES
    95   49   50 1    
    96   49  105 1    
    97   50   51 1    
    98   50   52 1    
    99   50  106 1    
   100   51  107 1    
   101   51  108 1    
   102   51  109 1    
   103   52   53 2    
   104   52   54 am   BACKBONE|DICT|INTERRES
   105   54   55 1    
   106   54  110 1    
   107   55   56 1    
   108   55   59 1    
   109   55  111 1    
   110   56   57 am   BACKBONE|DICT|INTERRES
   111   56   58 2    
   112   57  112 1    
   113   57  113 1    
   114   59   60 1    
   115   59  114 1    
   116   59  115 1    
   117   60   61 1    
   118   61  116 1    
   119   61  117 1    
@<TRIPOS>SUBSTRUCTURE
     1 UNK         1 GROUP             0       ****    0 ROOT    
