@<TRIPOS>MOLECULE
3R8
117   119    1
SMALL
USER_CHARGES


@<TRIPOS>ATOM
      1 CA         15.2301  -22.7178  -41.9231 C.3       0 UNK        -0.2013 
      2 C          16.0097  -23.1230  -43.1650 C.2       0 UNK         0.4866 
      3 O          16.5151  -22.2580  -43.8813 O.2       0 UNK        -0.5176 
      4 N          16.1032  -24.4312  -43.4309 N.am      1 UNK        -0.4884 
      5 CA         16.8817  -25.0187  -44.5251 C.3       1 UNK         0.0853 
      6 C6         16.4646  -26.4851  -44.8261 C.3       10 UNK        -0.0849 
      7 S7         16.1775  -27.5258  -43.3483 S.3       10 UNK        -0.2776 
      8 C8         15.4804  -29.0343  -44.0989 C.3       10 UNK         0.0316 
      9 C9         16.5458  -30.1095  -44.2396 C.ar      10 UNK        -0.0863 
     10 C10        16.6387  -31.1352  -43.2935 C.ar      10 UNK        -0.1009 
     11 C11        17.6519  -32.0949  -43.3788 C.ar      10 UNK        -0.0712 
     12 C12        18.5924  -32.0024  -44.4126 C.ar      10 UNK        -0.0894 
     13 C13        18.5022  -30.9895  -45.3724 C.ar      10 UNK        -0.0745 
     14 C14        17.4604  -30.0611  -45.2942 C.ar      10 UNK        -0.0972 
     15 C15        19.5571  -30.8741  -46.4669 C.3       10 UNK         0.0209 
     16 S16        20.4014  -29.2547  -46.4651 S.3       10 UNK        -0.2568 
     17 C17        20.8850  -29.0990  -44.7124 C.3       10 UNK        -0.0983 
     18 CA         21.7005  -27.8211  -44.4066 C.3       3 UNK         0.0876 
     19 N          21.0278  -26.6108  -44.8920 N.am      3 UNK        -0.4424 
     20 C          21.4987  -25.3595  -44.8076 C.2       2 UNK         0.4918 
     21 O          22.5939  -25.0717  -44.3242 O.2       2 UNK        -0.4875 
     22 CA         20.5823  -24.2316  -45.3140 C.3       2 UNK         0.0481 
     23 CB         21.0228  -23.7816  -46.7159 C.3       2 UNK        -0.1831 
     24 N          19.1486  -24.5549  -45.3386 N.am      2 UNK        -0.4498 
     25 C          18.3982  -24.8744  -44.2721 C.2       1 UNK         0.5027 
     26 O          18.8573  -25.0598  -43.1418 O.2       1 UNK        -0.4969 
     27 C          22.0189  -27.7658  -42.8974 C.2       3 UNK         0.5005 
     28 O          23.0135  -28.3534  -42.4723 O.2       3 UNK        -0.5279 
     29 N          21.1966  -27.0367  -42.1238 N.am      4 UNK        -0.4463 
     30 CA         21.3314  -26.8296  -40.6779 C.3       4 UNK         0.0283 
     31 CB         20.0834  -26.0949  -40.1623 C.3       4 UNK        -0.1875 
     32 C          22.6125  -26.0875  -40.2463 C.2       4 UNK         0.4949 
     33 O          22.9348  -26.0991  -39.0583 O.2       4 UNK        -0.5039 
     34 N          23.3312  -25.4716  -41.1971 N.am      5 UNK        -0.4663 
     35 CA         24.6738  -24.9206  -40.9916 C.3       5 UNK         0.0242 
     36 CB         25.0068  -23.9716  -42.1542 C.3       5 UNK        -0.1982 
     37 C          25.7605  -26.0079  -40.8549 C.2       5 UNK         0.5017 
     38 O          26.8511  -25.7007  -40.3715 O.2       5 UNK        -0.5012 
     39 N          25.4558  -27.2399  -41.2829 N.am      6 UNK        -0.4439 
     40 CA         26.3014  -28.4263  -41.1793 C.3       6 UNK         0.0297 
     41 CB         26.5981  -28.9341  -42.6050 C.3       6 UNK        -0.2006 
     42 C          25.5922  -29.4805  -40.3073 C.2       6 UNK         0.4892 
     43 O          24.6994  -29.1396  -39.5280 O.2       6 UNK        -0.5089 
     44 N          26.0042  -30.7491  -40.4416 N.am      7 UNK        -0.4243 
     45 CA         25.4145  -31.8985  -39.7431 C.3       7 UNK         0.0196 
     46 CB         26.3631  -33.1020  -39.8694 C.3       7 UNK        -0.2007 
     47 C          24.0040  -32.2759  -40.2386 C.2       7 UNK         0.5020 
     48 O          23.2901  -32.9836  -39.5258 O.2       7 UNK        -0.5147 
     49 N          23.6332  -31.8127  -41.4422 N.am      8 UNK        -0.4734 
     50 CA         22.3555  -32.0356  -42.1255 C.3       8 UNK         0.0238 
     51 CB         21.2241  -31.2568  -41.4121 C.3       8 UNK        -0.1912 
     52 C          22.0728  -33.5383  -42.3200 C.2       8 UNK         0.5038 
     53 O          22.8443  -34.2067  -43.0102 O.2       8 UNK        -0.5046 
     54 N          20.9920  -34.0346  -41.7099 N.am      9 UNK        -0.4200 
     55 CA         20.5851  -35.4472  -41.7054 C.3       9 UNK         0.0839 
     56 C          21.3241  -36.3113  -40.6409 C.2       9 UNK         0.5513 
     57 N          22.1876  -35.7561  -39.7975 N.am      9 UNK        -0.7519 
     58 O          21.1154  -37.5205  -40.5850 O.2       9 UNK        -0.4960 
     59 C59        19.0423  -35.5900  -41.5864 C.3       10 UNK        -0.0876 
     60 S60        18.1645  -34.8240  -42.9927 S.3       10 UNK        -0.2414 
     61 C61        17.7545  -33.1812  -42.3116 C.3       10 UNK         0.0169 
     62 H62        14.8269  -23.5819  -41.3951 H         1 UNK         0.0903 
     63 H63        15.8767  -22.1724  -41.2363 H         1 UNK         0.0903 
     64 H64        14.3983  -22.0693  -42.1967 H         1 UNK         0.0903 
     65 H65        15.7006  -25.1056  -42.7942 H         1 UNK         0.3096 
     66 H66        16.6530  -24.4329  -45.4188 H         1 UNK         0.1121 
     67 H67        15.5330  -26.4662  -45.3939 H         1 UNK         0.0849 
     68 H68        17.1911  -26.9745  -45.4769 H         1 UNK         0.0849 
     69 H69        14.6645  -29.3927  -43.4692 H         1 UNK         0.0865 
     70 H70        15.0352  -28.8145  -45.0703 H         1 UNK         0.0865 
     71 H71        15.9314  -31.1740  -42.4761 H         1 UNK         0.1346 
     72 H72        19.4022  -32.7170  -44.4644 H         1 UNK         0.1412 
     73 H73        17.3943  -29.2713  -46.0293 H         1 UNK         0.1426 
     74 H74        19.0836  -31.0270  -47.4375 H         1 UNK         0.0716 
     75 H75        20.3095  -31.6575  -46.3635 H         1 UNK         0.0716 
     76 H76        19.9798  -29.1157  -44.1018 H         1 UNK         0.0695 
     77 H77        21.4563  -29.9878  -44.4432 H         1 UNK         0.0695 
     78 H78        22.6554  -27.8886  -44.9323 H         1 UNK         0.0983 
     79 H79        20.1287  -26.7540  -45.3266 H         1 UNK         0.3095 
     80 H80        20.7103  -23.3883  -44.6324 H         1 UNK         0.0454 
     81 H81        22.0784  -23.5056  -46.7241 H         1 UNK         0.0851 
     82 H82        20.8881  -24.5721  -47.4553 H         1 UNK         0.0851 
     83 H83        20.4618  -22.9084  -47.0491 H         1 UNK         0.0851 
     84 H84        18.6891  -24.4379  -46.2308 H         1 UNK         0.2976 
     85 H85        20.4222  -26.5564  -42.5689 H         1 UNK         0.3116 
     86 H86        21.3648  -27.8159  -40.2107 H         1 UNK         0.0646 
     87 H87        20.1157  -25.9800  -39.0780 H         1 UNK         0.0847 
     88 H88        19.1709  -26.6414  -40.4022 H         1 UNK         0.0847 
     89 H89        19.9983  -25.0966  -40.5934 H         1 UNK         0.0847 
     90 H90        22.9882  -25.4832  -42.1506 H         1 UNK         0.3040 
     91 H91        24.6727  -24.3424  -40.0648 H         1 UNK         0.1015 
     92 H92        24.2686  -23.1740  -42.2408 H         1 UNK         0.0786 
     93 H93        25.0423  -24.5002  -43.1077 H         1 UNK         0.0786 
     94 H94        25.9789  -23.4990  -42.0069 H         1 UNK         0.0786 
     95 H95        24.5086  -27.4246  -41.6047 H         1 UNK         0.3172 
     96 H96        27.2459  -28.1835  -40.6891 H         1 UNK         0.0595 
     97 H97        27.3261  -29.7457  -42.6032 H         1 UNK         0.0839 
     98 H98        27.0176  -28.1402  -43.2235 H         1 UNK         0.0839 
     99 H99        25.6957  -29.2945  -43.1011 H         1 UNK         0.0839 
    100 H100       26.7546  -30.9487  -41.0873 H         1 UNK         0.2998 
    101 H101       25.3254  -31.6433  -38.6848 H         1 UNK         0.0822 
    102 H102       26.4995  -33.4015  -40.9094 H         1 UNK         0.0787 
    103 H103       27.3447  -32.8809  -39.4499 H         1 UNK         0.0787 
    104 H104       25.9706  -33.9663  -39.3314 H         1 UNK         0.0787 
    105 H105       24.3049  -31.2547  -41.9489 H         1 UNK         0.3055 
    106 H106       22.4678  -31.6191  -43.1267 H         1 UNK         0.1106 
    107 H107       21.0151  -31.6427  -40.4139 H         1 UNK         0.0828 
    108 H108       21.4882  -30.2073  -41.2940 H         1 UNK         0.0828 
    109 H109       20.2998  -31.2848  -41.9895 H         1 UNK         0.0828 
    110 H110       20.4518  -33.4175  -41.1242 H         1 UNK         0.2931 
    111 H111       20.8701  -35.8759  -42.6683 H         1 UNK         0.0412 
    112 H112       22.6529  -36.3403  -39.1212 H         1 UNK         0.3472 
    113 H113       22.3987  -34.7641  -39.8290 H         1 UNK         0.3472 
    114 H114       18.7587  -36.6441  -41.5714 H         1 UNK         0.0970 
    115 H115       18.6810  -35.1710  -40.6455 H         1 UNK         0.0970 
    116 H116       18.5059  -32.8742  -41.5859 H         1 UNK         0.0612 
    117 H117       16.8166  -33.2692  -41.7610 H         1 UNK         0.0612 
@<TRIPOS>BOND
     1    1    2 1    
     2    1   62 1    
     3    1   63 1    
     4    1   64 1    
     5    2    3 2    
     6    2    4 am   BACKBONE|DICT|INTERRES
     7    4    5 1    
     8    4   65 1    
     9    5    6 1    
    10    5   25 1    
    11    5   66 1    
    12    6    7 1    
    13    6   67 1    
    14    6   68 1    
    15    7    8 1    
    16    8    9 1    
    17    8   69 1    
    18    8   70 1    
    19    9   10 ar   
    20    9   14 ar   
    21   10   11 ar   
    22   10   71 1    
    23   11   12 ar   
    24   11   61 1    
    25   12   13 ar   
    26   12   72 1    
    27   13   14 ar   
    28   13   15 1    
    29   14   73 1    
    30   15   16 1    
    31   15   74 1    
    32   15   75 1    
    33   16   17 1    
    34   17   18 1    
    35   17   76 1    
    36   17   77 1    
    37   18   19 1    
    38   18   27 1    
    39   18   78 1    
    40   19   20 am   BACKBONE|DICT|INTERRES
    41   19   79 1    
    42   20   21 2    
    43   20   22 1    
    44   22   23 1    
    45   22   24 1    
    46   22   80 1    
    47   23   81 1    
    48   23   82 1    
    49   23   83 1    
    50   24   25 am   BACKBONE|DICT|INTERRES
    51   24   84 1    
    52   25   26 2    
    53   27   28 2    
    54   27   29 am   BACKBONE|DICT|INTERRES
    55   29   30 1    
    56   29   85 1    
    57   30   31 1    
    58   30   32 1    
    59   30   86 1    
    60   31   87 1    
    61   31   88 1    
    62   31   89 1    
    63   32   33 2    
    64   32   34 am   BACKBONE|DICT|INTERRES
    65   34   35 1    
    66   34   90 1    
    67   35   36 1    
    68   35   37 1    
    69   35   91 1    
    70   36   92 1    
    71   36   93 1    
    72   36   94 1    
    73   37   38 2    
    74   37   39 am   BACKBONE|DICT|INTERRES
    75   39   40 1    
    76   39   95 1    
    77   40   41 1    
    78   40   42 1    
    79   40   96 1    
    80   41   97 1    
    81   41   98 1    
    82   41   99 1    
    83   42   43 2    
    84   42   44 am   BACKBONE|DICT|INTERRES
    85   44   45 1    
    86   44  100 1    
    87   45   46 1    
    88   45   47 1    
    89   45  101 1    
    90   46  102 1    
    91   46  103 1    
    92   46  104 1    
    93   47   48 2    
    94   47   49 am   BACKBONE|DICT|INTERRES
    95   49   50 1    
    96   49  105 1    
    97   50   51 1    
    98   50   52 1    
    99   50  106 1    
   100   51  107 1    
   101   51  108 1    
   102   51  109 1    
   103   52   53 2    
   104   52   54 am   BACKBONE|DICT|INTERRES
   105   54   55 1    
   106   54  110 1    
   107   55   56 1    
   108   55   59 1    
   109   55  111 1    
   110   56   57 am   BACKBONE|DICT|INTERRES
   111   56   58 2    
   112   57  112 1    
   113   57  113 1    
   114   59   60 1    
   115   59  114 1    
   116   59  115 1    
   117   60   61 1    
   118   61  116 1    
   119   61  117 1    
@<TRIPOS>SUBSTRUCTURE
     1 UNK         1 GROUP             0       ****    0 ROOT    
