@<TRIPOS>MOLECULE
3R8
117   119    1
SMALL
USER_CHARGES


@<TRIPOS>ATOM
      1 CA         20.1827  -29.3303  -42.3688 C.3       0 UNK        -0.2013 
      2 C          19.8554  -27.8494  -42.4347 C.2       0 UNK         0.4866 
      3 O          20.6221  -27.0303  -41.9292 O.2       0 UNK        -0.5176 
      4 N          18.6994  -27.5369  -43.0304 N.am      1 UNK        -0.4884 
      5 CA         18.0178  -26.2400  -43.0506 C.3       1 UNK         0.0853 
      6 C6         16.4996  -26.3961  -43.3760 C.3       10 UNK        -0.0849 
      7 S7         15.6684  -27.7497  -42.4689 S.3       10 UNK        -0.2776 
      8 C8         15.3015  -28.9347  -43.8119 C.3       10 UNK         0.0316 
      9 C9         16.5457  -29.6732  -44.2934 C.ar      10 UNK        -0.0863 
     10 C10        16.9305  -30.8695  -43.6789 C.ar      10 UNK        -0.1009 
     11 C11        18.0670  -31.5612  -44.1118 C.ar      10 UNK        -0.0712 
     12 C12        18.8224  -31.0422  -45.1677 C.ar      10 UNK        -0.0894 
     13 C13        18.4720  -29.8291  -45.7650 C.ar      10 UNK        -0.0745 
     14 C14        17.3134  -29.1665  -45.3485 C.ar      10 UNK        -0.0972 
     15 C15        19.3769  -29.2170  -46.8229 C.3       10 UNK         0.0209 
     16 S16        20.9124  -28.6006  -46.0584 S.3       10 UNK        -0.2568 
     17 C17        21.6373  -27.6086  -47.4092 C.3       10 UNK        -0.0983 
     18 CA         21.7010  -26.0922  -47.0904 C.3       3 UNK         0.0876 
     19 N          20.3834  -25.5718  -46.7183 N.am      3 UNK        -0.4424 
     20 C          20.0207  -24.2839  -46.7339 C.2       2 UNK         0.4918 
     21 O          20.7257  -23.3777  -47.1775 O.2       2 UNK        -0.4875 
     22 CA         18.6468  -23.9465  -46.1254 C.3       2 UNK         0.0481 
     23 CB         17.5998  -23.7768  -47.2376 C.3       2 UNK        -0.1831 
     24 N          18.1561  -24.9291  -45.1479 N.am      2 UNK        -0.4498 
     25 C          18.7359  -25.2235  -43.9718 C.2       1 UNK         0.5027 
     26 O          19.7969  -24.7140  -43.6123 O.2       1 UNK        -0.4969 
     27 C          22.7953  -25.7694  -46.0432 C.2       3 UNK         0.5005 
     28 O          23.9782  -25.8824  -46.3687 O.2       3 UNK        -0.5279 
     29 N          22.3933  -25.3780  -44.8207 N.am      4 UNK        -0.4463 
     30 CA         23.2309  -25.0105  -43.6731 C.3       4 UNK         0.0283 
     31 CB         24.0507  -23.7372  -43.9718 C.3       4 UNK        -0.1875 
     32 C          24.0943  -26.1665  -43.1322 C.2       4 UNK         0.4949 
     33 O          25.1486  -25.9170  -42.5454 O.2       4 UNK        -0.5039 
     34 N          23.6312  -27.4114  -43.3164 N.am      5 UNK        -0.4663 
     35 CA         24.2941  -28.6178  -42.8107 C.3       5 UNK         0.0242 
     36 CB         23.8017  -29.8409  -43.6008 C.3       5 UNK        -0.1982 
     37 C          24.1072  -28.8135  -41.2931 C.2       5 UNK         0.5017 
     38 O          24.9132  -29.5141  -40.6791 O.2       5 UNK        -0.5012 
     39 N          23.0705  -28.1813  -40.7180 N.am      6 UNK        -0.4439 
     40 CA         22.7316  -28.1274  -39.2939 C.3       6 UNK         0.0297 
     41 CB         23.7093  -27.1808  -38.5602 C.3       6 UNK        -0.2006 
     42 C          22.6042  -29.5274  -38.6604 C.2       6 UNK         0.4892 
     43 O          21.7822  -30.3250  -39.1169 O.2       6 UNK        -0.5089 
     44 N          23.4240  -29.8081  -37.6378 N.am      7 UNK        -0.4243 
     45 CA         23.4467  -31.0407  -36.8423 C.3       7 UNK         0.0196 
     46 CB         24.4618  -30.8692  -35.6994 C.3       7 UNK        -0.2007 
     47 C          23.7307  -32.3376  -37.6258 C.2       7 UNK         0.5020 
     48 O          23.5464  -33.4186  -37.0656 O.2       7 UNK        -0.5147 
     49 N          24.1549  -32.2294  -38.8934 N.am      8 UNK        -0.4734 
     50 CA         24.3281  -33.3569  -39.8124 C.3       8 UNK         0.0238 
     51 CB         24.9889  -32.8596  -41.1059 C.3       8 UNK        -0.1912 
     52 C          23.0174  -34.0984  -40.1385 C.2       8 UNK         0.5038 
     53 O          23.0753  -35.2967  -40.4193 O.2       8 UNK        -0.5046 
     54 N          21.8744  -33.3987  -40.0899 N.am      9 UNK        -0.4200 
     55 CA         20.5424  -33.9826  -40.3163 C.3       9 UNK         0.0839 
     56 C          19.3665  -33.2262  -39.6364 C.2       9 UNK         0.5513 
     57 N          19.5532  -32.0498  -39.0500 N.am      9 UNK        -0.7519 
     58 O          18.2501  -33.7381  -39.6157 O.2       9 UNK        -0.4960 
     59 C59        20.2689  -34.3104  -41.8114 C.3       10 UNK        -0.0876 
     60 S60        20.2206  -32.8321  -42.8801 S.3       10 UNK        -0.2414 
     61 C61        18.4814  -32.8589  -43.4287 C.3       10 UNK         0.0169 
     62 H62        20.9379  -29.5420  -41.6153 H         1 UNK         0.0903 
     63 H63        19.2969  -29.9062  -42.1031 H         1 UNK         0.0903 
     64 H64        20.5439  -29.6849  -43.3313 H         1 UNK         0.0903 
     65 H65        18.1566  -28.2939  -43.4273 H         1 UNK         0.3096 
     66 H66        18.0915  -25.8322  -42.0399 H         1 UNK         0.1121 
     67 H67        15.9774  -25.4682  -43.1345 H         1 UNK         0.0849 
     68 H68        16.3233  -26.5612  -44.4378 H         1 UNK         0.0849 
     69 H69        14.5690  -29.6560  -43.4461 H         1 UNK         0.0865 
     70 H70        14.8168  -28.4189  -44.6425 H         1 UNK         0.0865 
     71 H71        16.3435  -31.2607  -42.8588 H         1 UNK         0.1346 
     72 H72        19.7151  -31.5587  -45.4935 H         1 UNK         0.1412 
     73 H73        17.0275  -28.2417  -45.8291 H         1 UNK         0.1426 
     74 H74        18.8681  -28.4001  -47.3370 H         1 UNK         0.0716 
     75 H75        19.6205  -29.9626  -47.5811 H         1 UNK         0.0716 
     76 H76        21.0563  -27.7630  -48.3196 H         1 UNK         0.0695 
     77 H77        22.6316  -28.0008  -47.6320 H         1 UNK         0.0695 
     78 H78        22.0072  -25.5812  -48.0061 H         1 UNK         0.0983 
     79 H79        19.7407  -26.2480  -46.3341 H         1 UNK         0.3095 
     80 H80        18.7494  -22.9912  -45.6066 H         1 UNK         0.0454 
     81 H81        17.9210  -23.0304  -47.9657 H         1 UNK         0.0851 
     82 H82        16.6433  -23.4411  -46.8368 H         1 UNK         0.0851 
     83 H83        17.4304  -24.7076  -47.7803 H         1 UNK         0.0851 
     84 H84        17.2806  -25.3763  -45.3753 H         1 UNK         0.2976 
     85 H85        21.3962  -25.3049  -44.6407 H         1 UNK         0.3116 
     86 H86        22.5344  -24.7667  -42.8695 H         1 UNK         0.0646 
     87 H87        24.8249  -23.9192  -44.7176 H         1 UNK         0.0847 
     88 H88        23.4136  -22.9321  -44.3376 H         1 UNK         0.0847 
     89 H89        24.5474  -23.3711  -43.0725 H         1 UNK         0.0847 
     90 H90        22.7569  -27.5307  -43.8083 H         1 UNK         0.3040 
     91 H91        25.3662  -28.5134  -42.9931 H         1 UNK         0.1015 
     92 H92        24.4453  -30.7005  -43.4165 H         1 UNK         0.0786 
     93 H93        23.8183  -29.6576  -44.6756 H         1 UNK         0.0786 
     94 H94        22.7889  -30.1297  -43.3249 H         1 UNK         0.0786 
     95 H95        22.4293  -27.6756  -41.3229 H         1 UNK         0.3172 
     96 H96        21.7372  -27.6824  -39.2363 H         1 UNK         0.0595 
     97 H97        24.7384  -27.5409  -38.5964 H         1 UNK         0.0839 
     98 H98        23.4313  -27.0524  -37.5131 H         1 UNK         0.0839 
     99 H99        23.6981  -26.1884  -39.0115 H         1 UNK         0.0839 
    100 H100       24.0863  -29.0958  -37.3672 H         1 UNK         0.2998 
    101 H101       22.4539  -31.1561  -36.4026 H         1 UNK         0.0822 
    102 H102       24.4796  -31.7488  -35.0540 H         1 UNK         0.0787 
    103 H103       25.4739  -30.7238  -36.0792 H         1 UNK         0.0787 
    104 H104       24.2118  -30.0155  -35.0691 H         1 UNK         0.0787 
    105 H105       24.2917  -31.3022  -39.2781 H         1 UNK         0.3055 
    106 H106       24.9989  -34.0750  -39.3353 H         1 UNK         0.1106 
    107 H107       24.3444  -32.1549  -41.6301 H         1 UNK         0.0828 
    108 H108       25.9391  -32.3637  -40.9064 H         1 UNK         0.0828 
    109 H109       25.1898  -33.6877  -41.7870 H         1 UNK         0.0828 
    110 H110       21.9039  -32.4164  -39.8490 H         1 UNK         0.2931 
    111 H111       20.5503  -34.9402  -39.7915 H         1 UNK         0.0412 
    112 H112       20.4344  -31.5453  -39.0812 H         1 UNK         0.3472 
    113 H113       18.7606  -31.6102  -38.6110 H         1 UNK         0.3472 
    114 H114       21.0432  -34.9750  -42.1961 H         1 UNK         0.0970 
    115 H115       19.3394  -34.8738  -41.9103 H         1 UNK         0.0970 
    116 H116       18.3347  -33.6907  -44.1187 H         1 UNK         0.0612 
    117 H117       17.8436  -33.0496  -42.5640 H         1 UNK         0.0612 
@<TRIPOS>BOND
     1    1    2 1    
     2    1   62 1    
     3    1   63 1    
     4    1   64 1    
     5    2    3 2    
     6    2    4 am   BACKBONE|DICT|INTERRES
     7    4    5 1    
     8    4   65 1    
     9    5    6 1    
    10    5   25 1    
    11    5   66 1    
    12    6    7 1    
    13    6   67 1    
    14    6   68 1    
    15    7    8 1    
    16    8    9 1    
    17    8   69 1    
    18    8   70 1    
    19    9   10 ar   
    20    9   14 ar   
    21   10   11 ar   
    22   10   71 1    
    23   11   12 ar   
    24   11   61 1    
    25   12   13 ar   
    26   12   72 1    
    27   13   14 ar   
    28   13   15 1    
    29   14   73 1    
    30   15   16 1    
    31   15   74 1    
    32   15   75 1    
    33   16   17 1    
    34   17   18 1    
    35   17   76 1    
    36   17   77 1    
    37   18   19 1    
    38   18   27 1    
    39   18   78 1    
    40   19   20 am   BACKBONE|DICT|INTERRES
    41   19   79 1    
    42   20   21 2    
    43   20   22 1    
    44   22   23 1    
    45   22   24 1    
    46   22   80 1    
    47   23   81 1    
    48   23   82 1    
    49   23   83 1    
    50   24   25 am   BACKBONE|DICT|INTERRES
    51   24   84 1    
    52   25   26 2    
    53   27   28 2    
    54   27   29 am   BACKBONE|DICT|INTERRES
    55   29   30 1    
    56   29   85 1    
    57   30   31 1    
    58   30   32 1    
    59   30   86 1    
    60   31   87 1    
    61   31   88 1    
    62   31   89 1    
    63   32   33 2    
    64   32   34 am   BACKBONE|DICT|INTERRES
    65   34   35 1    
    66   34   90 1    
    67   35   36 1    
    68   35   37 1    
    69   35   91 1    
    70   36   92 1    
    71   36   93 1    
    72   36   94 1    
    73   37   38 2    
    74   37   39 am   BACKBONE|DICT|INTERRES
    75   39   40 1    
    76   39   95 1    
    77   40   41 1    
    78   40   42 1    
    79   40   96 1    
    80   41   97 1    
    81   41   98 1    
    82   41   99 1    
    83   42   43 2    
    84   42   44 am   BACKBONE|DICT|INTERRES
    85   44   45 1    
    86   44  100 1    
    87   45   46 1    
    88   45   47 1    
    89   45  101 1    
    90   46  102 1    
    91   46  103 1    
    92   46  104 1    
    93   47   48 2    
    94   47   49 am   BACKBONE|DICT|INTERRES
    95   49   50 1    
    96   49  105 1    
    97   50   51 1    
    98   50   52 1    
    99   50  106 1    
   100   51  107 1    
   101   51  108 1    
   102   51  109 1    
   103   52   53 2    
   104   52   54 am   BACKBONE|DICT|INTERRES
   105   54   55 1    
   106   54  110 1    
   107   55   56 1    
   108   55   59 1    
   109   55  111 1    
   110   56   57 am   BACKBONE|DICT|INTERRES
   111   56   58 2    
   112   57  112 1    
   113   57  113 1    
   114   59   60 1    
   115   59  114 1    
   116   59  115 1    
   117   60   61 1    
   118   61  116 1    
   119   61  117 1    
@<TRIPOS>SUBSTRUCTURE
     1 UNK         1 GROUP             0       ****    0 ROOT    
