@<TRIPOS>MOLECULE
3R8
117   119    1
SMALL
USER_CHARGES


@<TRIPOS>ATOM
      1 CA         19.3929  -27.1330  -41.2243 C.3       0 UNK        -0.2013 
      2 C          18.8676  -26.5949  -42.5462 C.2       0 UNK         0.4866 
      3 O          19.5387  -26.7388  -43.5671 O.2       0 UNK        -0.5176 
      4 N          17.6842  -25.9668  -42.5318 N.am      1 UNK        -0.4884 
      5 CA         16.9607  -25.4389  -43.7002 C.3       1 UNK         0.0853 
      6 C6         16.3778  -26.5617  -44.6089 C.3       10 UNK        -0.0849 
      7 S7         15.3709  -27.7791  -43.6962 S.3       10 UNK        -0.2776 
      8 C8         15.7365  -29.3104  -44.6153 C.3       10 UNK         0.0316 
      9 C9         17.1844  -29.7597  -44.4601 C.ar      10 UNK        -0.0863 
     10 C10        17.6292  -30.2811  -43.2427 C.ar      10 UNK        -0.1009 
     11 C11        18.9394  -30.7486  -43.1049 C.ar      10 UNK        -0.0712 
     12 C12        19.8182  -30.6672  -44.1906 C.ar      10 UNK        -0.0894 
     13 C13        19.3870  -30.1460  -45.4162 C.ar      10 UNK        -0.0745 
     14 C14        18.0672  -29.6988  -45.5437 C.ar      10 UNK        -0.0972 
     15 C15        20.3240  -30.1348  -46.6208 C.3       10 UNK         0.0209 
     16 S16        20.5365  -28.4813  -47.3603 S.3       10 UNK        -0.2568 
     17 C17        21.5817  -27.6687  -46.1099 C.3       10 UNK        -0.0983 
     18 CA         21.6644  -26.1314  -46.2979 C.3       3 UNK         0.0876 
     19 N          20.3458  -25.4892  -46.3444 N.am      3 UNK        -0.4424 
     20 C          20.1201  -24.2364  -46.7697 C.2       2 UNK         0.4918 
     21 O          21.0003  -23.5005  -47.2169 O.2       2 UNK        -0.4875 
     22 CA         18.6745  -23.7055  -46.7054 C.3       2 UNK         0.0481 
     23 CB         18.0518  -23.6844  -48.1109 C.3       2 UNK        -0.1831 
     24 N          17.8142  -24.4873  -45.8155 N.am      2 UNK        -0.4498 
     25 C          17.8142  -24.4039  -44.4766 C.2       1 UNK         0.5027 
     26 O          18.4672  -23.5651  -43.8509 O.2       1 UNK        -0.4969 
     27 C          22.5351  -25.5071  -45.1917 C.2       3 UNK         0.5005 
     28 O          23.7209  -25.2590  -45.4122 O.2       3 UNK        -0.5279 
     29 N          21.9133  -25.2738  -44.0249 N.am      4 UNK        -0.4463 
     30 CA         22.4562  -24.6675  -42.8025 C.3       4 UNK         0.0283 
     31 CB         22.9317  -23.2234  -43.0643 C.3       4 UNK        -0.1875 
     32 C          23.5288  -25.5160  -42.0900 C.2       4 UNK         0.4949 
     33 O          24.1594  -25.0242  -41.1537 O.2       4 UNK        -0.5039 
     34 N          23.7092  -26.7734  -42.5191 N.am      5 UNK        -0.4663 
     35 CA         24.6591  -27.7244  -41.9394 C.3       5 UNK         0.0242 
     36 CB         24.8660  -28.8989  -42.9110 C.3       5 UNK        -0.1982 
     37 C          24.2056  -28.2361  -40.5652 C.2       5 UNK         0.5017 
     38 O          25.0349  -28.3588  -39.6632 O.2       5 UNK        -0.5012 
     39 N          22.9006  -28.5305  -40.4471 N.am      6 UNK        -0.4439 
     40 CA         22.1703  -29.0653  -39.2873 C.3       6 UNK         0.0297 
     41 CB         22.2014  -28.0869  -38.0975 C.3       6 UNK        -0.2006 
     42 C          22.6074  -30.4804  -38.8681 C.2       6 UNK         0.4892 
     43 O          21.7786  -31.3893  -38.8622 O.2       6 UNK        -0.5089 
     44 N          23.9034  -30.6538  -38.5786 N.am      7 UNK        -0.4243 
     45 CA         24.5563  -31.9070  -38.1823 C.3       7 UNK         0.0196 
     46 CB         25.9987  -31.5965  -37.7501 C.3       7 UNK        -0.2007 
     47 C          24.5403  -33.0052  -39.2629 C.2       7 UNK         0.5020 
     48 O          24.8141  -34.1633  -38.9481 O.2       7 UNK        -0.5147 
     49 N          24.2060  -32.6365  -40.5077 N.am      8 UNK        -0.4734 
     50 CA         23.9253  -33.5579  -41.6113 C.3       8 UNK         0.0238 
     51 CB         23.7956  -32.7526  -42.9153 C.3       8 UNK        -0.1912 
     52 C          22.6624  -34.4110  -41.3791 C.2       8 UNK         0.5038 
     53 O          22.5789  -35.5127  -41.9235 O.2       8 UNK        -0.5046 
     54 N          21.7184  -33.8950  -40.5816 N.am      9 UNK        -0.4200 
     55 CA         20.5108  -34.5977  -40.1394 C.3       9 UNK         0.0839 
     56 C          20.7605  -35.2914  -38.7763 C.2       9 UNK         0.5513 
     57 N          20.2312  -36.4923  -38.5873 N.am      9 UNK        -0.7519 
     58 O          21.3905  -34.7399  -37.8765 O.2       9 UNK        -0.4960 
     59 C59        19.3041  -33.6305  -40.0573 C.3       10 UNK        -0.0876 
     60 S60        18.7585  -33.1002  -41.7134 S.3       10 UNK        -0.2414 
     61 C61        19.3765  -31.3914  -41.7975 C.3       10 UNK         0.0169 
     62 H62        20.3483  -26.6699  -40.9804 H         1 UNK         0.0903 
     63 H63        18.7026  -26.9434  -40.4027 H         1 UNK         0.0903 
     64 H64        19.5407  -28.2095  -41.3006 H         1 UNK         0.0903 
     65 H65        17.2022  -25.8545  -41.6511 H         1 UNK         0.3096 
     66 H66        16.1178  -24.8728  -43.3004 H         1 UNK         0.1121 
     67 H67        15.7358  -26.1400  -45.3844 H         1 UNK         0.0849 
     68 H68        17.1878  -27.0823  -45.1210 H         1 UNK         0.0849 
     69 H69        15.0786  -30.1020  -44.2536 H         1 UNK         0.0865 
     70 H70        15.4842  -29.1662  -45.6671 H         1 UNK         0.0865 
     71 H71        16.9446  -30.3500  -42.4082 H         1 UNK         0.1346 
     72 H72        20.8273  -31.0419  -44.0903 H         1 UNK         0.1412 
     73 H73        17.7273  -29.3136  -46.4954 H         1 UNK         0.1426 
     74 H74        19.9170  -30.8036  -47.3803 H         1 UNK         0.0716 
     75 H75        21.3051  -30.5336  -46.3580 H         1 UNK         0.0716 
     76 H76        21.1940  -27.9225  -45.1226 H         1 UNK         0.0695 
     77 H77        22.5782  -28.1109  -46.1676 H         1 UNK         0.0695 
     78 H78        22.1609  -25.9365  -47.2513 H         1 UNK         0.0983 
     79 H79        19.5812  -26.0282  -45.9641 H         1 UNK         0.3095 
     80 H80        18.7166  -22.6778  -46.3383 H         1 UNK         0.0454 
     81 H81        18.6491  -23.0779  -48.7931 H         1 UNK         0.0851 
     82 H82        17.9850  -24.6849  -48.5400 H         1 UNK         0.0851 
     83 H83        17.0493  -23.2564  -48.0955 H         1 UNK         0.0851 
     84 H84        17.2369  -25.1882  -46.2567 H         1 UNK         0.2976 
     85 H85        20.9529  -25.6081  -43.9480 H         1 UNK         0.3116 
     86 H86        21.6162  -24.6109  -42.1089 H         1 UNK         0.0646 
     87 H87        23.1847  -22.7185  -42.1313 H         1 UNK         0.0847 
     88 H88        22.1547  -22.6327  -43.5495 H         1 UNK         0.0847 
     89 H89        23.8194  -23.1961  -43.6968 H         1 UNK         0.0847 
     90 H90        23.1658  -27.0831  -43.3106 H         1 UNK         0.3040 
     91 H91        25.6170  -27.2163  -41.8047 H         1 UNK         0.1015 
     92 H92        25.2663  -28.5554  -43.8652 H         1 UNK         0.0786 
     93 H93        23.9369  -29.4338  -43.1119 H         1 UNK         0.0786 
     94 H94        25.5772  -29.6202  -42.5054 H         1 UNK         0.0786 
     95 H95        22.3395  -28.3947  -41.2754 H         1 UNK         0.3172 
     96 H96        21.1303  -29.1475  -39.6065 H         1 UNK         0.0595 
     97 H97        21.8003  -27.1128  -38.3775 H         1 UNK         0.0839 
     98 H98        23.2107  -27.9335  -37.7147 H         1 UNK         0.0839 
     99 H99        21.5956  -28.4608  -37.2710 H         1 UNK         0.0839 
    100 H100       24.5059  -29.8417  -38.6955 H         1 UNK         0.2998 
    101 H101       24.0135  -32.3023  -37.3210 H         1 UNK         0.0822 
    102 H102       26.0209  -30.8888  -36.9211 H         1 UNK         0.0787 
    103 H103       26.5121  -32.4995  -37.4166 H         1 UNK         0.0787 
    104 H104       26.5810  -31.1725  -38.5694 H         1 UNK         0.0787 
    105 H105       24.0232  -31.6580  -40.6712 H         1 UNK         0.3055 
    106 H106       24.7706  -34.2434  -41.7060 H         1 UNK         0.1106 
    107 H107       22.9731  -32.0378  -42.8697 H         1 UNK         0.0828 
    108 H108       24.7102  -32.2019  -43.1357 H         1 UNK         0.0828 
    109 H109       23.6056  -33.4125  -43.7630 H         1 UNK         0.0828 
    110 H110       21.8983  -33.0155  -40.1102 H         1 UNK         0.2931 
    111 H111       20.2638  -35.3740  -40.8672 H         1 UNK         0.0412 
    112 H112       20.3683  -36.9550  -37.7018 H         1 UNK         0.3472 
    113 H113       19.7030  -36.9498  -39.3147 H         1 UNK         0.3472 
    114 H114       19.5328  -32.7637  -39.4347 H         1 UNK         0.0970 
    115 H115       18.4522  -34.1232  -39.5844 H         1 UNK         0.0970 
    116 H116       20.4640  -31.3903  -41.7080 H         1 UNK         0.0612 
    117 H117       18.9897  -30.8181  -40.9536 H         1 UNK         0.0612 
@<TRIPOS>BOND
     1    1    2 1    
     2    1   62 1    
     3    1   63 1    
     4    1   64 1    
     5    2    3 2    
     6    2    4 am   BACKBONE|DICT|INTERRES
     7    4    5 1    
     8    4   65 1    
     9    5    6 1    
    10    5   25 1    
    11    5   66 1    
    12    6    7 1    
    13    6   67 1    
    14    6   68 1    
    15    7    8 1    
    16    8    9 1    
    17    8   69 1    
    18    8   70 1    
    19    9   10 ar   
    20    9   14 ar   
    21   10   11 ar   
    22   10   71 1    
    23   11   12 ar   
    24   11   61 1    
    25   12   13 ar   
    26   12   72 1    
    27   13   14 ar   
    28   13   15 1    
    29   14   73 1    
    30   15   16 1    
    31   15   74 1    
    32   15   75 1    
    33   16   17 1    
    34   17   18 1    
    35   17   76 1    
    36   17   77 1    
    37   18   19 1    
    38   18   27 1    
    39   18   78 1    
    40   19   20 am   BACKBONE|DICT|INTERRES
    41   19   79 1    
    42   20   21 2    
    43   20   22 1    
    44   22   23 1    
    45   22   24 1    
    46   22   80 1    
    47   23   81 1    
    48   23   82 1    
    49   23   83 1    
    50   24   25 am   BACKBONE|DICT|INTERRES
    51   24   84 1    
    52   25   26 2    
    53   27   28 2    
    54   27   29 am   BACKBONE|DICT|INTERRES
    55   29   30 1    
    56   29   85 1    
    57   30   31 1    
    58   30   32 1    
    59   30   86 1    
    60   31   87 1    
    61   31   88 1    
    62   31   89 1    
    63   32   33 2    
    64   32   34 am   BACKBONE|DICT|INTERRES
    65   34   35 1    
    66   34   90 1    
    67   35   36 1    
    68   35   37 1    
    69   35   91 1    
    70   36   92 1    
    71   36   93 1    
    72   36   94 1    
    73   37   38 2    
    74   37   39 am   BACKBONE|DICT|INTERRES
    75   39   40 1    
    76   39   95 1    
    77   40   41 1    
    78   40   42 1    
    79   40   96 1    
    80   41   97 1    
    81   41   98 1    
    82   41   99 1    
    83   42   43 2    
    84   42   44 am   BACKBONE|DICT|INTERRES
    85   44   45 1    
    86   44  100 1    
    87   45   46 1    
    88   45   47 1    
    89   45  101 1    
    90   46  102 1    
    91   46  103 1    
    92   46  104 1    
    93   47   48 2    
    94   47   49 am   BACKBONE|DICT|INTERRES
    95   49   50 1    
    96   49  105 1    
    97   50   51 1    
    98   50   52 1    
    99   50  106 1    
   100   51  107 1    
   101   51  108 1    
   102   51  109 1    
   103   52   53 2    
   104   52   54 am   BACKBONE|DICT|INTERRES
   105   54   55 1    
   106   54  110 1    
   107   55   56 1    
   108   55   59 1    
   109   55  111 1    
   110   56   57 am   BACKBONE|DICT|INTERRES
   111   56   58 2    
   112   57  112 1    
   113   57  113 1    
   114   59   60 1    
   115   59  114 1    
   116   59  115 1    
   117   60   61 1    
   118   61  116 1    
   119   61  117 1    
@<TRIPOS>SUBSTRUCTURE
     1 UNK         1 GROUP             0       ****    0 ROOT    
