@<TRIPOS>MOLECULE
3R8
117   119    1
SMALL
USER_CHARGES


@<TRIPOS>ATOM
      1 CA         24.8692  -31.4305  -43.8038 C.3       0 UNK        -0.2013 
      2 C          23.4625  -31.0975  -44.2780 C.2       0 UNK         0.4866 
      3 O          22.9110  -31.8346  -45.0922 O.2       0 UNK        -0.5176 
      4 N          22.8867  -30.0025  -43.7668 N.am      1 UNK        -0.4884 
      5 CA         21.5399  -29.5151  -44.0669 C.3       1 UNK         0.0853 
      6 C6         21.4992  -28.5884  -45.3116 C.3       10 UNK        -0.0849 
      7 S7         21.2948  -29.5339  -46.8568 S.3       10 UNK        -0.2776 
      8 C8         19.5962  -29.1009  -47.3607 C.3       10 UNK         0.0316 
      9 C9         18.5478  -29.3418  -46.2777 C.ar      10 UNK        -0.0863 
     10 C10        18.4731  -30.5642  -45.6002 C.ar      10 UNK        -0.1009 
     11 C11        17.5021  -30.7782  -44.6165 C.ar      10 UNK        -0.0712 
     12 C12        16.5682  -29.7692  -44.3483 C.ar      10 UNK        -0.0894 
     13 C13        16.6011  -28.5607  -45.0537 C.ar      10 UNK        -0.0745 
     14 C14        17.6096  -28.3449  -45.9957 C.ar      10 UNK        -0.0972 
     15 C15        15.4886  -27.5316  -44.8847 C.3       10 UNK         0.0209 
     16 S16        15.5366  -26.6540  -43.2940 S.3       10 UNK        -0.2568 
     17 C17        16.9377  -25.5004  -43.5055 C.3       10 UNK        -0.0983 
     18 CA         17.8551  -25.5423  -42.2602 C.3       3 UNK         0.0876 
     19 N          18.4561  -26.8664  -42.0956 N.am      3 UNK        -0.4424 
     20 C          18.8527  -27.3942  -40.9347 C.2       2 UNK         0.4918 
     21 O          18.8358  -26.7850  -39.8641 O.2       2 UNK        -0.4875 
     22 CA         19.3477  -28.8432  -40.9627 C.3       2 UNK         0.0481 
     23 CB         18.2155  -29.7871  -40.5303 C.3       2 UNK        -0.1831 
     24 N          19.9108  -29.2833  -42.2452 N.am      2 UNK        -0.4498 
     25 C          21.0353  -28.8085  -42.8008 C.2       1 UNK         0.5027 
     26 O          21.6914  -27.8686  -42.3402 O.2       1 UNK        -0.4969 
     27 C          18.9223  -24.4259  -42.2211 C.2       3 UNK         0.5005 
     28 O          19.0988  -23.6960  -43.1979 O.2       3 UNK        -0.5279 
     29 N          19.6102  -24.3296  -41.0720 N.am      4 UNK        -0.4463 
     30 CA         20.6165  -23.3343  -40.6805 C.3       4 UNK         0.0283 
     31 CB         19.9723  -21.9364  -40.5601 C.3       4 UNK        -0.1875 
     32 C          21.8848  -23.3253  -41.5573 C.2       4 UNK         0.4949 
     33 O          22.5430  -22.2880  -41.6539 O.2       4 UNK        -0.5039 
     34 N          22.2122  -24.4682  -42.1743 N.am      5 UNK        -0.4663 
     35 CA         23.3405  -24.6085  -43.0938 C.3       5 UNK         0.0242 
     36 CB         22.8516  -25.2354  -44.4083 C.3       5 UNK        -0.1982 
     37 C          24.4920  -25.4044  -42.4657 C.2       5 UNK         0.5017 
     38 O          25.5807  -24.8488  -42.3124 O.2       5 UNK        -0.5012 
     39 N          24.2536  -26.6814  -42.1303 N.am      6 UNK        -0.4439 
     40 CA         25.3041  -27.6090  -41.6816 C.3       6 UNK         0.0297 
     41 CB         26.0890  -28.1361  -42.9019 C.3       6 UNK        -0.2006 
     42 C          24.8128  -28.7421  -40.7595 C.2       6 UNK         0.4892 
     43 O          25.5765  -29.6732  -40.5019 O.2       6 UNK        -0.5089 
     44 N          23.5666  -28.6571  -40.2734 N.am      7 UNK        -0.4243 
     45 CA         22.8929  -29.5456  -39.3140 C.3       7 UNK         0.0196 
     46 CB         23.6420  -29.5930  -37.9661 C.3       7 UNK        -0.2007 
     47 C          22.5862  -30.9691  -39.8210 C.2       7 UNK         0.5020 
     48 O          21.4345  -31.3989  -39.7753 O.2       7 UNK        -0.5147 
     49 N          23.6251  -31.7000  -40.2306 N.am      8 UNK        -0.4734 
     50 CA         23.6399  -33.1617  -40.3273 C.3       8 UNK         0.0238 
     51 CB         25.0814  -33.6380  -40.0584 C.3       8 UNK        -0.1912 
     52 C          23.0622  -33.7457  -41.6335 C.2       8 UNK         0.5038 
     53 O          23.7444  -34.5435  -42.2807 O.2       8 UNK        -0.5046 
     54 N          21.8227  -33.3851  -41.9953 N.am      9 UNK        -0.4200 
     55 CA         21.0483  -34.1212  -43.0152 C.3       9 UNK         0.0839 
     56 C          20.4155  -35.4233  -42.4472 C.2       9 UNK         0.5513 
     57 N          20.0305  -36.3525  -43.3121 N.am      9 UNK        -0.7519 
     58 O          20.2573  -35.5984  -41.2401 O.2       9 UNK        -0.4960 
     59 C59        20.0213  -33.2419  -43.7781 C.3       10 UNK        -0.0876 
     60 S60        18.7899  -32.3982  -42.7312 S.3       10 UNK        -0.2414 
     61 C61        17.4130  -32.1207  -43.8961 C.3       10 UNK         0.0169 
     62 H62        25.6067  -31.0098  -44.4865 H         1 UNK         0.0903 
     63 H63        25.0613  -31.0467  -42.8035 H         1 UNK         0.0903 
     64 H64        25.0131  -32.5104  -43.7764 H         1 UNK         0.0903 
     65 H65        23.3765  -29.4542  -43.0762 H         1 UNK         0.3096 
     66 H66        20.8863  -30.3665  -44.2397 H         1 UNK         0.1121 
     67 H67        22.4243  -28.0173  -45.3938 H         1 UNK         0.0849 
     68 H68        20.6952  -27.8527  -45.2439 H         1 UNK         0.0849 
     69 H69        19.5906  -28.0570  -47.6785 H         1 UNK         0.0865 
     70 H70        19.3312  -29.6885  -48.2407 H         1 UNK         0.0865 
     71 H71        19.1725  -31.3507  -45.8454 H         1 UNK         0.1346 
     72 H72        15.7850  -29.9377  -43.6217 H         1 UNK         0.1412 
     73 H73        17.6343  -27.4140  -46.5462 H         1 UNK         0.1426 
     74 H74        14.5281  -28.0426  -44.9642 H         1 UNK         0.0716 
     75 H75        15.5043  -26.8010  -45.6950 H         1 UNK         0.0716 
     76 H76        17.4987  -25.7410  -44.4101 H         1 UNK         0.0695 
     77 H77        16.5257  -24.5002  -43.6512 H         1 UNK         0.0695 
     78 H78        17.2132  -25.3551  -41.3954 H         1 UNK         0.0983 
     79 H79        18.4980  -27.4417  -42.9234 H         1 UNK         0.3095 
     80 H80        20.1318  -28.9140  -40.2153 H         1 UNK         0.0454 
     81 H81        17.7341  -29.4350  -39.6168 H         1 UNK         0.0851 
     82 H82        17.4420  -29.8719  -41.2944 H         1 UNK         0.0851 
     83 H83        18.5975  -30.7849  -40.3161 H         1 UNK         0.0851 
     84 H84        19.4428  -30.0686  -42.6800 H         1 UNK         0.2976 
     85 H85        19.4013  -25.0370  -40.3704 H         1 UNK         0.3116 
     86 H86        20.9504  -23.6258  -39.6837 H         1 UNK         0.0646 
     87 H87        20.6687  -21.2173  -40.1269 H         1 UNK         0.0847 
     88 H88        19.0930  -21.9575  -39.9165 H         1 UNK         0.0847 
     89 H89        19.6678  -21.5478  -41.5324 H         1 UNK         0.0847 
     90 H90        21.6330  -25.2830  -42.0260 H         1 UNK         0.3040 
     91 H91        23.7490  -23.6279  -43.3494 H         1 UNK         0.1015 
     92 H92        22.2501  -24.5252  -44.9761 H         1 UNK         0.0786 
     93 H93        22.2313  -26.1083  -44.2250 H         1 UNK         0.0786 
     94 H94        23.6846  -25.5382  -45.0447 H         1 UNK         0.0786 
     95 H95        23.3205  -27.0604  -42.2795 H         1 UNK         0.3172 
     96 H96        26.0066  -27.0525  -41.0576 H         1 UNK         0.0595 
     97 H97        26.6401  -27.3318  -43.3893 H         1 UNK         0.0839 
     98 H98        25.4303  -28.5766  -43.6485 H         1 UNK         0.0839 
     99 H99        26.8243  -28.8907  -42.6194 H         1 UNK         0.0839 
    100 H100       22.9977  -27.8825  -40.5886 H         1 UNK         0.2998 
    101 H101       21.9374  -29.0726  -39.0988 H         1 UNK         0.0822 
    102 H102       23.7760  -28.5932  -37.5530 H         1 UNK         0.0787 
    103 H103       23.0819  -30.1733  -37.2315 H         1 UNK         0.0787 
    104 H104       24.6269  -30.0524  -38.0541 H         1 UNK         0.0787 
    105 H105       24.5226  -31.2235  -40.2840 H         1 UNK         0.3055 
    106 H106       23.0168  -33.5618  -39.5237 H         1 UNK         0.1106 
    107 H107       25.7717  -33.2818  -40.8242 H         1 UNK         0.0828 
    108 H108       25.4426  -33.2858  -39.0920 H         1 UNK         0.0828 
    109 H109       25.1418  -34.7271  -40.0430 H         1 UNK         0.0828 
    110 H110       21.3071  -32.7514  -41.3948 H         1 UNK         0.2931 
    111 H111       21.7560  -34.4514  -43.7787 H         1 UNK         0.0412 
    112 H112       19.6123  -37.2013  -42.9637 H         1 UNK         0.3472 
    113 H113       20.1593  -36.2304  -44.3046 H         1 UNK         0.3472 
    114 H114       19.4998  -33.8464  -44.5219 H         1 UNK         0.0970 
    115 H115       20.5571  -32.4976  -44.3581 H         1 UNK         0.0970 
    116 H116       17.3651  -32.9286  -44.6272 H         1 UNK         0.0612 
    117 H117       16.4822  -32.1783  -43.3300 H         1 UNK         0.0612 
@<TRIPOS>BOND
     1    1    2 1    
     2    1   62 1    
     3    1   63 1    
     4    1   64 1    
     5    2    3 2    
     6    2    4 am   BACKBONE|DICT|INTERRES
     7    4    5 1    
     8    4   65 1    
     9    5    6 1    
    10    5   25 1    
    11    5   66 1    
    12    6    7 1    
    13    6   67 1    
    14    6   68 1    
    15    7    8 1    
    16    8    9 1    
    17    8   69 1    
    18    8   70 1    
    19    9   10 ar   
    20    9   14 ar   
    21   10   11 ar   
    22   10   71 1    
    23   11   12 ar   
    24   11   61 1    
    25   12   13 ar   
    26   12   72 1    
    27   13   14 ar   
    28   13   15 1    
    29   14   73 1    
    30   15   16 1    
    31   15   74 1    
    32   15   75 1    
    33   16   17 1    
    34   17   18 1    
    35   17   76 1    
    36   17   77 1    
    37   18   19 1    
    38   18   27 1    
    39   18   78 1    
    40   19   20 am   BACKBONE|DICT|INTERRES
    41   19   79 1    
    42   20   21 2    
    43   20   22 1    
    44   22   23 1    
    45   22   24 1    
    46   22   80 1    
    47   23   81 1    
    48   23   82 1    
    49   23   83 1    
    50   24   25 am   BACKBONE|DICT|INTERRES
    51   24   84 1    
    52   25   26 2    
    53   27   28 2    
    54   27   29 am   BACKBONE|DICT|INTERRES
    55   29   30 1    
    56   29   85 1    
    57   30   31 1    
    58   30   32 1    
    59   30   86 1    
    60   31   87 1    
    61   31   88 1    
    62   31   89 1    
    63   32   33 2    
    64   32   34 am   BACKBONE|DICT|INTERRES
    65   34   35 1    
    66   34   90 1    
    67   35   36 1    
    68   35   37 1    
    69   35   91 1    
    70   36   92 1    
    71   36   93 1    
    72   36   94 1    
    73   37   38 2    
    74   37   39 am   BACKBONE|DICT|INTERRES
    75   39   40 1    
    76   39   95 1    
    77   40   41 1    
    78   40   42 1    
    79   40   96 1    
    80   41   97 1    
    81   41   98 1    
    82   41   99 1    
    83   42   43 2    
    84   42   44 am   BACKBONE|DICT|INTERRES
    85   44   45 1    
    86   44  100 1    
    87   45   46 1    
    88   45   47 1    
    89   45  101 1    
    90   46  102 1    
    91   46  103 1    
    92   46  104 1    
    93   47   48 2    
    94   47   49 am   BACKBONE|DICT|INTERRES
    95   49   50 1    
    96   49  105 1    
    97   50   51 1    
    98   50   52 1    
    99   50  106 1    
   100   51  107 1    
   101   51  108 1    
   102   51  109 1    
   103   52   53 2    
   104   52   54 am   BACKBONE|DICT|INTERRES
   105   54   55 1    
   106   54  110 1    
   107   55   56 1    
   108   55   59 1    
   109   55  111 1    
   110   56   57 am   BACKBONE|DICT|INTERRES
   111   56   58 2    
   112   57  112 1    
   113   57  113 1    
   114   59   60 1    
   115   59  114 1    
   116   59  115 1    
   117   60   61 1    
   118   61  116 1    
   119   61  117 1    
@<TRIPOS>SUBSTRUCTURE
     1 UNK         1 GROUP             0       ****    0 ROOT    
