@<TRIPOS>MOLECULE
3R8
117   119    1
SMALL
USER_CHARGES


@<TRIPOS>ATOM
      1 CA         14.2091  -22.9237  -43.7609 C.3       0 UNK        -0.2013 
      2 C          15.1731  -24.0242  -44.1764 C.2       0 UNK         0.4866 
      3 O          14.9485  -24.6885  -45.1893 O.2       0 UNK        -0.5176 
      4 N          16.2534  -24.2220  -43.4106 N.am      1 UNK        -0.4884 
      5 CA         17.2855  -25.2412  -43.6383 C.3       1 UNK         0.0853 
      6 C6         18.0243  -25.6180  -42.3292 C.3       10 UNK        -0.0849 
      7 S7         16.9256  -26.2626  -41.0172 S.3       10 UNK        -0.2776 
      8 C8         16.3088  -27.8397  -41.7116 C.3       10 UNK         0.0316 
      9 C9         17.4013  -28.7174  -42.3144 C.ar      10 UNK        -0.0863 
     10 C10        18.5556  -29.0211  -41.5843 C.ar      10 UNK        -0.1009 
     11 C11        19.5835  -29.7752  -42.1565 C.ar      10 UNK        -0.0712 
     12 C12        19.4320  -30.2610  -43.4587 C.ar      10 UNK        -0.0894 
     13 C13        18.2691  -29.9950  -44.1893 C.ar      10 UNK        -0.0745 
     14 C14        17.2590  -29.2196  -43.6127 C.ar      10 UNK        -0.0972 
     15 C15        18.1069  -30.5468  -45.6018 C.3       10 UNK         0.0209 
     16 S16        18.3484  -29.2787  -46.8904 S.3       10 UNK        -0.2568 
     17 C17        20.0895  -28.8108  -46.6069 C.3       10 UNK        -0.0983 
     18 CA         20.5293  -27.4882  -47.2891 C.3       3 UNK         0.0876 
     19 N          19.5292  -26.4325  -47.1138 N.am      3 UNK        -0.4424 
     20 C          19.5586  -25.2014  -47.6385 C.2       2 UNK         0.4918 
     21 O          20.4192  -24.8130  -48.4285 O.2       2 UNK        -0.4875 
     22 CA         18.4485  -24.2287  -47.1903 C.3       2 UNK         0.0481 
     23 CB         17.4297  -24.0206  -48.3220 C.3       2 UNK        -0.1831 
     24 N          17.7307  -24.6326  -45.9729 N.am      2 UNK        -0.4498 
     25 C          18.2635  -24.8122  -44.7554 C.2       1 UNK         0.5027 
     26 O          19.4640  -24.6648  -44.5137 O.2       1 UNK        -0.4969 
     27 C          21.9185  -27.1034  -46.7313 C.2       3 UNK         0.5005 
     28 O          22.9211  -27.6428  -47.2033 O.2       3 UNK        -0.5279 
     29 N          21.9355  -26.2307  -45.7081 N.am      4 UNK        -0.4463 
     30 CA         23.0452  -25.9584  -44.7870 C.3       4 UNK         0.0283 
     31 CB         24.2961  -25.4367  -45.5307 C.3       4 UNK        -0.1875 
     32 C          23.3249  -27.1707  -43.8710 C.2       4 UNK         0.4949 
     33 O          22.4770  -28.0584  -43.7596 O.2       4 UNK        -0.5039 
     34 N          24.4895  -27.1654  -43.2051 N.am      5 UNK        -0.4663 
     35 CA         24.9315  -28.1227  -42.1779 C.3       5 UNK         0.0242 
     36 CB         25.0347  -29.5545  -42.7545 C.3       5 UNK        -0.1982 
     37 C          24.0887  -28.0455  -40.8849 C.2       5 UNK         0.5017 
     38 O          23.3097  -27.1056  -40.7071 O.2       5 UNK        -0.5012 
     39 N          24.2975  -29.0047  -39.9768 N.am      6 UNK        -0.4439 
     40 CA         23.6666  -29.0963  -38.6619 C.3       6 UNK         0.0297 
     41 CB         24.2691  -28.0410  -37.7099 C.3       6 UNK        -0.2006 
     42 C          23.8736  -30.5133  -38.1115 C.2       6 UNK         0.4892 
     43 O          24.6174  -31.2975  -38.7104 O.2       6 UNK        -0.5089 
     44 N          23.2315  -30.7976  -36.9687 N.am      7 UNK        -0.4243 
     45 CA         23.2992  -32.0420  -36.1936 C.3       7 UNK         0.0196 
     46 CB         24.7007  -32.2191  -35.5639 C.3       7 UNK        -0.2007 
     47 C          22.8272  -33.2527  -37.0175 C.2       7 UNK         0.5020 
     48 O          21.6210  -33.4246  -37.1929 O.2       7 UNK        -0.5147 
     49 N          23.7748  -34.0580  -37.5145 N.am      8 UNK        -0.4734 
     50 CA         23.5212  -35.1896  -38.4101 C.3       8 UNK         0.0238 
     51 CB         24.7673  -36.0899  -38.4462 C.3       8 UNK        -0.1912 
     52 C          23.1226  -34.7636  -39.8358 C.2       8 UNK         0.5038 
     53 O          22.5319  -35.5740  -40.5509 O.2       8 UNK        -0.5046 
     54 N          23.4536  -33.5219  -40.2218 N.am      9 UNK        -0.4200 
     55 CA         23.1537  -32.9033  -41.5246 C.3       9 UNK         0.0839 
     56 C          23.8844  -33.5544  -42.7388 C.2       9 UNK         0.5513 
     57 N          24.9670  -34.2955  -42.5347 N.am      9 UNK        -0.7519 
     58 O          23.4900  -33.3612  -43.8858 O.2       9 UNK        -0.4960 
     59 C59        21.6286  -32.7027  -41.7632 C.3       10 UNK        -0.0876 
     60 S60        20.8709  -31.6120  -40.5092 S.3       10 UNK        -0.2414 
     61 C61        20.8711  -30.0145  -41.3793 C.3       10 UNK         0.0169 
     62 H62        13.2172  -23.3404  -43.5881 H         1 UNK         0.0903 
     63 H63        14.5304  -22.4233  -42.8476 H         1 UNK         0.0903 
     64 H64        14.1321  -22.1754  -44.5493 H         1 UNK         0.0903 
     65 H65        16.3945  -23.6410  -42.5959 H         1 UNK         0.3096 
     66 H66        16.7966  -26.1463  -44.0047 H         1 UNK         0.1121 
     67 H67        18.8032  -26.3573  -42.5248 H         1 UNK         0.0849 
     68 H68        18.5442  -24.7467  -41.9264 H         1 UNK         0.0849 
     69 H69        15.8068  -28.3983  -40.9205 H         1 UNK         0.0865 
     70 H70        15.5420  -27.6129  -42.4540 H         1 UNK         0.0865 
     71 H71        18.6695  -28.6362  -40.5800 H         1 UNK         0.1346 
     72 H72        20.2278  -30.8302  -43.9164 H         1 UNK         0.1412 
     73 H73        16.3665  -29.0022  -44.1840 H         1 UNK         0.1426 
     74 H74        18.8039  -31.3681  -45.7761 H         1 UNK         0.0716 
     75 H75        17.1074  -30.9704  -45.7096 H         1 UNK         0.0716 
     76 H76        20.2386  -28.7274  -45.5296 H         1 UNK         0.0695 
     77 H77        20.7239  -29.6359  -46.9362 H         1 UNK         0.0695 
     78 H78        20.6365  -27.6630  -48.3616 H         1 UNK         0.0983 
     79 H79        18.7528  -26.6721  -46.5158 H         1 UNK         0.3095 
     80 H80        18.9277  -23.2703  -46.9818 H         1 UNK         0.0454 
     81 H81        16.8978  -24.9427  -48.5597 H         1 UNK         0.0851 
     82 H82        16.6900  -23.2648  -48.0574 H         1 UNK         0.0851 
     83 H83        17.9215  -23.6831  -49.2354 H         1 UNK         0.0851 
     84 H84        16.7228  -24.7416  -46.0496 H         1 UNK         0.2976 
     85 H85        21.0421  -25.8593  -45.4041 H         1 UNK         0.3116 
     86 H86        22.6909  -25.1595  -44.1339 H         1 UNK         0.0646 
     87 H87        25.0068  -24.9810  -44.8412 H         1 UNK         0.0847 
     88 H88        24.0310  -24.6725  -46.2615 H         1 UNK         0.0847 
     89 H89        24.8200  -26.2343  -46.0585 H         1 UNK         0.0847 
     90 H90        25.0998  -26.3718  -43.3410 H         1 UNK         0.3040 
     91 H91        25.9378  -27.8090  -41.8952 H         1 UNK         0.1015 
     92 H92        25.5865  -29.5604  -43.6946 H         1 UNK         0.0786 
     93 H93        24.0540  -29.9899  -42.9465 H         1 UNK         0.0786 
     94 H94        25.5630  -30.2248  -42.0761 H         1 UNK         0.0786 
     95 H95        24.9235  -29.7755  -40.1780 H         1 UNK         0.3172 
     96 H96        22.5935  -28.9276  -38.7696 H         1 UNK         0.0595 
     97 H97        23.8116  -28.0855  -36.7211 H         1 UNK         0.0839 
     98 H98        24.1141  -27.0282  -38.0817 H         1 UNK         0.0839 
     99 H99        25.3422  -28.1865  -37.5790 H         1 UNK         0.0839 
    100 H100       22.6166  -30.0917  -36.5880 H         1 UNK         0.2998 
    101 H101       22.5861  -31.9371  -35.3741 H         1 UNK         0.0822 
    102 H102       24.9264  -31.3974  -34.8841 H         1 UNK         0.0787 
    103 H103       24.7557  -33.1392  -34.9802 H         1 UNK         0.0787 
    104 H104       25.4958  -32.2511  -36.3094 H         1 UNK         0.0787 
    105 H105       24.7405  -33.8212  -37.3357 H         1 UNK         0.3055 
    106 H106       22.6893  -35.7695  -38.0036 H         1 UNK         0.1106 
    107 H107       24.6034  -36.9578  -39.0868 H         1 UNK         0.0828 
    108 H108       25.6390  -35.5603  -38.8323 H         1 UNK         0.0828 
    109 H109       25.0143  -36.4659  -37.4532 H         1 UNK         0.0828 
    110 H110       23.9356  -32.9200  -39.5610 H         1 UNK         0.2931 
    111 H111       23.5927  -31.9077  -41.4612 H         1 UNK         0.0412 
    112 H112       25.4415  -34.7049  -43.3242 H         1 UNK         0.3472 
    113 H113       25.3110  -34.4518  -41.6010 H         1 UNK         0.3472 
    114 H114       21.1069  -33.6604  -41.7537 H         1 UNK         0.0970 
    115 H115       21.4456  -32.2820  -42.7507 H         1 UNK         0.0970 
    116 H116       21.7322  -29.9555  -42.0451 H         1 UNK         0.0612 
    117 H117       21.0100  -29.2198  -40.6453 H         1 UNK         0.0612 
@<TRIPOS>BOND
     1    1    2 1    
     2    1   62 1    
     3    1   63 1    
     4    1   64 1    
     5    2    3 2    
     6    2    4 am   BACKBONE|DICT|INTERRES
     7    4    5 1    
     8    4   65 1    
     9    5    6 1    
    10    5   25 1    
    11    5   66 1    
    12    6    7 1    
    13    6   67 1    
    14    6   68 1    
    15    7    8 1    
    16    8    9 1    
    17    8   69 1    
    18    8   70 1    
    19    9   10 ar   
    20    9   14 ar   
    21   10   11 ar   
    22   10   71 1    
    23   11   12 ar   
    24   11   61 1    
    25   12   13 ar   
    26   12   72 1    
    27   13   14 ar   
    28   13   15 1    
    29   14   73 1    
    30   15   16 1    
    31   15   74 1    
    32   15   75 1    
    33   16   17 1    
    34   17   18 1    
    35   17   76 1    
    36   17   77 1    
    37   18   19 1    
    38   18   27 1    
    39   18   78 1    
    40   19   20 am   BACKBONE|DICT|INTERRES
    41   19   79 1    
    42   20   21 2    
    43   20   22 1    
    44   22   23 1    
    45   22   24 1    
    46   22   80 1    
    47   23   81 1    
    48   23   82 1    
    49   23   83 1    
    50   24   25 am   BACKBONE|DICT|INTERRES
    51   24   84 1    
    52   25   26 2    
    53   27   28 2    
    54   27   29 am   BACKBONE|DICT|INTERRES
    55   29   30 1    
    56   29   85 1    
    57   30   31 1    
    58   30   32 1    
    59   30   86 1    
    60   31   87 1    
    61   31   88 1    
    62   31   89 1    
    63   32   33 2    
    64   32   34 am   BACKBONE|DICT|INTERRES
    65   34   35 1    
    66   34   90 1    
    67   35   36 1    
    68   35   37 1    
    69   35   91 1    
    70   36   92 1    
    71   36   93 1    
    72   36   94 1    
    73   37   38 2    
    74   37   39 am   BACKBONE|DICT|INTERRES
    75   39   40 1    
    76   39   95 1    
    77   40   41 1    
    78   40   42 1    
    79   40   96 1    
    80   41   97 1    
    81   41   98 1    
    82   41   99 1    
    83   42   43 2    
    84   42   44 am   BACKBONE|DICT|INTERRES
    85   44   45 1    
    86   44  100 1    
    87   45   46 1    
    88   45   47 1    
    89   45  101 1    
    90   46  102 1    
    91   46  103 1    
    92   46  104 1    
    93   47   48 2    
    94   47   49 am   BACKBONE|DICT|INTERRES
    95   49   50 1    
    96   49  105 1    
    97   50   51 1    
    98   50   52 1    
    99   50  106 1    
   100   51  107 1    
   101   51  108 1    
   102   51  109 1    
   103   52   53 2    
   104   52   54 am   BACKBONE|DICT|INTERRES
   105   54   55 1    
   106   54  110 1    
   107   55   56 1    
   108   55   59 1    
   109   55  111 1    
   110   56   57 am   BACKBONE|DICT|INTERRES
   111   56   58 2    
   112   57  112 1    
   113   57  113 1    
   114   59   60 1    
   115   59  114 1    
   116   59  115 1    
   117   60   61 1    
   118   61  116 1    
   119   61  117 1    
@<TRIPOS>SUBSTRUCTURE
     1 UNK         1 GROUP             0       ****    0 ROOT    
