@<TRIPOS>MOLECULE
3R8
117   119    1
SMALL
USER_CHARGES


@<TRIPOS>ATOM
      1 CA         16.0973  -27.9731  -38.5621 C.3       0 UNK        -0.2013 
      2 C          16.4117  -27.2223  -39.8474 C.2       0 UNK         0.4866 
      3 O          16.8407  -26.0696  -39.7942 O.2       0 UNK        -0.5176 
      4 N          16.1986  -27.8667  -41.0021 N.am      1 UNK        -0.4884 
      5 CA         16.5535  -27.3555  -42.3303 C.3       1 UNK         0.0853 
      6 C6         15.8571  -28.1940  -43.4299 C.3       10 UNK        -0.0849 
      7 S7         16.1593  -27.5870  -45.1276 S.3       10 UNK        -0.2776 
      8 C8         16.3720  -29.1402  -46.0672 C.3       10 UNK         0.0316 
      9 C9         17.4346  -30.0577  -45.4729 C.ar      10 UNK        -0.0863 
     10 C10        17.0999  -31.3538  -45.0665 C.ar      10 UNK        -0.1009 
     11 C11        18.0555  -32.1903  -44.4807 C.ar      10 UNK        -0.0712 
     12 C12        19.3613  -31.7123  -44.3073 C.ar      10 UNK        -0.0894 
     13 C13        19.7123  -30.4244  -44.7174 C.ar      10 UNK        -0.0745 
     14 C14        18.7440  -29.6033  -45.3019 C.ar      10 UNK        -0.0972 
     15 C15        21.1210  -29.9003  -44.4840 C.3       10 UNK         0.0209 
     16 S16        21.8820  -29.3165  -46.0309 S.3       10 UNK        -0.2568 
     17 C17        23.2674  -28.3184  -45.4010 C.3       10 UNK        -0.0983 
     18 CA         22.8966  -26.8145  -45.2736 C.3       3 UNK         0.0876 
     19 N          21.9842  -26.5799  -44.1494 N.am      3 UNK        -0.4424 
     20 C          20.7145  -26.1682  -44.2149 C.2       2 UNK         0.4918 
     21 O          20.0951  -25.9685  -45.2610 O.2       2 UNK        -0.4875 
     22 CA         20.0629  -25.8548  -42.8609 C.3       2 UNK         0.0481 
     23 CB         20.2689  -24.3738  -42.5039 C.3       2 UNK        -0.1831 
     24 N          18.6304  -26.1462  -42.8503 N.am      2 UNK        -0.4498 
     25 C          18.0929  -27.3115  -42.4669 C.2       1 UNK         0.5027 
     26 O          18.7521  -28.3119  -42.1745 O.2       1 UNK        -0.4969 
     27 C          24.1527  -25.9242  -45.1135 C.2       3 UNK         0.5005 
     28 O          25.1985  -26.2323  -45.6886 O.2       3 UNK        -0.5279 
     29 N          24.0459  -24.8472  -44.3159 N.am      4 UNK        -0.4463 
     30 CA         25.0667  -23.8590  -43.9332 C.3       4 UNK         0.0283 
     31 CB         25.6353  -23.1151  -45.1578 C.3       4 UNK        -0.1875 
     32 C          26.1915  -24.4280  -43.0498 C.2       4 UNK         0.4949 
     33 O          26.4442  -23.8902  -41.9721 O.2       4 UNK        -0.5039 
     34 N          26.8322  -25.5094  -43.5063 N.am      5 UNK        -0.4663 
     35 CA         27.8839  -26.2361  -42.7880 C.3       5 UNK         0.0242 
     36 CB         28.7509  -26.9848  -43.8136 C.3       5 UNK        -0.1982 
     37 C          27.3313  -27.2162  -41.7358 C.2       5 UNK         0.5017 
     38 O          28.0954  -27.6887  -40.8934 O.2       5 UNK        -0.5012 
     39 N          26.0306  -27.5151  -41.8088 N.am      6 UNK        -0.4439 
     40 CA         25.2872  -28.4266  -40.9464 C.3       6 UNK         0.0297 
     41 CB         25.5672  -29.8847  -41.3629 C.3       6 UNK        -0.2006 
     42 C          23.7958  -28.0888  -41.0690 C.2       6 UNK         0.4892 
     43 O          23.4241  -27.2500  -41.8964 O.2       6 UNK        -0.5089 
     44 N          22.9635  -28.7604  -40.2696 N.am      7 UNK        -0.4243 
     45 CA         21.5090  -28.6922  -40.3490 C.3       7 UNK         0.0196 
     46 CB         20.9769  -27.5571  -39.4555 C.3       7 UNK        -0.2007 
     47 C          20.9221  -30.0455  -39.9415 C.2       7 UNK         0.5020 
     48 O          21.5072  -30.7271  -39.0954 O.2       7 UNK        -0.5147 
     49 N          19.7702  -30.3770  -40.5390 N.am      8 UNK        -0.4734 
     50 CA         18.9841  -31.6089  -40.3871 C.3       8 UNK         0.0238 
     51 CB         18.4819  -31.7509  -38.9333 C.3       8 UNK        -0.1912 
     52 C          19.7020  -32.8845  -40.8818 C.2       8 UNK         0.5038 
     53 O          20.8658  -32.8407  -41.2876 O.2       8 UNK        -0.5046 
     54 N          18.9613  -33.9992  -40.8696 N.am      9 UNK        -0.4200 
     55 CA         19.4017  -35.3349  -41.3122 C.3       9 UNK         0.0839 
     56 C          19.3824  -36.3848  -40.1626 C.2       9 UNK         0.5513 
     57 N          19.1585  -36.0013  -38.9106 N.am      9 UNK        -0.7519 
     58 O          19.5922  -37.5710  -40.4035 O.2       9 UNK        -0.4960 
     59 C59        18.5966  -35.8163  -42.5540 C.3       10 UNK        -0.0876 
     60 S60        18.9548  -34.8280  -44.0460 S.3       10 UNK        -0.2414 
     61 C61        17.6300  -33.5727  -43.9868 C.3       10 UNK         0.0169 
     62 H62        16.9994  -28.0754  -37.9593 H         1 UNK         0.0903 
     63 H63        15.7056  -28.9714  -38.7569 H         1 UNK         0.0903 
     64 H64        15.3571  -27.4261  -37.9788 H         1 UNK         0.0903 
     65 H65        15.8631  -28.8187  -40.9781 H         1 UNK         0.3096 
     66 H66        16.1727  -26.3338  -42.3994 H         1 UNK         0.1121 
     67 H67        14.7778  -28.1826  -43.2698 H         1 UNK         0.0849 
     68 H68        16.1551  -29.2385  -43.3381 H         1 UNK         0.0849 
     69 H69        15.4080  -29.6484  -46.1219 H         1 UNK         0.0865 
     70 H70        16.6480  -28.8973  -47.0942 H         1 UNK         0.0865 
     71 H71        16.0844  -31.7066  -45.1857 H         1 UNK         0.1346 
     72 H72        20.1082  -32.3342  -43.8347 H         1 UNK         0.1412 
     73 H73        19.0054  -28.5966  -45.6000 H         1 UNK         0.1426 
     74 H74        21.7595  -30.6669  -44.0419 H         1 UNK         0.0716 
     75 H75        21.0668  -29.0896  -43.7593 H         1 UNK         0.0716 
     76 H76        23.6172  -28.7205  -44.4482 H         1 UNK         0.0695 
     77 H77        24.0850  -28.4644  -46.1090 H         1 UNK         0.0695 
     78 H78        22.4276  -26.4917  -46.2057 H         1 UNK         0.0983 
     79 H79        22.4064  -26.7419  -43.2332 H         1 UNK         0.3095 
     80 H80        20.5536  -26.4482  -42.0901 H         1 UNK         0.0454 
     81 H81        19.8263  -23.7113  -43.2490 H         1 UNK         0.0851 
     82 H82        19.8249  -24.1352  -41.5372 H         1 UNK         0.0851 
     83 H83        21.3293  -24.1286  -42.4365 H         1 UNK         0.0851 
     84 H84        18.0201  -25.3936  -43.1342 H         1 UNK         0.2976 
     85 H85        23.1447  -24.7050  -43.8835 H         1 UNK         0.3116 
     86 H86        24.5407  -23.1199  -43.3263 H         1 UNK         0.0646 
     87 H87        26.3176  -22.3228  -44.8471 H         1 UNK         0.0847 
     88 H88        24.8419  -22.6478  -45.7409 H         1 UNK         0.0847 
     89 H89        26.1928  -23.7764  -45.8215 H         1 UNK         0.0847 
     90 H90        26.5224  -25.8894  -44.3988 H         1 UNK         0.3040 
     91 H91        28.5160  -25.5169  -42.2620 H         1 UNK         0.1015 
     92 H92        29.2020  -26.2965  -44.5288 H         1 UNK         0.0786 
     93 H93        28.1693  -27.7181  -44.3741 H         1 UNK         0.0786 
     94 H94        29.5653  -27.5195  -43.3227 H         1 UNK         0.0786 
     95 H95        25.4532  -27.0260  -42.4812 H         1 UNK         0.3172 
     96 H96        25.5902  -28.2691  -39.9094 H         1 UNK         0.0595 
     97 H97        25.0382  -30.5917  -40.7230 H         1 UNK         0.0839 
     98 H98        26.6282  -30.1238  -41.2896 H         1 UNK         0.0839 
     99 H99        25.2534  -30.0755  -42.3901 H         1 UNK         0.0839 
    100 H100       23.3175  -29.4685  -39.6381 H         1 UNK         0.2998 
    101 H101       21.2256  -28.5078  -41.3856 H         1 UNK         0.0822 
    102 H102       21.2194  -27.7257  -38.4057 H         1 UNK         0.0787 
    103 H103       21.3945  -26.5928  -39.7450 H         1 UNK         0.0787 
    104 H104       19.8916  -27.4768  -39.5342 H         1 UNK         0.0787 
    105 H105       19.3926  -29.7092  -41.2124 H         1 UNK         0.3055 
    106 H106       18.1155  -31.4762  -41.0348 H         1 UNK         0.1106 
    107 H107       19.2937  -31.9895  -38.2452 H         1 UNK         0.0828 
    108 H108       18.0125  -30.8302  -38.5863 H         1 UNK         0.0828 
    109 H109       17.7357  -32.5402  -38.8408 H         1 UNK         0.0828 
    110 H110       18.0169  -33.9557  -40.5157 H         1 UNK         0.2931 
    111 H111       20.4514  -35.2877  -41.6072 H         1 UNK         0.0412 
    112 H112       19.0295  -35.0291  -38.6826 H         1 UNK         0.3472 
    113 H113       19.1561  -36.6944  -38.1782 H         1 UNK         0.3472 
    114 H114       17.5244  -35.8176  -42.3508 H         1 UNK         0.0970 
    115 H115       18.8525  -36.8483  -42.8015 H         1 UNK         0.0970 
    116 H116       17.2626  -33.4627  -42.9669 H         1 UNK         0.0612 
    117 H117       16.7906  -33.9432  -44.5771 H         1 UNK         0.0612 
@<TRIPOS>BOND
     1    1    2 1    
     2    1   62 1    
     3    1   63 1    
     4    1   64 1    
     5    2    3 2    
     6    2    4 am   BACKBONE|DICT|INTERRES
     7    4    5 1    
     8    4   65 1    
     9    5    6 1    
    10    5   25 1    
    11    5   66 1    
    12    6    7 1    
    13    6   67 1    
    14    6   68 1    
    15    7    8 1    
    16    8    9 1    
    17    8   69 1    
    18    8   70 1    
    19    9   10 ar   
    20    9   14 ar   
    21   10   11 ar   
    22   10   71 1    
    23   11   12 ar   
    24   11   61 1    
    25   12   13 ar   
    26   12   72 1    
    27   13   14 ar   
    28   13   15 1    
    29   14   73 1    
    30   15   16 1    
    31   15   74 1    
    32   15   75 1    
    33   16   17 1    
    34   17   18 1    
    35   17   76 1    
    36   17   77 1    
    37   18   19 1    
    38   18   27 1    
    39   18   78 1    
    40   19   20 am   BACKBONE|DICT|INTERRES
    41   19   79 1    
    42   20   21 2    
    43   20   22 1    
    44   22   23 1    
    45   22   24 1    
    46   22   80 1    
    47   23   81 1    
    48   23   82 1    
    49   23   83 1    
    50   24   25 am   BACKBONE|DICT|INTERRES
    51   24   84 1    
    52   25   26 2    
    53   27   28 2    
    54   27   29 am   BACKBONE|DICT|INTERRES
    55   29   30 1    
    56   29   85 1    
    57   30   31 1    
    58   30   32 1    
    59   30   86 1    
    60   31   87 1    
    61   31   88 1    
    62   31   89 1    
    63   32   33 2    
    64   32   34 am   BACKBONE|DICT|INTERRES
    65   34   35 1    
    66   34   90 1    
    67   35   36 1    
    68   35   37 1    
    69   35   91 1    
    70   36   92 1    
    71   36   93 1    
    72   36   94 1    
    73   37   38 2    
    74   37   39 am   BACKBONE|DICT|INTERRES
    75   39   40 1    
    76   39   95 1    
    77   40   41 1    
    78   40   42 1    
    79   40   96 1    
    80   41   97 1    
    81   41   98 1    
    82   41   99 1    
    83   42   43 2    
    84   42   44 am   BACKBONE|DICT|INTERRES
    85   44   45 1    
    86   44  100 1    
    87   45   46 1    
    88   45   47 1    
    89   45  101 1    
    90   46  102 1    
    91   46  103 1    
    92   46  104 1    
    93   47   48 2    
    94   47   49 am   BACKBONE|DICT|INTERRES
    95   49   50 1    
    96   49  105 1    
    97   50   51 1    
    98   50   52 1    
    99   50  106 1    
   100   51  107 1    
   101   51  108 1    
   102   51  109 1    
   103   52   53 2    
   104   52   54 am   BACKBONE|DICT|INTERRES
   105   54   55 1    
   106   54  110 1    
   107   55   56 1    
   108   55   59 1    
   109   55  111 1    
   110   56   57 am   BACKBONE|DICT|INTERRES
   111   56   58 2    
   112   57  112 1    
   113   57  113 1    
   114   59   60 1    
   115   59  114 1    
   116   59  115 1    
   117   60   61 1    
   118   61  116 1    
   119   61  117 1    
@<TRIPOS>SUBSTRUCTURE
     1 UNK         1 GROUP             0       ****    0 ROOT    
