@<TRIPOS>MOLECULE
3R8
117   119    1
SMALL
USER_CHARGES


@<TRIPOS>ATOM
      1 CA         19.7936  -28.9691  -42.0448 C.3       0 UNK        -0.2013 
      2 C          18.5382  -28.1185  -41.9596 C.2       0 UNK         0.4866 
      3 O          18.3939  -27.3352  -41.0212 O.2       0 UNK        -0.5176 
      4 N          17.6238  -28.2674  -42.9275 N.am      1 UNK        -0.4884 
      5 CA         16.3452  -27.5433  -42.9833 C.3       1 UNK         0.0853 
      6 C6         15.3612  -28.1275  -44.0300 C.3       10 UNK        -0.0849 
      7 S7         15.1879  -29.9434  -43.9667 S.3       10 UNK        -0.2776 
      8 C8         15.7995  -30.4197  -45.6168 C.3       10 UNK         0.0316 
      9 C9         17.3201  -30.4967  -45.6697 C.ar      10 UNK        -0.0863 
     10 C10        17.9559  -31.7235  -45.4619 C.ar      10 UNK        -0.1009 
     11 C11        19.3450  -31.8336  -45.5623 C.ar      10 UNK        -0.0712 
     12 C12        20.1033  -30.6941  -45.8531 C.ar      10 UNK        -0.0894 
     13 C13        19.4846  -29.4522  -46.0354 C.ar      10 UNK        -0.0745 
     14 C14        18.0898  -29.3648  -45.9618 C.ar      10 UNK        -0.0972 
     15 C15        20.3212  -28.2126  -46.3322 C.3       10 UNK         0.0209 
     16 S16        21.4487  -27.8162  -44.9573 S.3       10 UNK        -0.2568 
     17 C17        22.0636  -26.1613  -45.4348 C.3       10 UNK        -0.0983 
     18 CA         21.6531  -25.0138  -44.4694 C.3       3 UNK         0.0876 
     19 N          20.2154  -24.9461  -44.2321 N.am      3 UNK        -0.4424 
     20 C          19.3298  -24.3362  -45.0244 C.2       2 UNK         0.4918 
     21 O          19.6302  -23.7839  -46.0839 O.2       2 UNK        -0.4875 
     22 CA         17.8661  -24.3730  -44.5585 C.3       2 UNK         0.0481 
     23 CB         16.8736  -23.9194  -45.6495 C.3       2 UNK        -0.1831 
     24 N          17.5339  -25.7185  -44.0956 N.am      2 UNK        -0.4498 
     25 C          16.5378  -26.0385  -43.2600 C.2       1 UNK         0.5027 
     26 O          15.7806  -25.2177  -42.7399 O.2       1 UNK        -0.4969 
     27 C          22.3436  -25.0968  -43.0981 C.2       3 UNK         0.5005 
     28 O          21.8140  -25.7432  -42.1905 O.2       3 UNK        -0.5279 
     29 N          23.4958  -24.4278  -42.9636 N.am      4 UNK        -0.4463 
     30 CA         24.2792  -24.3763  -41.7238 C.3       4 UNK         0.0283 
     31 CB         24.8989  -22.9754  -41.5842 C.3       4 UNK        -0.1875 
     32 C          25.3809  -25.4483  -41.6674 C.2       4 UNK         0.4949 
     33 O          25.9004  -25.7161  -40.5840 O.2       4 UNK        -0.5039 
     34 N          25.7447  -26.0188  -42.8249 N.am      5 UNK        -0.4663 
     35 CA         26.8330  -26.9904  -42.9628 C.3       5 UNK         0.0242 
     36 CB         27.2557  -27.0638  -44.4394 C.3       5 UNK        -0.1982 
     37 C          26.4800  -28.3920  -42.4382 C.2       5 UNK         0.5017 
     38 O          27.3826  -29.1196  -42.0219 O.2       5 UNK        -0.5012 
     39 N          25.1922  -28.7544  -42.4858 N.am      6 UNK        -0.4439 
     40 CA         24.6872  -30.0484  -42.0352 C.3       6 UNK         0.0297 
     41 CB         23.4180  -30.4000  -42.8231 C.3       6 UNK        -0.2006 
     42 C          24.3908  -30.0221  -40.5302 C.2       6 UNK         0.4892 
     43 O          23.7671  -29.0753  -40.0452 O.2       6 UNK        -0.5089 
     44 N          24.7993  -31.0858  -39.8292 N.am      7 UNK        -0.4243 
     45 CA         24.4950  -31.3210  -38.4188 C.3       7 UNK         0.0196 
     46 CB         25.6063  -32.1909  -37.8027 C.3       7 UNK        -0.2007 
     47 C          23.1119  -31.9798  -38.3075 C.2       7 UNK         0.5020 
     48 O          23.0189  -33.2082  -38.2936 O.2       7 UNK        -0.5147 
     49 N          22.0584  -31.1514  -38.3136 N.am      8 UNK        -0.4734 
     50 CA         20.6208  -31.4789  -38.2721 C.3       8 UNK         0.0238 
     51 CB         20.2548  -32.2683  -36.9995 C.3       8 UNK        -0.1912 
     52 C          20.0710  -32.1771  -39.5323 C.2       8 UNK         0.5038 
     53 O          18.9308  -31.9075  -39.9092 O.2       8 UNK        -0.5046 
     54 N          20.8844  -33.0236  -40.1743 N.am      9 UNK        -0.4200 
     55 CA         20.6071  -33.7280  -41.4364 C.3       9 UNK         0.0839 
     56 C          19.5347  -34.8558  -41.3430 C.2       9 UNK         0.5513 
     57 N          19.1814  -35.3300  -40.1542 N.am      9 UNK        -0.7519 
     58 O          19.0340  -35.3314  -42.3588 O.2       9 UNK        -0.4960 
     59 C59        20.3704  -32.7402  -42.6183 C.3       10 UNK        -0.0876 
     60 S60        21.3096  -33.1956  -44.1139 S.3       10 UNK        -0.2414 
     61 C61        20.0105  -33.1947  -45.3876 C.3       10 UNK         0.0169 
     62 H62        19.8198  -29.5641  -42.9575 H         1 UNK         0.0903 
     63 H63        20.6758  -28.3295  -42.0284 H         1 UNK         0.0903 
     64 H64        19.8481  -29.6420  -41.1912 H         1 UNK         0.0903 
     65 H65        17.7660  -28.9610  -43.6506 H         1 UNK         0.3096 
     66 H66        15.8798  -27.6331  -41.9989 H         1 UNK         0.1121 
     67 H67        14.3681  -27.7010  -43.8749 H         1 UNK         0.0849 
     68 H68        15.6450  -27.8290  -45.0402 H         1 UNK         0.0849 
     69 H69        15.3739  -31.3916  -45.8717 H         1 UNK         0.0865 
     70 H70        15.4250  -29.7307  -46.3754 H         1 UNK         0.0865 
     71 H71        17.3633  -32.6014  -45.2421 H         1 UNK         0.1346 
     72 H72        21.1796  -30.7714  -45.9271 H         1 UNK         0.1412 
     73 H73        17.6033  -28.4164  -46.1404 H         1 UNK         0.1426 
     74 H74        19.6781  -27.3523  -46.5245 H         1 UNK         0.0716 
     75 H75        20.9036  -28.3766  -47.2399 H         1 UNK         0.0716 
     76 H76        23.1502  -26.2147  -45.5210 H         1 UNK         0.0695 
     77 H77        21.7078  -25.9274  -46.4392 H         1 UNK         0.0695 
     78 H78        21.9606  -24.0683  -44.9225 H         1 UNK         0.0983 
     79 H79        19.9251  -25.3470  -43.3488 H         1 UNK         0.3095 
     80 H80        17.7917  -23.6836  -43.7152 H         1 UNK         0.0454 
     81 H81        17.1014  -22.9093  -45.9919 H         1 UNK         0.0851 
     82 H82        16.9071  -24.5759  -46.5196 H         1 UNK         0.0851 
     83 H83        15.8486  -23.9061  -45.2792 H         1 UNK         0.0851 
     84 H84        18.1235  -26.4630  -44.4413 H         1 UNK         0.2976 
     85 H85        23.8534  -23.8982  -43.7469 H         1 UNK         0.3116 
     86 H86        23.6240  -24.5381  -40.8648 H         1 UNK         0.0646 
     87 H87        25.4648  -22.8895  -40.6554 H         1 UNK         0.0847 
     88 H88        24.1310  -22.2018  -41.5643 H         1 UNK         0.0847 
     89 H89        25.5831  -22.7498  -42.4031 H         1 UNK         0.0847 
     90 H90        25.2703  -25.7399  -43.6704 H         1 UNK         0.3040 
     91 H91        27.6871  -26.6335  -42.3820 H         1 UNK         0.1015 
     92 H92        27.5903  -26.0930  -44.8058 H         1 UNK         0.0786 
     93 H93        26.4389  -27.4024  -45.0783 H         1 UNK         0.0786 
     94 H94        28.0843  -27.7609  -44.5737 H         1 UNK         0.0786 
     95 H95        24.5080  -28.0710  -42.7755 H         1 UNK         0.3172 
     96 H96        25.4343  -30.8180  -42.2427 H         1 UNK         0.0595 
     97 H97        23.6080  -30.4401  -43.8959 H         1 UNK         0.0839 
     98 H98        22.6193  -29.6785  -42.6513 H         1 UNK         0.0839 
     99 H99        23.0472  -31.3795  -42.5231 H         1 UNK         0.0839 
    100 H100       25.2764  -31.8331  -40.3137 H         1 UNK         0.2998 
    101 H101       24.4744  -30.3715  -37.8786 H         1 UNK         0.0822 
    102 H102       26.5715  -31.6858  -37.8436 H         1 UNK         0.0787 
    103 H103       25.3964  -32.4037  -36.7536 H         1 UNK         0.0787 
    104 H104       25.7086  -33.1485  -38.3152 H         1 UNK         0.0787 
    105 H105       22.2637  -30.1653  -38.4225 H         1 UNK         0.3055 
    106 H106       20.1060  -30.5179  -38.2152 H         1 UNK         0.1106 
    107 H107       20.7097  -33.2589  -36.9844 H         1 UNK         0.0828 
    108 H108       20.5719  -31.7399  -36.1004 H         1 UNK         0.0828 
    109 H109       19.1754  -32.4090  -36.9275 H         1 UNK         0.0828 
    110 H110       21.7755  -33.2277  -39.7311 H         1 UNK         0.2931 
    111 H111       21.5378  -34.2636  -41.6268 H         1 UNK         0.0412 
    112 H112       18.4947  -36.0661  -40.0996 H         1 UNK         0.3472 
    113 H113       19.5929  -34.9581  -39.3133 H         1 UNK         0.3472 
    114 H114       19.3068  -32.6347  -42.8405 H         1 UNK         0.0970 
    115 H115       20.7017  -31.7372  -42.3532 H         1 UNK         0.0970 
    116 H116       19.2760  -33.9608  -45.1334 H         1 UNK         0.0612 
    117 H117       20.4525  -33.4941  -46.3386 H         1 UNK         0.0612 
@<TRIPOS>BOND
     1    1    2 1    
     2    1   62 1    
     3    1   63 1    
     4    1   64 1    
     5    2    3 2    
     6    2    4 am   BACKBONE|DICT|INTERRES
     7    4    5 1    
     8    4   65 1    
     9    5    6 1    
    10    5   25 1    
    11    5   66 1    
    12    6    7 1    
    13    6   67 1    
    14    6   68 1    
    15    7    8 1    
    16    8    9 1    
    17    8   69 1    
    18    8   70 1    
    19    9   10 ar   
    20    9   14 ar   
    21   10   11 ar   
    22   10   71 1    
    23   11   12 ar   
    24   11   61 1    
    25   12   13 ar   
    26   12   72 1    
    27   13   14 ar   
    28   13   15 1    
    29   14   73 1    
    30   15   16 1    
    31   15   74 1    
    32   15   75 1    
    33   16   17 1    
    34   17   18 1    
    35   17   76 1    
    36   17   77 1    
    37   18   19 1    
    38   18   27 1    
    39   18   78 1    
    40   19   20 am   BACKBONE|DICT|INTERRES
    41   19   79 1    
    42   20   21 2    
    43   20   22 1    
    44   22   23 1    
    45   22   24 1    
    46   22   80 1    
    47   23   81 1    
    48   23   82 1    
    49   23   83 1    
    50   24   25 am   BACKBONE|DICT|INTERRES
    51   24   84 1    
    52   25   26 2    
    53   27   28 2    
    54   27   29 am   BACKBONE|DICT|INTERRES
    55   29   30 1    
    56   29   85 1    
    57   30   31 1    
    58   30   32 1    
    59   30   86 1    
    60   31   87 1    
    61   31   88 1    
    62   31   89 1    
    63   32   33 2    
    64   32   34 am   BACKBONE|DICT|INTERRES
    65   34   35 1    
    66   34   90 1    
    67   35   36 1    
    68   35   37 1    
    69   35   91 1    
    70   36   92 1    
    71   36   93 1    
    72   36   94 1    
    73   37   38 2    
    74   37   39 am   BACKBONE|DICT|INTERRES
    75   39   40 1    
    76   39   95 1    
    77   40   41 1    
    78   40   42 1    
    79   40   96 1    
    80   41   97 1    
    81   41   98 1    
    82   41   99 1    
    83   42   43 2    
    84   42   44 am   BACKBONE|DICT|INTERRES
    85   44   45 1    
    86   44  100 1    
    87   45   46 1    
    88   45   47 1    
    89   45  101 1    
    90   46  102 1    
    91   46  103 1    
    92   46  104 1    
    93   47   48 2    
    94   47   49 am   BACKBONE|DICT|INTERRES
    95   49   50 1    
    96   49  105 1    
    97   50   51 1    
    98   50   52 1    
    99   50  106 1    
   100   51  107 1    
   101   51  108 1    
   102   51  109 1    
   103   52   53 2    
   104   52   54 am   BACKBONE|DICT|INTERRES
   105   54   55 1    
   106   54  110 1    
   107   55   56 1    
   108   55   59 1    
   109   55  111 1    
   110   56   57 am   BACKBONE|DICT|INTERRES
   111   56   58 2    
   112   57  112 1    
   113   57  113 1    
   114   59   60 1    
   115   59  114 1    
   116   59  115 1    
   117   60   61 1    
   118   61  116 1    
   119   61  117 1    
@<TRIPOS>SUBSTRUCTURE
     1 UNK         1 GROUP             0       ****    0 ROOT    
