@<TRIPOS>MOLECULE
3R8
117   119    1
SMALL
USER_CHARGES


@<TRIPOS>ATOM
      1 CA         20.5788  -32.7474  -47.7230 C.3       0 UNK        -0.2013 
      2 C          19.8977  -31.4093  -47.4785 C.2       0 UNK         0.4866 
      3 O          19.6957  -30.6469  -48.4235 O.2       0 UNK        -0.5176 
      4 N          19.5580  -31.1238  -46.2143 N.am      1 UNK        -0.4884 
      5 CA         18.9469  -29.8785  -45.7215 C.3       1 UNK         0.0853 
      6 C6         17.5139  -29.6268  -46.2580 C.3       10 UNK        -0.0849 
      7 S7         16.3886  -30.9729  -45.7553 S.3       10 UNK        -0.2776 
      8 C8         15.3153  -30.1451  -44.5390 C.3       10 UNK         0.0316 
      9 C9         16.0685  -29.6416  -43.3121 C.ar      10 UNK        -0.0863 
     10 C10        16.5791  -30.5448  -42.3735 C.ar      10 UNK        -0.1009 
     11 C11        17.1964  -30.0835  -41.2053 C.ar      10 UNK        -0.0712 
     12 C12        17.2960  -28.7069  -40.9809 C.ar      10 UNK        -0.0894 
     13 C13        16.7820  -27.7916  -41.9055 C.ar      10 UNK        -0.0745 
     14 C14        16.1837  -28.2673  -43.0764 C.ar      10 UNK        -0.0972 
     15 C15        16.7650  -26.2972  -41.5965 C.3       10 UNK         0.0209 
     16 S16        18.3628  -25.6417  -41.0161 S.3       10 UNK        -0.2568 
     17 C17        19.2895  -25.4624  -42.5775 C.3       10 UNK        -0.0983 
     18 CA         20.7391  -26.0112  -42.4795 C.3       3 UNK         0.0876 
     19 N          21.1857  -26.4982  -43.7832 N.am      3 UNK        -0.4424 
     20 C          22.1543  -27.3924  -44.0030 C.2       2 UNK         0.4918 
     21 O          22.8760  -27.8758  -43.1291 O.2       2 UNK        -0.4875 
     22 CA         22.2323  -27.9175  -45.4424 C.3       2 UNK         0.0481 
     23 CB         23.5890  -28.5648  -45.7680 C.3       2 UNK        -0.1831 
     24 N          21.1826  -28.9185  -45.5893 N.am      2 UNK        -0.4498 
     25 C          19.8999  -28.6764  -45.8892 C.2       1 UNK         0.5027 
     26 O          19.4760  -27.5743  -46.2441 O.2       1 UNK        -0.4969 
     27 C          21.7315  -25.0160  -41.8287 C.2       3 UNK         0.5005 
     28 O          22.8729  -24.8734  -42.2746 O.2       3 UNK        -0.5279 
     29 N          21.2772  -24.3642  -40.7497 N.am      4 UNK        -0.4463 
     30 CA         21.9655  -23.4081  -39.8711 C.3       4 UNK         0.0283 
     31 CB         22.5191  -22.1964  -40.6465 C.3       4 UNK        -0.1875 
     32 C          23.0429  -24.0476  -38.9798 C.2       4 UNK         0.4949 
     33 O          23.0744  -23.7578  -37.7837 O.2       4 UNK        -0.5039 
     34 N          23.8900  -24.9064  -39.5593 N.am      5 UNK        -0.4663 
     35 CA         24.9005  -25.6917  -38.8486 C.3       5 UNK         0.0242 
     36 CB         25.9628  -26.2286  -39.8249 C.3       5 UNK        -0.1982 
     37 C          24.2978  -26.7666  -37.9128 C.2       5 UNK         0.5017 
     38 O          24.5932  -26.7193  -36.7198 O.2       5 UNK        -0.5012 
     39 N          23.4313  -27.6890  -38.3652 N.am      6 UNK        -0.4439 
     40 CA         23.1916  -28.1226  -39.7433 C.3       6 UNK         0.0297 
     41 CB         21.7773  -28.7192  -39.8459 C.3       6 UNK        -0.2006 
     42 C          24.2422  -29.1739  -40.1345 C.2       6 UNK         0.4892 
     43 O          24.6571  -29.9685  -39.2872 O.2       6 UNK        -0.5089 
     44 N          24.6566  -29.1506  -41.4043 N.am      7 UNK        -0.4243 
     45 CA         25.6922  -30.0290  -41.9495 C.3       7 UNK         0.0196 
     46 CB         26.4537  -29.2857  -43.0583 C.3       7 UNK        -0.2007 
     47 C          25.1184  -31.3533  -42.4742 C.2       7 UNK         0.5020 
     48 O          25.8234  -32.3625  -42.4495 O.2       7 UNK        -0.5147 
     49 N          23.8607  -31.3387  -42.9300 N.am      8 UNK        -0.4734 
     50 CA         23.1305  -32.5020  -43.4254 C.3       8 UNK         0.0238 
     51 CB         23.5721  -32.8415  -44.8622 C.3       8 UNK        -0.1912 
     52 C          21.6366  -32.1798  -43.3910 C.2       8 UNK         0.5038 
     53 O          21.2691  -31.0421  -43.6870 O.2       8 UNK        -0.5046 
     54 N          20.8114  -33.1848  -43.0857 N.am      9 UNK        -0.4200 
     55 CA         19.3410  -33.0966  -43.0271 C.3       9 UNK         0.0839 
     56 C          18.6346  -34.1071  -43.9774 C.2       9 UNK         0.5513 
     57 N          19.3501  -34.8408  -44.8225 N.am      9 UNK        -0.7519 
     58 O          17.4122  -34.2171  -43.9629 O.2       9 UNK        -0.4960 
     59 C59        18.8275  -33.2193  -41.5681 C.3       10 UNK        -0.0876 
     60 S60        19.3048  -31.7879  -40.5389 S.3       10 UNK        -0.2414 
     61 C61        17.6845  -31.0587  -40.1409 C.3       10 UNK         0.0169 
     62 H62        19.9315  -33.3946  -48.3142 H         1 UNK         0.0903 
     63 H63        21.5087  -32.6007  -48.2719 H         1 UNK         0.0903 
     64 H64        20.8158  -33.2614  -46.7924 H         1 UNK         0.0903 
     65 H65        19.7838  -31.7879  -45.4889 H         1 UNK         0.3096 
     66 H66        18.8581  -29.9968  -44.6396 H         1 UNK         0.1121 
     67 H67        17.5115  -29.5502  -47.3460 H         1 UNK         0.0849 
     68 H68        17.1210  -28.6777  -45.8898 H         1 UNK         0.0849 
     69 H69        14.7837  -29.3296  -45.0320 H         1 UNK         0.0865 
     70 H70        14.5477  -30.8500  -44.2167 H         1 UNK         0.0865 
     71 H71        16.4703  -31.6067  -42.5449 H         1 UNK         0.1346 
     72 H72        17.7406  -28.3452  -40.0638 H         1 UNK         0.1412 
     73 H73        15.7625  -27.5660  -43.7840 H         1 UNK         0.1426 
     74 H74        16.0219  -26.1226  -40.8174 H         1 UNK         0.0716 
     75 H75        16.4372  -25.7193  -42.4622 H         1 UNK         0.0716 
     76 H76        19.2749  -24.4171  -42.8930 H         1 UNK         0.0695 
     77 H77        18.7393  -26.0078  -43.3469 H         1 UNK         0.0695 
     78 H78        20.7202  -26.8859  -41.8270 H         1 UNK         0.0983 
     79 H79        20.6456  -26.1888  -44.5792 H         1 UNK         0.3095 
     80 H80        22.0692  -27.0895  -46.1354 H         1 UNK         0.0454 
     81 H81        23.7861  -29.4342  -45.1408 H         1 UNK         0.0851 
     82 H82        24.4037  -27.8557  -45.6177 H         1 UNK         0.0851 
     83 H83        23.6297  -28.8908  -46.8072 H         1 UNK         0.0851 
     84 H84        21.3833  -29.8269  -45.1810 H         1 UNK         0.2976 
     85 H85        20.3259  -24.5800  -40.4725 H         1 UNK         0.3116 
     86 H86        21.1922  -23.0312  -39.1995 H         1 UNK         0.0646 
     87 H87        23.3320  -22.4727  -41.3182 H         1 UNK         0.0847 
     88 H88        22.9126  -21.4459  -39.9597 H         1 UNK         0.0847 
     89 H89        21.7415  -21.7160  -41.2401 H         1 UNK         0.0847 
     90 H90        23.7833  -25.0605  -40.5580 H         1 UNK         0.3040 
     91 H91        25.4268  -24.9980  -38.1883 H         1 UNK         0.1015 
     92 H92        25.5273  -26.6185  -40.7431 H         1 UNK         0.0786 
     93 H93        26.5582  -27.0226  -39.3716 H         1 UNK         0.0786 
     94 H94        26.6535  -25.4363  -40.1142 H         1 UNK         0.0786 
     95 H95        23.0774  -28.3328  -37.6731 H         1 UNK         0.3172 
     96 H96        23.2529  -27.2782  -40.4276 H         1 UNK         0.0595 
     97 H97        21.5624  -29.0469  -40.8646 H         1 UNK         0.0839 
     98 H98        21.0156  -27.9890  -39.5721 H         1 UNK         0.0839 
     99 H99        21.6545  -29.5885  -39.1982 H         1 UNK         0.0839 
    100 H100       24.1848  -28.5275  -42.0591 H         1 UNK         0.2998 
    101 H101       26.4085  -30.2727  -41.1615 H         1 UNK         0.0822 
    102 H102       27.2354  -29.9153  -43.4856 H         1 UNK         0.0787 
    103 H103       25.7946  -28.9855  -43.8717 H         1 UNK         0.0787 
    104 H104       26.9362  -28.3879  -42.6714 H         1 UNK         0.0787 
    105 H105       23.3213  -30.4814  -42.8954 H         1 UNK         0.3055 
    106 H106       23.3286  -33.3514  -42.7674 H         1 UNK         0.1106 
    107 H107       23.0285  -33.7050  -45.2469 H         1 UNK         0.0828 
    108 H108       23.3931  -32.0108  -45.5462 H         1 UNK         0.0828 
    109 H109       24.6333  -33.0865  -44.9073 H         1 UNK         0.0828 
    110 H110       21.1992  -34.0903  -42.8627 H         1 UNK         0.2931 
    111 H111       19.0226  -32.1212  -43.3979 H         1 UNK         0.0412 
    112 H112       18.8695  -35.4870  -45.4292 H         1 UNK         0.3472 
    113 H113       20.3542  -34.7830  -44.8504 H         1 UNK         0.3472 
    114 H114       19.2213  -34.1246  -41.1033 H         1 UNK         0.0970 
    115 H115       17.7427  -33.3287  -41.5413 H         1 UNK         0.0970 
    116 H116       16.9432  -31.8428  -39.9815 H         1 UNK         0.0612 
    117 H117       17.7761  -30.5447  -39.1829 H         1 UNK         0.0612 
@<TRIPOS>BOND
     1    1    2 1    
     2    1   62 1    
     3    1   63 1    
     4    1   64 1    
     5    2    3 2    
     6    2    4 am   BACKBONE|DICT|INTERRES
     7    4    5 1    
     8    4   65 1    
     9    5    6 1    
    10    5   25 1    
    11    5   66 1    
    12    6    7 1    
    13    6   67 1    
    14    6   68 1    
    15    7    8 1    
    16    8    9 1    
    17    8   69 1    
    18    8   70 1    
    19    9   10 ar   
    20    9   14 ar   
    21   10   11 ar   
    22   10   71 1    
    23   11   12 ar   
    24   11   61 1    
    25   12   13 ar   
    26   12   72 1    
    27   13   14 ar   
    28   13   15 1    
    29   14   73 1    
    30   15   16 1    
    31   15   74 1    
    32   15   75 1    
    33   16   17 1    
    34   17   18 1    
    35   17   76 1    
    36   17   77 1    
    37   18   19 1    
    38   18   27 1    
    39   18   78 1    
    40   19   20 am   BACKBONE|DICT|INTERRES
    41   19   79 1    
    42   20   21 2    
    43   20   22 1    
    44   22   23 1    
    45   22   24 1    
    46   22   80 1    
    47   23   81 1    
    48   23   82 1    
    49   23   83 1    
    50   24   25 am   BACKBONE|DICT|INTERRES
    51   24   84 1    
    52   25   26 2    
    53   27   28 2    
    54   27   29 am   BACKBONE|DICT|INTERRES
    55   29   30 1    
    56   29   85 1    
    57   30   31 1    
    58   30   32 1    
    59   30   86 1    
    60   31   87 1    
    61   31   88 1    
    62   31   89 1    
    63   32   33 2    
    64   32   34 am   BACKBONE|DICT|INTERRES
    65   34   35 1    
    66   34   90 1    
    67   35   36 1    
    68   35   37 1    
    69   35   91 1    
    70   36   92 1    
    71   36   93 1    
    72   36   94 1    
    73   37   38 2    
    74   37   39 am   BACKBONE|DICT|INTERRES
    75   39   40 1    
    76   39   95 1    
    77   40   41 1    
    78   40   42 1    
    79   40   96 1    
    80   41   97 1    
    81   41   98 1    
    82   41   99 1    
    83   42   43 2    
    84   42   44 am   BACKBONE|DICT|INTERRES
    85   44   45 1    
    86   44  100 1    
    87   45   46 1    
    88   45   47 1    
    89   45  101 1    
    90   46  102 1    
    91   46  103 1    
    92   46  104 1    
    93   47   48 2    
    94   47   49 am   BACKBONE|DICT|INTERRES
    95   49   50 1    
    96   49  105 1    
    97   50   51 1    
    98   50   52 1    
    99   50  106 1    
   100   51  107 1    
   101   51  108 1    
   102   51  109 1    
   103   52   53 2    
   104   52   54 am   BACKBONE|DICT|INTERRES
   105   54   55 1    
   106   54  110 1    
   107   55   56 1    
   108   55   59 1    
   109   55  111 1    
   110   56   57 am   BACKBONE|DICT|INTERRES
   111   56   58 2    
   112   57  112 1    
   113   57  113 1    
   114   59   60 1    
   115   59  114 1    
   116   59  115 1    
   117   60   61 1    
   118   61  116 1    
   119   61  117 1    
@<TRIPOS>SUBSTRUCTURE
     1 UNK         1 GROUP             0       ****    0 ROOT    
