@<TRIPOS>MOLECULE
3R8
117   119    1
SMALL
USER_CHARGES


@<TRIPOS>ATOM
      1 CA         16.4783  -26.9464  -50.6530 C.3       0 UNK        -0.2013 
      2 C          17.4856  -26.9551  -49.5128 C.2       0 UNK         0.4866 
      3 O          18.5602  -26.3669  -49.6398 O.2       0 UNK        -0.5176 
      4 N          17.1515  -27.6249  -48.4036 N.am      1 UNK        -0.4884 
      5 CA         17.9562  -27.6756  -47.1794 C.3       1 UNK         0.0853 
      6 C6         17.5484  -28.8675  -46.2729 C.3       10 UNK        -0.0849 
      7 S7         15.7702  -28.9093  -45.8504 S.3       10 UNK        -0.2776 
      8 C8         15.6240  -30.5440  -45.0635 C.3       10 UNK         0.0316 
      9 C9         16.3596  -30.6091  -43.7322 C.ar      10 UNK        -0.0863 
     10 C10        17.4678  -31.4474  -43.5768 C.ar      10 UNK        -0.1009 
     11 C11        18.1281  -31.5274  -42.3466 C.ar      10 UNK        -0.0712 
     12 C12        17.6662  -30.7714  -41.2670 C.ar      10 UNK        -0.0894 
     13 C13        16.5755  -29.9100  -41.4167 C.ar      10 UNK        -0.0745 
     14 C14        15.9207  -29.8403  -42.6496 C.ar      10 UNK        -0.0972 
     15 C15        16.0981  -29.0628  -40.2456 C.3       10 UNK         0.0209 
     16 S16        17.4278  -28.0339  -39.5429 S.3       10 UNK        -0.2568 
     17 C17        17.7853  -26.8599  -40.8976 C.3       10 UNK        -0.0983 
     18 CA         19.1051  -27.1516  -41.6777 C.3       3 UNK         0.0876 
     19 N          19.1106  -26.5692  -43.0280 N.am      3 UNK        -0.4424 
     20 C          18.9034  -25.2814  -43.3519 C.2       2 UNK         0.4918 
     21 O          18.5470  -24.4129  -42.5548 O.2       2 UNK        -0.4875 
     22 CA         19.1392  -24.8783  -44.8182 C.3       2 UNK         0.0481 
     23 CB         20.5448  -24.2768  -44.9780 C.3       2 UNK        -0.1831 
     24 N          19.0081  -26.0199  -45.7225 N.am      2 UNK        -0.4498 
     25 C          17.9101  -26.3325  -46.4178 C.2       1 UNK         0.5027 
     26 O          16.8947  -25.6311  -46.4530 O.2       1 UNK        -0.4969 
     27 C          20.3905  -26.7656  -40.8992 C.2       3 UNK         0.5005 
     28 O          21.2392  -26.0323  -41.4158 O.2       3 UNK        -0.5279 
     29 N          20.5108  -27.2862  -39.6692 N.am      4 UNK        -0.4463 
     30 CA         21.6255  -27.1325  -38.7249 C.3       4 UNK         0.0283 
     31 CB         21.7786  -25.6529  -38.3033 C.3       4 UNK        -0.1875 
     32 C          22.9456  -27.7560  -39.2293 C.2       4 UNK         0.4949 
     33 O          22.9391  -28.5237  -40.1922 O.2       4 UNK        -0.5039 
     34 N          24.0481  -27.4438  -38.5282 N.am      5 UNK        -0.4663 
     35 CA         25.4282  -27.8811  -38.7924 C.3       5 UNK         0.0242 
     36 CB         25.9668  -27.2155  -40.0754 C.3       5 UNK        -0.1982 
     37 C          25.6023  -29.4142  -38.7885 C.2       5 UNK         0.5017 
     38 O          26.3314  -29.9589  -39.6204 O.2       5 UNK        -0.5012 
     39 N          24.9254  -30.0796  -37.8401 N.am      6 UNK        -0.4439 
     40 CA         24.8631  -31.5325  -37.6542 C.3       6 UNK         0.0297 
     41 CB         26.2288  -32.0936  -37.1932 C.3       6 UNK        -0.2006 
     42 C          24.2813  -32.2280  -38.8995 C.2       6 UNK         0.4892 
     43 O          23.0690  -32.1651  -39.1015 O.2       6 UNK        -0.5089 
     44 N          25.1413  -32.8732  -39.6971 N.am      7 UNK        -0.4243 
     45 CA         24.7755  -33.5493  -40.9421 C.3       7 UNK         0.0196 
     46 CB         25.6948  -34.7680  -41.1295 C.3       7 UNK        -0.2007 
     47 C          24.8515  -32.6319  -42.1754 C.2       7 UNK         0.5020 
     48 O          24.3059  -32.9972  -43.2176 O.2       7 UNK        -0.5147 
     49 N          25.5222  -31.4743  -42.0752 N.am      8 UNK        -0.4734 
     50 CA         25.7433  -30.5424  -43.1879 C.3       8 UNK         0.0238 
     51 CB         27.0655  -29.7857  -42.9609 C.3       8 UNK        -0.1912 
     52 C          24.5410  -29.6016  -43.3986 C.2       8 UNK         0.5038 
     53 O          24.7020  -28.3805  -43.3910 O.2       8 UNK        -0.5046 
     54 N          23.3591  -30.1983  -43.5887 N.am      9 UNK        -0.4200 
     55 CA         22.0600  -29.5240  -43.7336 C.3       9 UNK         0.0839 
     56 C          21.8779  -28.6629  -45.0156 C.2       9 UNK         0.5513 
     57 N          22.7774  -28.6978  -45.9899 N.am      9 UNK        -0.7519 
     58 O          20.8797  -27.9561  -45.1289 O.2       9 UNK        -0.4960 
     59 C59        20.8872  -30.5275  -43.6044 C.3       10 UNK        -0.0876 
     60 S60        20.8768  -31.4178  -42.0141 S.3       10 UNK        -0.2414 
     61 C61        19.3582  -32.4085  -42.1853 C.3       10 UNK         0.0169 
     62 H62        15.5813  -27.5154  -50.4091 H         1 UNK         0.0903 
     63 H63        16.1792  -25.9236  -50.8810 H         1 UNK         0.0903 
     64 H64        16.9216  -27.3800  -51.5491 H         1 UNK         0.0903 
     65 H65        16.2407  -28.0570  -48.3308 H         1 UNK         0.3096 
     66 H66        18.9942  -27.8379  -47.4811 H         1 UNK         0.1121 
     67 H67        18.1307  -28.8681  -45.3493 H         1 UNK         0.0849 
     68 H68        17.7998  -29.8017  -46.7775 H         1 UNK         0.0849 
     69 H69        14.5680  -30.7603  -44.8954 H         1 UNK         0.0865 
     70 H70        15.9847  -31.3105  -45.7513 H         1 UNK         0.0865 
     71 H71        17.8203  -32.0348  -44.4137 H         1 UNK         0.1346 
     72 H72        18.1778  -30.8314  -40.3160 H         1 UNK         0.1412 
     73 H73        15.0690  -29.1850  -42.7732 H         1 UNK         0.1426 
     74 H74        15.7179  -29.7250  -39.4666 H         1 UNK         0.0716 
     75 H75        15.2660  -28.4197  -40.5364 H         1 UNK         0.0716 
     76 H76        17.8002  -25.8536  -40.4756 H         1 UNK         0.0695 
     77 H77        16.9395  -26.8756  -41.5869 H         1 UNK         0.0695 
     78 H78        19.1661  -28.2290  -41.8407 H         1 UNK         0.0983 
     79 H79        19.4771  -27.1709  -43.7541 H         1 UNK         0.3095 
     80 H80        18.4095  -24.1083  -45.0770 H         1 UNK         0.0454 
     81 H81        20.7213  -23.9466  -46.0016 H         1 UNK         0.0851 
     82 H82        21.3233  -24.9954  -44.7170 H         1 UNK         0.0851 
     83 H83        20.6733  -23.4087  -44.3301 H         1 UNK         0.0851 
     84 H84        19.7857  -26.6791  -45.7167 H         1 UNK         0.2976 
     85 H85        19.7538  -27.8785  -39.3506 H         1 UNK         0.3116 
     86 H86        21.3395  -27.7019  -37.8394 H         1 UNK         0.0646 
     87 H87        22.2087  -25.0469  -39.1017 H         1 UNK         0.0847 
     88 H88        20.8159  -25.2159  -38.0379 H         1 UNK         0.0847 
     89 H89        22.4220  -25.5473  -37.4297 H         1 UNK         0.0847 
     90 H90        23.9376  -26.8237  -37.7376 H         1 UNK         0.3040 
     91 H91        26.0329  -27.5156  -37.9608 H         1 UNK         0.1015 
     92 H92        27.0221  -27.4460  -40.2258 H         1 UNK         0.0786 
     93 H93        25.8774  -26.1304  -40.0272 H         1 UNK         0.0786 
     94 H94        25.4273  -27.5555  -40.9591 H         1 UNK         0.0786 
     95 H95        24.3245  -29.5370  -37.2357 H         1 UNK         0.3172 
     96 H96        24.1516  -31.7099  -36.8462 H         1 UNK         0.0595 
     97 H97        27.0293  -31.8973  -37.9069 H         1 UNK         0.0839 
     98 H98        26.1781  -33.1727  -37.0409 H         1 UNK         0.0839 
     99 H99        26.5275  -31.6530  -36.2420 H         1 UNK         0.0839 
    100 H100       26.1233  -32.8466  -39.4625 H         1 UNK         0.2998 
    101 H101       23.7467  -33.9098  -40.8708 H         1 UNK         0.0822 
    102 H102       25.4324  -35.3203  -42.0331 H         1 UNK         0.0787 
    103 H103       25.6097  -35.4615  -40.2926 H         1 UNK         0.0787 
    104 H104       26.7417  -34.4752  -41.2191 H         1 UNK         0.0787 
    105 H105       25.8673  -31.1757  -41.1673 H         1 UNK         0.3055 
    106 H106       25.8578  -31.1149  -44.1114 H         1 UNK         0.1106 
    107 H107       27.0282  -29.1647  -42.0667 H         1 UNK         0.0828 
    108 H108       27.9040  -30.4739  -42.8552 H         1 UNK         0.0828 
    109 H109       27.2900  -29.1295  -43.8028 H         1 UNK         0.0828 
    110 H110       23.3375  -31.2114  -43.5645 H         1 UNK         0.2931 
    111 H111       21.9839  -28.8223  -42.9004 H         1 UNK         0.0412 
    112 H112       23.6034  -29.2669  -45.9022 H         1 UNK         0.3472 
    113 H113       22.6386  -28.1325  -46.8121 H         1 UNK         0.3472 
    114 H114       19.9359  -30.0014  -43.6974 H         1 UNK         0.0970 
    115 H115       20.9149  -31.2576  -44.4156 H         1 UNK         0.0970 
    116 H116       19.4666  -33.0876  -43.0323 H         1 UNK         0.0612 
    117 H117       19.2424  -33.0346  -41.2996 H         1 UNK         0.0612 
@<TRIPOS>BOND
     1    1    2 1    
     2    1   62 1    
     3    1   63 1    
     4    1   64 1    
     5    2    3 2    
     6    2    4 am   BACKBONE|DICT|INTERRES
     7    4    5 1    
     8    4   65 1    
     9    5    6 1    
    10    5   25 1    
    11    5   66 1    
    12    6    7 1    
    13    6   67 1    
    14    6   68 1    
    15    7    8 1    
    16    8    9 1    
    17    8   69 1    
    18    8   70 1    
    19    9   10 ar   
    20    9   14 ar   
    21   10   11 ar   
    22   10   71 1    
    23   11   12 ar   
    24   11   61 1    
    25   12   13 ar   
    26   12   72 1    
    27   13   14 ar   
    28   13   15 1    
    29   14   73 1    
    30   15   16 1    
    31   15   74 1    
    32   15   75 1    
    33   16   17 1    
    34   17   18 1    
    35   17   76 1    
    36   17   77 1    
    37   18   19 1    
    38   18   27 1    
    39   18   78 1    
    40   19   20 am   BACKBONE|DICT|INTERRES
    41   19   79 1    
    42   20   21 2    
    43   20   22 1    
    44   22   23 1    
    45   22   24 1    
    46   22   80 1    
    47   23   81 1    
    48   23   82 1    
    49   23   83 1    
    50   24   25 am   BACKBONE|DICT|INTERRES
    51   24   84 1    
    52   25   26 2    
    53   27   28 2    
    54   27   29 am   BACKBONE|DICT|INTERRES
    55   29   30 1    
    56   29   85 1    
    57   30   31 1    
    58   30   32 1    
    59   30   86 1    
    60   31   87 1    
    61   31   88 1    
    62   31   89 1    
    63   32   33 2    
    64   32   34 am   BACKBONE|DICT|INTERRES
    65   34   35 1    
    66   34   90 1    
    67   35   36 1    
    68   35   37 1    
    69   35   91 1    
    70   36   92 1    
    71   36   93 1    
    72   36   94 1    
    73   37   38 2    
    74   37   39 am   BACKBONE|DICT|INTERRES
    75   39   40 1    
    76   39   95 1    
    77   40   41 1    
    78   40   42 1    
    79   40   96 1    
    80   41   97 1    
    81   41   98 1    
    82   41   99 1    
    83   42   43 2    
    84   42   44 am   BACKBONE|DICT|INTERRES
    85   44   45 1    
    86   44  100 1    
    87   45   46 1    
    88   45   47 1    
    89   45  101 1    
    90   46  102 1    
    91   46  103 1    
    92   46  104 1    
    93   47   48 2    
    94   47   49 am   BACKBONE|DICT|INTERRES
    95   49   50 1    
    96   49  105 1    
    97   50   51 1    
    98   50   52 1    
    99   50  106 1    
   100   51  107 1    
   101   51  108 1    
   102   51  109 1    
   103   52   53 2    
   104   52   54 am   BACKBONE|DICT|INTERRES
   105   54   55 1    
   106   54  110 1    
   107   55   56 1    
   108   55   59 1    
   109   55  111 1    
   110   56   57 am   BACKBONE|DICT|INTERRES
   111   56   58 2    
   112   57  112 1    
   113   57  113 1    
   114   59   60 1    
   115   59  114 1    
   116   59  115 1    
   117   60   61 1    
   118   61  116 1    
   119   61  117 1    
@<TRIPOS>SUBSTRUCTURE
     1 UNK         1 GROUP             0       ****    0 ROOT    
