@<TRIPOS>MOLECULE
3R8
117   119    1
SMALL
USER_CHARGES


@<TRIPOS>ATOM
      1 CA         13.8660  -26.3611  -47.3550 C.3       0 UNK        -0.2013 
      2 C          15.0651  -26.5830  -46.4464 C.2       0 UNK         0.4866 
      3 O          15.8767  -27.4725  -46.7061 O.2       0 UNK        -0.5176 
      4 N          15.1931  -25.7785  -45.3840 N.am      1 UNK        -0.4884 
      5 CA         16.2714  -25.8436  -44.3908 C.3       1 UNK         0.0853 
      6 C6         15.8305  -25.2439  -43.0292 C.3       10 UNK        -0.0849 
      7 S7         14.5365  -26.1714  -42.1208 S.3       10 UNK        -0.2776 
      8 C8         14.9338  -27.9508  -42.3414 C.3       10 UNK         0.0316 
      9 C9         16.3781  -28.3700  -42.0450 C.ar      10 UNK        -0.0863 
     10 C10        16.8819  -29.5227  -42.6596 C.ar      10 UNK        -0.1009 
     11 C11        18.2141  -29.9078  -42.4775 C.ar      10 UNK        -0.0712 
     12 C12        19.0500  -29.1313  -41.6723 C.ar      10 UNK        -0.0894 
     13 C13        18.5675  -27.9727  -41.0641 C.ar      10 UNK        -0.0745 
     14 C14        17.2240  -27.6216  -41.2167 C.ar      10 UNK        -0.0972 
     15 C15        19.5088  -27.0574  -40.3017 C.3       10 UNK         0.0209 
     16 S16        20.1597  -25.7606  -41.4076 S.3       10 UNK        -0.2568 
     17 C17        21.6205  -26.5625  -42.1532 C.3       10 UNK        -0.0983 
     18 CA         21.3871  -27.1974  -43.5482 C.3       3 UNK         0.0876 
     19 N          20.7778  -26.2706  -44.5091 N.am      3 UNK        -0.4424 
     20 C          20.3689  -26.6023  -45.7425 C.2       2 UNK         0.4918 
     21 O          20.5707  -27.6970  -46.2699 O.2       2 UNK        -0.4875 
     22 CA         19.4891  -25.5689  -46.4623 C.3       2 UNK         0.0481 
     23 CB         19.5354  -25.7191  -47.9934 C.3       2 UNK        -0.1831 
     24 N          18.1183  -25.7750  -46.0017 N.am      2 UNK        -0.4498 
     25 C          17.5846  -25.2156  -44.9103 C.2       1 UNK         0.5027 
     26 O          18.1068  -24.2720  -44.3134 O.2       1 UNK        -0.4969 
     27 C          22.6914  -27.8449  -44.0524 C.2       3 UNK         0.5005 
     28 O          22.8592  -29.0573  -43.9132 O.2       3 UNK        -0.5279 
     29 N          23.5931  -27.0231  -44.6117 N.am      4 UNK        -0.4463 
     30 CA         24.9115  -27.3474  -45.1846 C.3       4 UNK         0.0283 
     31 CB         24.7757  -28.2896  -46.3963 C.3       4 UNK        -0.1875 
     32 C          25.9588  -27.8846  -44.1863 C.2       4 UNK         0.4949 
     33 O          27.1107  -27.4540  -44.2405 O.2       4 UNK        -0.5039 
     34 N          25.5514  -28.7936  -43.2957 N.am      5 UNK        -0.4663 
     35 CA         26.3717  -29.4278  -42.2617 C.3       5 UNK         0.0242 
     36 CB         26.7419  -30.8555  -42.7070 C.3       5 UNK        -0.1982 
     37 C          25.6426  -29.4037  -40.9078 C.2       5 UNK         0.5017 
     38 O          25.7691  -30.3468  -40.1250 O.2       5 UNK        -0.5012 
     39 N          24.8818  -28.3265  -40.6601 N.am      6 UNK        -0.4439 
     40 CA         24.0347  -28.1002  -39.4830 C.3       6 UNK         0.0297 
     41 CB         24.9014  -27.9075  -38.2166 C.3       6 UNK        -0.2006 
     42 C          22.9456  -29.1859  -39.3435 C.2       6 UNK         0.4892 
     43 O          22.4261  -29.6580  -40.3569 O.2       6 UNK        -0.5089 
     44 N          22.6147  -29.5665  -38.1025 N.am      7 UNK        -0.4243 
     45 CA         21.5820  -30.5510  -37.7585 C.3       7 UNK         0.0196 
     46 CB         21.3865  -30.5519  -36.2333 C.3       7 UNK        -0.2007 
     47 C          21.8462  -31.9814  -38.2706 C.2       7 UNK         0.5020 
     48 O          20.9207  -32.7931  -38.2696 O.2       7 UNK        -0.5147 
     49 N          23.0819  -32.2749  -38.7016 N.am      8 UNK        -0.4734 
     50 CA         23.4489  -33.5373  -39.3487 C.3       8 UNK         0.0238 
     51 CB         24.9767  -33.7050  -39.3125 C.3       8 UNK        -0.1912 
     52 C          22.9260  -33.6546  -40.7938 C.2       8 UNK         0.5038 
     53 O          22.8419  -34.7778  -41.2907 O.2       8 UNK        -0.5046 
     54 N          22.5810  -32.5172  -41.4185 N.am      9 UNK        -0.4200 
     55 CA         22.0797  -32.3580  -42.7919 C.3       9 UNK         0.0839 
     56 C          23.1498  -32.7011  -43.8619 C.2       9 UNK         0.5513 
     57 N          23.6490  -31.7007  -44.5724 N.am      9 UNK        -0.7519 
     58 O          23.4947  -33.8574  -44.0911 O.2       9 UNK        -0.4960 
     59 C59        20.7363  -33.0938  -43.0585 C.3       10 UNK        -0.0876 
     60 S60        19.3776  -32.3942  -42.0636 S.3       10 UNK        -0.2414 
     61 C61        18.7827  -31.1118  -43.2109 C.3       10 UNK         0.0169 
     62 H62        14.1996  -26.1202  -48.3639 H         1 UNK         0.0903 
     63 H63        13.2603  -27.2657  -47.4030 H         1 UNK         0.0903 
     64 H64        13.2323  -25.5472  -47.0032 H         1 UNK         0.0903 
     65 H65        14.5056  -25.0544  -45.2284 H         1 UNK         0.3096 
     66 H66        16.5243  -26.8918  -44.2357 H         1 UNK         0.1121 
     67 H67        16.6850  -25.1530  -42.3569 H         1 UNK         0.0849 
     68 H68        15.4743  -24.2220  -43.1710 H         1 UNK         0.0849 
     69 H69        14.6737  -28.2271  -43.3647 H         1 UNK         0.0865 
     70 H70        14.2716  -28.5301  -41.6968 H         1 UNK         0.0865 
     71 H71        16.2418  -30.1082  -43.3060 H         1 UNK         0.1346 
     72 H72        20.0887  -29.4102  -41.5538 H         1 UNK         0.1412 
     73 H73        16.8590  -26.7313  -40.7253 H         1 UNK         0.1426 
     74 H74        20.3226  -27.6234  -39.8471 H         1 UNK         0.0716 
     75 H75        18.9729  -26.5818  -39.4789 H         1 UNK         0.0716 
     76 H76        21.9872  -27.3189  -41.4624 H         1 UNK         0.0695 
     77 H77        22.4043  -25.8047  -42.2081 H         1 UNK         0.0695 
     78 H78        20.6749  -28.0136  -43.4348 H         1 UNK         0.0983 
     79 H79        20.5076  -25.3692  -44.1391 H         1 UNK         0.3095 
     80 H80        19.8362  -24.5653  -46.2074 H         1 UNK         0.0454 
     81 H81        18.9303  -24.9558  -48.4825 H         1 UNK         0.0851 
     82 H82        19.1695  -26.6933  -48.3206 H         1 UNK         0.0851 
     83 H83        20.5555  -25.6118  -48.3640 H         1 UNK         0.0851 
     84 H84        17.6028  -26.5409  -46.4272 H         1 UNK         0.2976 
     85 H85        23.3467  -26.0433  -44.6516 H         1 UNK         0.3116 
     86 H86        25.3031  -26.3996  -45.5579 H         1 UNK         0.0646 
     87 H87        25.7419  -28.4462  -46.8776 H         1 UNK         0.0847 
     88 H88        24.1028  -27.8751  -47.1469 H         1 UNK         0.0847 
     89 H89        24.3944  -29.2703  -46.1127 H         1 UNK         0.0847 
     90 H90        24.5732  -29.0767  -43.3387 H         1 UNK         0.3040 
     91 H91        27.2955  -28.8626  -42.1204 H         1 UNK         0.1015 
     92 H92        27.2350  -30.8536  -43.6790 H         1 UNK         0.0786 
     93 H93        25.8611  -31.4942  -42.7779 H         1 UNK         0.0786 
     94 H94        27.4265  -31.3225  -41.9978 H         1 UNK         0.0786 
     95 H95        24.8355  -27.6216  -41.3814 H         1 UNK         0.3172 
     96 H96        23.5084  -27.1619  -39.6607 H         1 UNK         0.0595 
     97 H97        25.3892  -28.8329  -37.9070 H         1 UNK         0.0839 
     98 H98        24.3080  -27.5451  -37.3764 H         1 UNK         0.0839 
     99 H99        25.6833  -27.1674  -38.3873 H         1 UNK         0.0839 
    100 H100       23.1030  -29.1404  -37.3282 H         1 UNK         0.2998 
    101 H101       20.6502  -30.2202  -38.2228 H         1 UNK         0.0822 
    102 H102       21.0989  -29.5658  -35.8680 H         1 UNK         0.0787 
    103 H103       20.5966  -31.2450  -35.9400 H         1 UNK         0.0787 
    104 H104       22.2951  -30.8542  -35.7109 H         1 UNK         0.0787 
    105 H105       23.7866  -31.5500  -38.6828 H         1 UNK         0.3055 
    106 H106       23.0046  -34.3560  -38.7776 H         1 UNK         0.1106 
    107 H107       25.2699  -34.6757  -39.7146 H         1 UNK         0.0828 
    108 H108       25.4818  -32.9444  -39.9081 H         1 UNK         0.0828 
    109 H109       25.3615  -33.6476  -38.2943 H         1 UNK         0.0828 
    110 H110       22.6774  -31.6463  -40.9078 H         1 UNK         0.2931 
    111 H111       21.8736  -31.2903  -42.8770 H         1 UNK         0.0412 
    112 H112       23.3390  -30.7463  -44.4010 H         1 UNK         0.3472 
    113 H113       24.3285  -31.8942  -45.2899 H         1 UNK         0.3472 
    114 H114       20.4637  -33.0326  -44.1139 H         1 UNK         0.0970 
    115 H115       20.8216  -34.1591  -42.8407 H         1 UNK         0.0970 
    116 H116       19.6035  -30.7643  -43.8405 H         1 UNK         0.0612 
    117 H117       18.0434  -31.5524  -43.8815 H         1 UNK         0.0612 
@<TRIPOS>BOND
     1    1    2 1    
     2    1   62 1    
     3    1   63 1    
     4    1   64 1    
     5    2    3 2    
     6    2    4 am   BACKBONE|DICT|INTERRES
     7    4    5 1    
     8    4   65 1    
     9    5    6 1    
    10    5   25 1    
    11    5   66 1    
    12    6    7 1    
    13    6   67 1    
    14    6   68 1    
    15    7    8 1    
    16    8    9 1    
    17    8   69 1    
    18    8   70 1    
    19    9   10 ar   
    20    9   14 ar   
    21   10   11 ar   
    22   10   71 1    
    23   11   12 ar   
    24   11   61 1    
    25   12   13 ar   
    26   12   72 1    
    27   13   14 ar   
    28   13   15 1    
    29   14   73 1    
    30   15   16 1    
    31   15   74 1    
    32   15   75 1    
    33   16   17 1    
    34   17   18 1    
    35   17   76 1    
    36   17   77 1    
    37   18   19 1    
    38   18   27 1    
    39   18   78 1    
    40   19   20 am   BACKBONE|DICT|INTERRES
    41   19   79 1    
    42   20   21 2    
    43   20   22 1    
    44   22   23 1    
    45   22   24 1    
    46   22   80 1    
    47   23   81 1    
    48   23   82 1    
    49   23   83 1    
    50   24   25 am   BACKBONE|DICT|INTERRES
    51   24   84 1    
    52   25   26 2    
    53   27   28 2    
    54   27   29 am   BACKBONE|DICT|INTERRES
    55   29   30 1    
    56   29   85 1    
    57   30   31 1    
    58   30   32 1    
    59   30   86 1    
    60   31   87 1    
    61   31   88 1    
    62   31   89 1    
    63   32   33 2    
    64   32   34 am   BACKBONE|DICT|INTERRES
    65   34   35 1    
    66   34   90 1    
    67   35   36 1    
    68   35   37 1    
    69   35   91 1    
    70   36   92 1    
    71   36   93 1    
    72   36   94 1    
    73   37   38 2    
    74   37   39 am   BACKBONE|DICT|INTERRES
    75   39   40 1    
    76   39   95 1    
    77   40   41 1    
    78   40   42 1    
    79   40   96 1    
    80   41   97 1    
    81   41   98 1    
    82   41   99 1    
    83   42   43 2    
    84   42   44 am   BACKBONE|DICT|INTERRES
    85   44   45 1    
    86   44  100 1    
    87   45   46 1    
    88   45   47 1    
    89   45  101 1    
    90   46  102 1    
    91   46  103 1    
    92   46  104 1    
    93   47   48 2    
    94   47   49 am   BACKBONE|DICT|INTERRES
    95   49   50 1    
    96   49  105 1    
    97   50   51 1    
    98   50   52 1    
    99   50  106 1    
   100   51  107 1    
   101   51  108 1    
   102   51  109 1    
   103   52   53 2    
   104   52   54 am   BACKBONE|DICT|INTERRES
   105   54   55 1    
   106   54  110 1    
   107   55   56 1    
   108   55   59 1    
   109   55  111 1    
   110   56   57 am   BACKBONE|DICT|INTERRES
   111   56   58 2    
   112   57  112 1    
   113   57  113 1    
   114   59   60 1    
   115   59  114 1    
   116   59  115 1    
   117   60   61 1    
   118   61  116 1    
   119   61  117 1    
@<TRIPOS>SUBSTRUCTURE
     1 UNK         1 GROUP             0       ****    0 ROOT    
