@<TRIPOS>MOLECULE
3R8
117   119    1
SMALL
USER_CHARGES


@<TRIPOS>ATOM
      1 CA         14.8383  -25.4453  -40.5017 C.3       0 UNK        -0.2013 
      2 C          15.7188  -26.2454  -41.4501 C.2       0 UNK         0.4866 
      3 O          15.2038  -27.0195  -42.2574 O.2       0 UNK        -0.5176 
      4 N          17.0428  -26.0717  -41.3539 N.am      1 UNK        -0.4884 
      5 CA         18.0362  -26.7201  -42.2139 C.3       1 UNK         0.0853 
      6 C6         19.4689  -26.5608  -41.6498 C.3       10 UNK        -0.0849 
      7 S7         19.7903  -27.7829  -40.3411 S.3       10 UNK        -0.2776 
      8 C8         21.0386  -28.8355  -41.1522 C.3       10 UNK         0.0316 
      9 C9         20.5788  -29.4482  -42.4738 C.ar      10 UNK        -0.0863 
     10 C10        19.3534  -30.1132  -42.5698 C.ar      10 UNK        -0.1009 
     11 C11        18.9747  -30.7374  -43.7617 C.ar      10 UNK        -0.0712 
     12 C12        19.8357  -30.7061  -44.8623 C.ar      10 UNK        -0.0894 
     13 C13        21.0750  -30.0675  -44.7747 C.ar      10 UNK        -0.0745 
     14 C14        21.4225  -29.4114  -43.5889 C.ar      10 UNK        -0.0972 
     15 C15        22.0760  -30.1910  -45.9195 C.3       10 UNK         0.0209 
     16 S16        21.8762  -28.9205  -47.2065 S.3       10 UNK        -0.2568 
     17 C17        22.5613  -27.4507  -46.3677 C.3       10 UNK        -0.0983 
     18 CA         21.5919  -26.2389  -46.3407 C.3       3 UNK         0.0876 
     19 N          20.2243  -26.6334  -45.9861 N.am      3 UNK        -0.4424 
     20 C          19.1127  -26.1769  -46.5756 C.2       2 UNK         0.4918 
     21 O          19.1007  -25.3292  -47.4678 O.2       2 UNK        -0.4875 
     22 CA         17.7829  -26.7532  -46.0588 C.3       2 UNK         0.0481 
     23 CB         17.4093  -28.0179  -46.8484 C.3       2 UNK        -0.1831 
     24 N          17.8076  -27.0682  -44.6271 N.am      2 UNK        -0.4498 
     25 C          17.9648  -26.1673  -43.6467 C.2       1 UNK         0.5027 
     26 O          18.1114  -24.9579  -43.8371 O.2       1 UNK        -0.4969 
     27 C          22.1327  -25.1427  -45.3959 C.2       3 UNK         0.5005 
     28 O          23.3300  -24.8573  -45.4341 O.2       3 UNK        -0.5279 
     29 N          21.2746  -24.5924  -44.5214 N.am      4 UNK        -0.4463 
     30 CA         21.5493  -23.6569  -43.4203 C.3       4 UNK         0.0283 
     31 CB         22.2227  -22.3593  -43.9083 C.3       4 UNK        -0.1875 
     32 C          22.3170  -24.2772  -42.2367 C.2       4 UNK         0.4949 
     33 O          21.9770  -23.9754  -41.0930 O.2       4 UNK        -0.5039 
     34 N          23.2996  -25.1450  -42.5048 N.am      5 UNK        -0.4663 
     35 CA         24.0577  -25.8935  -41.5047 C.3       5 UNK         0.0242 
     36 CB         25.1807  -25.0148  -40.9236 C.3       5 UNK        -0.1982 
     37 C          24.6352  -27.1671  -42.1353 C.2       5 UNK         0.5017 
     38 O          25.0394  -27.1374  -43.2987 O.2       5 UNK        -0.5012 
     39 N          24.6821  -28.2389  -41.3370 N.am      6 UNK        -0.4439 
     40 CA         25.2667  -29.5601  -41.5775 C.3       6 UNK         0.0297 
     41 CB         24.6997  -30.2585  -42.8345 C.3       6 UNK        -0.2006 
     42 C          24.9833  -30.3972  -40.3187 C.2       6 UNK         0.4892 
     43 O          24.4268  -29.8730  -39.3473 O.2       6 UNK        -0.5089 
     44 N          25.3350  -31.6882  -40.3591 N.am      7 UNK        -0.4243 
     45 CA         25.1193  -32.6667  -39.2887 C.3       7 UNK         0.0196 
     46 CB         26.0743  -33.8556  -39.5077 C.3       7 UNK        -0.2007 
     47 C          23.6446  -33.1091  -39.1626 C.2       7 UNK         0.5020 
     48 O          23.3408  -34.2913  -39.3284 O.2       7 UNK        -0.5147 
     49 N          22.7562  -32.1471  -38.8738 N.am      8 UNK        -0.4734 
     50 CA         21.3331  -32.3039  -38.5308 C.3       8 UNK         0.0238 
     51 CB         21.2049  -32.8696  -37.1003 C.3       8 UNK        -0.1912 
     52 C          20.5079  -33.1097  -39.5574 C.2       8 UNK         0.5038 
     53 O          19.6625  -33.9170  -39.1662 O.2       8 UNK        -0.5046 
     54 N          20.7735  -32.8787  -40.8501 N.am      9 UNK        -0.4200 
     55 CA         20.1732  -33.5889  -41.9937 C.3       9 UNK         0.0839 
     56 C          20.6803  -35.0529  -42.1866 C.2       9 UNK         0.5513 
     57 N          21.7073  -35.5075  -41.4772 N.am      9 UNK        -0.7519 
     58 O          20.1559  -35.7899  -43.0172 O.2       9 UNK        -0.4960 
     59 C59        18.6162  -33.4657  -42.0292 C.3       10 UNK        -0.0876 
     60 S60        17.9389  -33.3010  -43.7184 S.3       10 UNK        -0.2414 
     61 C61        17.6645  -31.5039  -43.8424 C.3       10 UNK         0.0169 
     62 H62        14.2404  -26.1182  -39.8875 H         1 UNK         0.0903 
     63 H63        15.4247  -24.8110  -39.8372 H         1 UNK         0.0903 
     64 H64        14.1601  -24.8076  -41.0681 H         1 UNK         0.0903 
     65 H65        17.4100  -25.4165  -40.6786 H         1 UNK         0.3096 
     66 H66        17.7880  -27.7827  -42.2556 H         1 UNK         0.1121 
     67 H67        20.2261  -26.6789  -42.4276 H         1 UNK         0.0849 
     68 H68        19.6215  -25.5582  -41.2463 H         1 UNK         0.0849 
     69 H69        21.9334  -28.2344  -41.3031 H         1 UNK         0.0865 
     70 H70        21.3214  -29.6379  -40.4704 H         1 UNK         0.0865 
     71 H71        18.7055  -30.1669  -41.7056 H         1 UNK         0.1346 
     72 H72        19.5619  -31.2262  -45.7703 H         1 UNK         0.1412 
     73 H73        22.3795  -28.9173  -43.5133 H         1 UNK         0.1426 
     74 H74        21.9666  -31.1704  -46.3876 H         1 UNK         0.0716 
     75 H75        23.0974  -30.1619  -45.5379 H         1 UNK         0.0716 
     76 H76        23.4823  -27.1767  -46.8857 H         1 UNK         0.0695 
     77 H77        22.8701  -27.7214  -45.3582 H         1 UNK         0.0695 
     78 H78        21.5889  -25.8050  -47.3431 H         1 UNK         0.0983 
     79 H79        20.1382  -27.3635  -45.2943 H         1 UNK         0.3095 
     80 H80        17.0067  -26.0029  -46.2232 H         1 UNK         0.0454 
     81 H81        17.3550  -27.8077  -47.9175 H         1 UNK         0.0851 
     82 H82        16.4353  -28.4031  -46.5466 H         1 UNK         0.0851 
     83 H83        18.1434  -28.8133  -46.7113 H         1 UNK         0.0851 
     84 H84        17.6932  -28.0414  -44.3811 H         1 UNK         0.2976 
     85 H85        20.3078  -24.8862  -44.5852 H         1 UNK         0.3116 
     86 H86        20.5657  -23.3812  -43.0358 H         1 UNK         0.0646 
     87 H87        23.2397  -22.5305  -44.2617 H         1 UNK         0.0847 
     88 H88        22.2843  -21.6297  -43.0999 H         1 UNK         0.0847 
     89 H89        21.6577  -21.8984  -44.7183 H         1 UNK         0.0847 
     90 H90        23.5457  -25.3275  -43.4749 H         1 UNK         0.3040 
     91 H91        23.3793  -26.1830  -40.6983 H         1 UNK         0.1015 
     92 H92        25.8659  -24.6748  -41.7012 H         1 UNK         0.0786 
     93 H93        25.7679  -25.5646  -40.1869 H         1 UNK         0.0786 
     94 H94        24.7795  -24.1335  -40.4228 H         1 UNK         0.0786 
     95 H95        24.3417  -28.1621  -40.3834 H         1 UNK         0.3172 
     96 H96        26.3461  -29.4372  -41.6803 H         1 UNK         0.0595 
     97 H97        23.6822  -30.6132  -42.6745 H         1 UNK         0.0839 
     98 H98        25.2980  -31.1319  -43.0947 H         1 UNK         0.0839 
     99 H99        24.7075  -29.6171  -43.7139 H         1 UNK         0.0839 
    100 H100       25.7605  -32.0426  -41.2035 H         1 UNK         0.2998 
    101 H101       25.3901  -32.2007  -38.3386 H         1 UNK         0.0822 
    102 H102       27.1155  -33.5324  -39.5180 H         1 UNK         0.0787 
    103 H103       25.9744  -34.5901  -38.7072 H         1 UNK         0.0787 
    104 H104       25.8719  -34.3692  -40.4485 H         1 UNK         0.0787 
    105 H105       23.1268  -31.2009  -38.8199 H         1 UNK         0.3055 
    106 H106       20.9021  -31.3013  -38.5256 H         1 UNK         0.1106 
    107 H107       20.1642  -32.8858  -36.7740 H         1 UNK         0.0828 
    108 H108       21.5829  -33.8907  -37.0368 H         1 UNK         0.0828 
    109 H109       21.7563  -32.2628  -36.3821 H         1 UNK         0.0828 
    110 H110       21.5047  -32.2228  -41.0795 H         1 UNK         0.2931 
    111 H111       20.5675  -33.0509  -42.8565 H         1 UNK         0.0412 
    112 H112       22.1577  -34.9389  -40.7672 H         1 UNK         0.3472 
    113 H113       22.0228  -36.4524  -41.6280 H         1 UNK         0.3472 
    114 H114       18.1478  -34.3241  -41.5441 H         1 UNK         0.0970 
    115 H115       18.2852  -32.6030  -41.4506 H         1 UNK         0.0970 
    116 H116       17.1725  -31.2852  -44.7913 H         1 UNK         0.0612 
    117 H117       16.9762  -31.1845  -43.0583 H         1 UNK         0.0612 
@<TRIPOS>BOND
     1    1    2 1    
     2    1   62 1    
     3    1   63 1    
     4    1   64 1    
     5    2    3 2    
     6    2    4 am   BACKBONE|DICT|INTERRES
     7    4    5 1    
     8    4   65 1    
     9    5    6 1    
    10    5   25 1    
    11    5   66 1    
    12    6    7 1    
    13    6   67 1    
    14    6   68 1    
    15    7    8 1    
    16    8    9 1    
    17    8   69 1    
    18    8   70 1    
    19    9   10 ar   
    20    9   14 ar   
    21   10   11 ar   
    22   10   71 1    
    23   11   12 ar   
    24   11   61 1    
    25   12   13 ar   
    26   12   72 1    
    27   13   14 ar   
    28   13   15 1    
    29   14   73 1    
    30   15   16 1    
    31   15   74 1    
    32   15   75 1    
    33   16   17 1    
    34   17   18 1    
    35   17   76 1    
    36   17   77 1    
    37   18   19 1    
    38   18   27 1    
    39   18   78 1    
    40   19   20 am   BACKBONE|DICT|INTERRES
    41   19   79 1    
    42   20   21 2    
    43   20   22 1    
    44   22   23 1    
    45   22   24 1    
    46   22   80 1    
    47   23   81 1    
    48   23   82 1    
    49   23   83 1    
    50   24   25 am   BACKBONE|DICT|INTERRES
    51   24   84 1    
    52   25   26 2    
    53   27   28 2    
    54   27   29 am   BACKBONE|DICT|INTERRES
    55   29   30 1    
    56   29   85 1    
    57   30   31 1    
    58   30   32 1    
    59   30   86 1    
    60   31   87 1    
    61   31   88 1    
    62   31   89 1    
    63   32   33 2    
    64   32   34 am   BACKBONE|DICT|INTERRES
    65   34   35 1    
    66   34   90 1    
    67   35   36 1    
    68   35   37 1    
    69   35   91 1    
    70   36   92 1    
    71   36   93 1    
    72   36   94 1    
    73   37   38 2    
    74   37   39 am   BACKBONE|DICT|INTERRES
    75   39   40 1    
    76   39   95 1    
    77   40   41 1    
    78   40   42 1    
    79   40   96 1    
    80   41   97 1    
    81   41   98 1    
    82   41   99 1    
    83   42   43 2    
    84   42   44 am   BACKBONE|DICT|INTERRES
    85   44   45 1    
    86   44  100 1    
    87   45   46 1    
    88   45   47 1    
    89   45  101 1    
    90   46  102 1    
    91   46  103 1    
    92   46  104 1    
    93   47   48 2    
    94   47   49 am   BACKBONE|DICT|INTERRES
    95   49   50 1    
    96   49  105 1    
    97   50   51 1    
    98   50   52 1    
    99   50  106 1    
   100   51  107 1    
   101   51  108 1    
   102   51  109 1    
   103   52   53 2    
   104   52   54 am   BACKBONE|DICT|INTERRES
   105   54   55 1    
   106   54  110 1    
   107   55   56 1    
   108   55   59 1    
   109   55  111 1    
   110   56   57 am   BACKBONE|DICT|INTERRES
   111   56   58 2    
   112   57  112 1    
   113   57  113 1    
   114   59   60 1    
   115   59  114 1    
   116   59  115 1    
   117   60   61 1    
   118   61  116 1    
   119   61  117 1    
@<TRIPOS>SUBSTRUCTURE
     1 UNK         1 GROUP             0       ****    0 ROOT    
