@<TRIPOS>MOLECULE
3R8
117   119    1
SMALL
USER_CHARGES


@<TRIPOS>ATOM
      1 CA         15.2975  -27.3936  -39.3204 C.3       0 UNK        -0.2013 
      2 C          15.3145  -26.8097  -40.7250 C.2       0 UNK         0.4866 
      3 O          14.5916  -25.8510  -40.9978 O.2       0 UNK        -0.5176 
      4 N          16.1365  -27.3751  -41.6172 N.am      1 UNK        -0.4884 
      5 CA         16.2933  -26.9227  -43.0063 C.3       1 UNK         0.0853 
      6 C6         16.8186  -28.0536  -43.9247 C.3       10 UNK        -0.0849 
      7 S7         15.6677  -29.4634  -44.0535 S.3       10 UNK        -0.2776 
      8 C8         15.9458  -30.0017  -45.7762 C.3       10 UNK         0.0316 
      9 C9         17.3985  -30.3926  -46.0123 C.ar      10 UNK        -0.0863 
     10 C10        17.9127  -31.5501  -45.4235 C.ar      10 UNK        -0.1009 
     11 C11        19.2677  -31.8681  -45.5501 C.ar      10 UNK        -0.0712 
     12 C12        20.0947  -31.0580  -46.3309 C.ar      10 UNK        -0.0894 
     13 C13        19.5965  -29.8909  -46.9158 C.ar      10 UNK        -0.0745 
     14 C14        18.2432  -29.5701  -46.7649 C.ar      10 UNK        -0.0972 
     15 C15        20.5371  -28.9346  -47.6408 C.3       10 UNK         0.0209 
     16 S16        21.8697  -28.3072  -46.5553 S.3       10 UNK        -0.2568 
     17 C17        20.9521  -27.8216  -45.0520 C.3       10 UNK        -0.0983 
     18 CA         21.4420  -26.5027  -44.4068 C.3       3 UNK         0.0876 
     19 N          20.4240  -26.0046  -43.4842 N.am      3 UNK        -0.4424 
     20 C          20.2588  -24.7341  -43.1002 C.2       2 UNK         0.4918 
     21 O          20.9236  -23.7942  -43.5393 O.2       2 UNK        -0.4875 
     22 CA         19.1608  -24.4868  -42.0409 C.3       2 UNK         0.0481 
     23 CB         18.6095  -23.0457  -42.0739 C.3       2 UNK        -0.1831 
     24 N          18.0734  -25.4777  -42.0961 N.am      2 UNK        -0.4498 
     25 C          17.2247  -25.6973  -43.1159 C.2       1 UNK         0.5027 
     26 O          17.1842  -25.0081  -44.1358 O.2       1 UNK        -0.4969 
     27 C          22.7719  -26.6964  -43.6500 C.2       3 UNK         0.5005 
     28 O          22.7570  -26.9124  -42.4368 O.2       3 UNK        -0.5279 
     29 N          23.8946  -26.6471  -44.3783 N.am      4 UNK        -0.4463 
     30 CA         25.2358  -26.9108  -43.8440 C.3       4 UNK         0.0283 
     31 CB         26.2791  -26.2629  -44.7693 C.3       4 UNK        -0.1875 
     32 C          25.5367  -28.4121  -43.6658 C.2       4 UNK         0.4949 
     33 O          26.4882  -28.7552  -42.9625 O.2       4 UNK        -0.5039 
     34 N          24.7525  -29.2783  -44.3226 N.am      5 UNK        -0.4663 
     35 CA         24.8658  -30.7353  -44.2474 C.3       5 UNK         0.0242 
     36 CB         23.9591  -31.3565  -45.3188 C.3       5 UNK        -0.1982 
     37 C          24.4772  -31.2692  -42.8592 C.2       5 UNK         0.5017 
     38 O          23.5553  -30.7318  -42.2423 O.2       5 UNK        -0.5012 
     39 N          25.1766  -32.3291  -42.4200 N.am      6 UNK        -0.4439 
     40 CA         24.9883  -33.0614  -41.1564 C.3       6 UNK         0.0297 
     41 CB         23.6881  -33.8911  -41.2131 C.3       6 UNK        -0.2006 
     42 C          25.0500  -32.1551  -39.9093 C.2       6 UNK         0.4892 
     43 O          24.2644  -32.3378  -38.9769 O.2       6 UNK        -0.5089 
     44 N          25.9439  -31.1545  -39.9499 N.am      7 UNK        -0.4243 
     45 CA         26.0473  -29.9828  -39.0674 C.3       7 UNK         0.0196 
     46 CB         26.2604  -30.3666  -37.5889 C.3       7 UNK        -0.2007 
     47 C          24.8662  -29.0120  -39.2512 C.2       7 UNK         0.5020 
     48 O          25.0954  -27.8393  -39.5466 O.2       7 UNK        -0.5147 
     49 N          23.6393  -29.5249  -39.1154 N.am      8 UNK        -0.4734 
     50 CA         22.3902  -28.8751  -39.4907 C.3       8 UNK         0.0238 
     51 CB         22.0310  -27.7394  -38.5103 C.3       8 UNK        -0.1912 
     52 C          21.2855  -29.9359  -39.5466 C.2       8 UNK         0.5038 
     53 O          20.8682  -30.4157  -38.4900 O.2       8 UNK        -0.5046 
     54 N          20.8238  -30.2784  -40.7568 N.am      9 UNK        -0.4200 
     55 CA         19.6225  -31.0982  -40.9858 C.3       9 UNK         0.0839 
     56 C          18.3470  -30.4171  -40.4167 C.2       9 UNK         0.5513 
     57 N          17.5127  -31.1548  -39.6980 N.am      9 UNK        -0.7519 
     58 O          18.0876  -29.2418  -40.6710 O.2       9 UNK        -0.4960 
     59 C59        19.4007  -31.4076  -42.4870 C.3       10 UNK        -0.0876 
     60 S60        20.7009  -32.4356  -43.2502 S.3       10 UNK        -0.2414 
     61 C61        19.8572  -33.0266  -44.7597 C.3       10 UNK         0.0169 
     62 H62        15.5412  -26.6224  -38.5903 H         1 UNK         0.0903 
     63 H63        14.3066  -27.7827  -39.0882 H         1 UNK         0.0903 
     64 H64        16.0159  -28.2048  -39.2070 H         1 UNK         0.0903 
     65 H65        16.7308  -28.1526  -41.3327 H         1 UNK         0.3096 
     66 H66        15.3172  -26.6081  -43.3832 H         1 UNK         0.1121 
     67 H67        17.7811  -28.4285  -43.5714 H         1 UNK         0.0849 
     68 H68        16.9936  -27.6651  -44.9300 H         1 UNK         0.0849 
     69 H69        15.6388  -29.2073  -46.4584 H         1 UNK         0.0865 
     70 H70        15.3013  -30.8552  -45.9916 H         1 UNK         0.0865 
     71 H71        17.2686  -32.1668  -44.8115 H         1 UNK         0.1346 
     72 H72        21.1427  -31.2976  -46.4292 H         1 UNK         0.1412 
     73 H73        17.8561  -28.6590  -47.2004 H         1 UNK         0.1426 
     74 H74        19.9872  -28.0830  -48.0443 H         1 UNK         0.0716 
     75 H75        20.9839  -29.4463  -48.4941 H         1 UNK         0.0716 
     76 H76        20.9771  -28.6499  -44.3403 H         1 UNK         0.0695 
     77 H77        19.9041  -27.7010  -45.3299 H         1 UNK         0.0695 
     78 H78        21.5883  -25.7547  -45.1896 H         1 UNK         0.0983 
     79 H79        19.8740  -26.7076  -43.0167 H         1 UNK         0.3095 
     80 H80        19.6440  -24.6281  -41.0731 H         1 UNK         0.0454 
     81 H81        18.1830  -22.7946  -43.0453 H         1 UNK         0.0851 
     82 H82        19.3993  -22.3211  -41.8721 H         1 UNK         0.0851 
     83 H83        17.8369  -22.8986  -41.3195 H         1 UNK         0.0851 
     84 H84        18.0050  -26.1016  -41.3033 H         1 UNK         0.2976 
     85 H85        23.8245  -26.4822  -45.3732 H         1 UNK         0.3116 
     86 H86        25.3191  -26.4443  -42.8597 H         1 UNK         0.0646 
     87 H87        26.2505  -26.6888  -45.7730 H         1 UNK         0.0847 
     88 H88        27.2884  -26.4107  -44.3825 H         1 UNK         0.0847 
     89 H89        26.1223  -25.1874  -44.8543 H         1 UNK         0.0847 
     90 H90        23.9739  -28.9123  -44.8510 H         1 UNK         0.3040 
     91 H91        25.9028  -31.0043  -44.4600 H         1 UNK         0.1015 
     92 H92        22.9139  -31.1213  -45.1207 H         1 UNK         0.0786 
     93 H93        24.0513  -32.4433  -45.3321 H         1 UNK         0.0786 
     94 H94        24.2058  -30.9939  -46.3169 H         1 UNK         0.0786 
     95 H95        25.9144  -32.6843  -43.0134 H         1 UNK         0.3172 
     96 H96        25.8243  -33.7571  -41.0722 H         1 UNK         0.0595 
     97 H97        23.6053  -34.5507  -40.3485 H         1 UNK         0.0839 
     98 H98        23.6512  -34.5178  -42.1039 H         1 UNK         0.0839 
     99 H99        22.8053  -33.2504  -41.2176 H         1 UNK         0.0839 
    100 H100       26.5079  -31.0941  -40.7867 H         1 UNK         0.2998 
    101 H101       26.9428  -29.4515  -39.3949 H         1 UNK         0.0822 
    102 H102       26.4590  -29.4791  -36.9868 H         1 UNK         0.0787 
    103 H103       25.3880  -30.8568  -37.1567 H         1 UNK         0.0787 
    104 H104       27.1131  -31.0354  -37.4724 H         1 UNK         0.0787 
    105 H105       23.5701  -30.5172  -38.8990 H         1 UNK         0.3055 
    106 H106       22.5154  -28.4529  -40.4877 H         1 UNK         0.1106 
    107 H107       21.0570  -27.3123  -38.7523 H         1 UNK         0.0828 
    108 H108       21.9866  -28.0950  -37.4804 H         1 UNK         0.0828 
    109 H109       22.7559  -26.9270  -38.5539 H         1 UNK         0.0828 
    110 H110       21.2883  -29.9219  -41.5800 H         1 UNK         0.2931 
    111 H111       19.7736  -32.0450  -40.4632 H         1 UNK         0.0412 
    112 H112       17.7180  -32.1207  -39.4940 H         1 UNK         0.3472 
    113 H113       16.6704  -30.7371  -39.3366 H         1 UNK         0.3472 
    114 H114       19.3132  -30.4801  -43.0565 H         1 UNK         0.0970 
    115 H115       18.4533  -31.9345  -42.6164 H         1 UNK         0.0970 
    116 H116       20.5713  -33.5728  -45.3776 H         1 UNK         0.0612 
    117 H117       19.0788  -33.7386  -44.4813 H         1 UNK         0.0612 
@<TRIPOS>BOND
     1    1    2 1    
     2    1   62 1    
     3    1   63 1    
     4    1   64 1    
     5    2    3 2    
     6    2    4 am   BACKBONE|DICT|INTERRES
     7    4    5 1    
     8    4   65 1    
     9    5    6 1    
    10    5   25 1    
    11    5   66 1    
    12    6    7 1    
    13    6   67 1    
    14    6   68 1    
    15    7    8 1    
    16    8    9 1    
    17    8   69 1    
    18    8   70 1    
    19    9   10 ar   
    20    9   14 ar   
    21   10   11 ar   
    22   10   71 1    
    23   11   12 ar   
    24   11   61 1    
    25   12   13 ar   
    26   12   72 1    
    27   13   14 ar   
    28   13   15 1    
    29   14   73 1    
    30   15   16 1    
    31   15   74 1    
    32   15   75 1    
    33   16   17 1    
    34   17   18 1    
    35   17   76 1    
    36   17   77 1    
    37   18   19 1    
    38   18   27 1    
    39   18   78 1    
    40   19   20 am   BACKBONE|DICT|INTERRES
    41   19   79 1    
    42   20   21 2    
    43   20   22 1    
    44   22   23 1    
    45   22   24 1    
    46   22   80 1    
    47   23   81 1    
    48   23   82 1    
    49   23   83 1    
    50   24   25 am   BACKBONE|DICT|INTERRES
    51   24   84 1    
    52   25   26 2    
    53   27   28 2    
    54   27   29 am   BACKBONE|DICT|INTERRES
    55   29   30 1    
    56   29   85 1    
    57   30   31 1    
    58   30   32 1    
    59   30   86 1    
    60   31   87 1    
    61   31   88 1    
    62   31   89 1    
    63   32   33 2    
    64   32   34 am   BACKBONE|DICT|INTERRES
    65   34   35 1    
    66   34   90 1    
    67   35   36 1    
    68   35   37 1    
    69   35   91 1    
    70   36   92 1    
    71   36   93 1    
    72   36   94 1    
    73   37   38 2    
    74   37   39 am   BACKBONE|DICT|INTERRES
    75   39   40 1    
    76   39   95 1    
    77   40   41 1    
    78   40   42 1    
    79   40   96 1    
    80   41   97 1    
    81   41   98 1    
    82   41   99 1    
    83   42   43 2    
    84   42   44 am   BACKBONE|DICT|INTERRES
    85   44   45 1    
    86   44  100 1    
    87   45   46 1    
    88   45   47 1    
    89   45  101 1    
    90   46  102 1    
    91   46  103 1    
    92   46  104 1    
    93   47   48 2    
    94   47   49 am   BACKBONE|DICT|INTERRES
    95   49   50 1    
    96   49  105 1    
    97   50   51 1    
    98   50   52 1    
    99   50  106 1    
   100   51  107 1    
   101   51  108 1    
   102   51  109 1    
   103   52   53 2    
   104   52   54 am   BACKBONE|DICT|INTERRES
   105   54   55 1    
   106   54  110 1    
   107   55   56 1    
   108   55   59 1    
   109   55  111 1    
   110   56   57 am   BACKBONE|DICT|INTERRES
   111   56   58 2    
   112   57  112 1    
   113   57  113 1    
   114   59   60 1    
   115   59  114 1    
   116   59  115 1    
   117   60   61 1    
   118   61  116 1    
   119   61  117 1    
@<TRIPOS>SUBSTRUCTURE
     1 UNK         1 GROUP             0       ****    0 ROOT    
