@<TRIPOS>MOLECULE
3R8
117   119    1
SMALL
USER_CHARGES


@<TRIPOS>ATOM
      1 CA         18.4415  -22.3590  -48.5376 C.3       0 UNK        -0.2013 
      2 C          19.3904  -23.2627  -47.7646 C.2       0 UNK         0.4866 
      3 O          20.5278  -23.4657  -48.1908 O.2       0 UNK        -0.5176 
      4 N          18.9357  -23.8023  -46.6308 N.am      1 UNK        -0.4884 
      5 CA         19.6931  -24.6874  -45.7477 C.3       1 UNK         0.0853 
      6 C6         19.8050  -26.1435  -46.2913 C.3       10 UNK        -0.0849 
      7 S7         18.1967  -26.9628  -46.5899 S.3       10 UNK        -0.2776 
      8 C8         18.7149  -28.6336  -47.1210 C.3       10 UNK         0.0316 
      9 C9         18.4409  -29.7560  -46.1164 C.ar      10 UNK        -0.0863 
     10 C10        19.2246  -30.9141  -46.1709 C.ar      10 UNK        -0.1009 
     11 C11        18.9572  -32.0041  -45.3365 C.ar      10 UNK        -0.0712 
     12 C12        17.9022  -31.9274  -44.4245 C.ar      10 UNK        -0.0894 
     13 C13        17.1083  -30.7801  -44.3532 C.ar      10 UNK        -0.0745 
     14 C14        17.3787  -29.7018  -45.2030 C.ar      10 UNK        -0.0972 
     15 C15        15.9222  -30.7321  -43.3989 C.3       10 UNK         0.0209 
     16 S16        16.0983  -29.4476  -42.1225 S.3       10 UNK        -0.2568 
     17 C17        17.4992  -30.0683  -41.1280 C.3       10 UNK        -0.0983 
     18 CA         18.8395  -29.3697  -41.4697 C.3       3 UNK         0.0876 
     19 N          18.7172  -27.9083  -41.5103 N.am      3 UNK        -0.4424 
     20 C          19.6693  -27.0776  -41.9467 C.2       2 UNK         0.4918 
     21 O          20.8042  -27.4301  -42.2811 O.2       2 UNK        -0.4875 
     22 CA         19.2819  -25.6030  -42.0715 C.3       2 UNK         0.0481 
     23 CB         19.9042  -24.7648  -40.9432 C.3       2 UNK        -0.1831 
     24 N          19.7957  -25.1788  -43.3669 N.am      2 UNK        -0.4498 
     25 C          19.0642  -24.6394  -44.3447 C.2       1 UNK         0.5027 
     26 O          17.9352  -24.1632  -44.1869 O.2       1 UNK        -0.4969 
     27 C          19.9552  -29.8264  -40.5110 C.2       3 UNK         0.5005 
     28 O          20.7234  -30.7258  -40.8498 O.2       3 UNK        -0.5279 
     29 N          20.0468  -29.1637  -39.3522 N.am      4 UNK        -0.4463 
     30 CA         21.1391  -29.3048  -38.3949 C.3       4 UNK         0.0283 
     31 CB         20.5822  -29.1290  -36.9733 C.3       4 UNK        -0.1875 
     32 C          22.2150  -28.2476  -38.6776 C.2       4 UNK         0.4949 
     33 O          21.8976  -27.1635  -39.1726 O.2       4 UNK        -0.5039 
     34 N          23.4620  -28.5764  -38.3190 N.am      5 UNK        -0.4663 
     35 CA         24.6802  -27.7553  -38.3784 C.3       5 UNK         0.0242 
     36 CB         24.5631  -26.5076  -37.4797 C.3       5 UNK        -0.1982 
     37 C          25.1517  -27.3768  -39.7941 C.2       5 UNK         0.5017 
     38 O          26.3068  -27.6480  -40.1224 O.2       5 UNK        -0.5012 
     39 N          24.2795  -26.7470  -40.5925 N.am      6 UNK        -0.4439 
     40 CA         24.5846  -26.2865  -41.9491 C.3       6 UNK         0.0297 
     41 CB         23.5964  -25.1940  -42.3871 C.3       6 UNK        -0.2006 
     42 C          24.6274  -27.4585  -42.9390 C.2       6 UNK         0.4892 
     43 O          25.6846  -27.7205  -43.5138 O.2       6 UNK        -0.5089 
     44 N          23.4953  -28.1594  -43.0997 N.am      7 UNK        -0.4243 
     45 CA         23.4237  -29.4001  -43.8766 C.3       7 UNK         0.0196 
     46 CB         21.9730  -29.6612  -44.3075 C.3       7 UNK        -0.2007 
     47 C          23.9831  -30.5974  -43.0888 C.2       7 UNK         0.5020 
     48 O          24.5660  -31.4957  -43.6959 O.2       7 UNK        -0.5147 
     49 N          23.8094  -30.5686  -41.7567 N.am      8 UNK        -0.4734 
     50 CA         24.2288  -31.5808  -40.7765 C.3       8 UNK         0.0238 
     51 CB         25.7674  -31.6353  -40.6719 C.3       8 UNK        -0.1912 
     52 C          23.5848  -32.9602  -41.0259 C.2       8 UNK         0.5038 
     53 O          24.2481  -33.9911  -40.8954 O.2       8 UNK        -0.5046 
     54 N          22.2969  -32.9391  -41.3811 N.am      9 UNK        -0.4200 
     55 CA         21.4601  -34.1103  -41.6691 C.3       9 UNK         0.0839 
     56 C          20.7767  -34.7094  -40.4077 C.2       9 UNK         0.5513 
     57 N          20.8102  -34.0524  -39.2542 N.am      9 UNK        -0.7519 
     58 O          20.2132  -35.7985  -40.4761 O.2       9 UNK        -0.4960 
     59 C59        20.4130  -33.7833  -42.7647 C.3       10 UNK        -0.0876 
     60 S60        21.1974  -33.3195  -44.3451 S.3       10 UNK        -0.2414 
     61 C61        19.7683  -33.2862  -45.4671 C.3       10 UNK         0.0169 
     62 H62        17.4736  -22.2680  -48.0447 H         1 UNK         0.0903 
     63 H63        18.8682  -21.3611  -48.6344 H         1 UNK         0.0903 
     64 H64        18.2759  -22.7580  -49.5379 H         1 UNK         0.0903 
     65 H65        18.0076  -23.5890  -46.2842 H         1 UNK         0.3096 
     66 H66        20.7005  -24.2755  -45.6504 H         1 UNK         0.1121 
     67 H67        20.3601  -26.1363  -47.2306 H         1 UNK         0.0849 
     68 H68        20.3909  -26.7643  -45.6115 H         1 UNK         0.0849 
     69 H69        19.7739  -28.6167  -47.3817 H         1 UNK         0.0865 
     70 H70        18.1830  -28.8734  -48.0419 H         1 UNK         0.0865 
     71 H71        20.0317  -30.9820  -46.8878 H         1 UNK         0.1346 
     72 H72        17.6826  -32.7743  -43.7893 H         1 UNK         0.1412 
     73 H73        16.7408  -28.8302  -45.1596 H         1 UNK         0.1426 
     74 H74        15.7654  -31.6975  -42.9150 H         1 UNK         0.0716 
     75 H75        15.0174  -30.5302  -43.9737 H         1 UNK         0.0716 
     76 H76        17.5884  -31.1483  -41.2610 H         1 UNK         0.0695 
     77 H77        17.2425  -29.9133  -40.0782 H         1 UNK         0.0695 
     78 H78        19.1321  -29.6894  -42.4724 H         1 UNK         0.0983 
     79 H79        17.8030  -27.5397  -41.2912 H         1 UNK         0.3095 
     80 H80        18.1945  -25.5084  -42.0324 H         1 UNK         0.0454 
     81 H81        19.4926  -25.0538  -39.9757 H         1 UNK         0.0851 
     82 H82        19.7000  -23.7031  -41.0800 H         1 UNK         0.0851 
     83 H83        20.9843  -24.8933  -40.8803 H         1 UNK         0.0851 
     84 H84        20.6890  -25.5912  -43.6001 H         1 UNK         0.2976 
     85 H85        19.4253  -28.3815  -39.2054 H         1 UNK         0.3116 
     86 H86        21.5807  -30.3003  -38.4769 H         1 UNK         0.0646 
     87 H87        19.8117  -29.8686  -36.7554 H         1 UNK         0.0847 
     88 H88        20.1473  -28.1392  -36.8277 H         1 UNK         0.0847 
     89 H89        21.3675  -29.2516  -36.2262 H         1 UNK         0.0847 
     90 H90        23.5996  -29.4934  -37.9164 H         1 UNK         0.3040 
     91 H91        25.4693  -28.3788  -37.9537 H         1 UNK         0.1015 
     92 H92        25.5016  -25.9518  -37.4622 H         1 UNK         0.0786 
     93 H93        24.3311  -26.7820  -36.4507 H         1 UNK         0.0786 
     94 H94        23.7891  -25.8216  -37.8249 H         1 UNK         0.0786 
     95 H95        23.3313  -26.6246  -40.2417 H         1 UNK         0.3172 
     96 H96        25.5777  -25.8318  -41.9343 H         1 UNK         0.0595 
     97 H97        23.8478  -24.8195  -43.3801 H         1 UNK         0.0839 
     98 H98        23.6184  -24.3436  -41.7056 H         1 UNK         0.0839 
     99 H99        22.5746  -25.5612  -42.4292 H         1 UNK         0.0839 
    100 H100       22.6416  -27.8612  -42.6339 H         1 UNK         0.2998 
    101 H101       24.0243  -29.2821  -44.7813 H         1 UNK         0.0822 
    102 H102       21.9253  -30.5054  -44.9949 H         1 UNK         0.0787 
    103 H103       21.5436  -28.8019  -44.8213 H         1 UNK         0.0787 
    104 H104       21.3332  -29.8988  -43.4580 H         1 UNK         0.0787 
    105 H105       23.2765  -29.7950  -41.3863 H         1 UNK         0.3055 
    106 H106       23.8479  -31.2488  -39.8102 H         1 UNK         0.1106 
    107 H107       26.1863  -30.6486  -40.4733 H         1 UNK         0.0828 
    108 H108       26.0817  -32.2903  -39.8585 H         1 UNK         0.0828 
    109 H109       26.2220  -32.0142  -41.5877 H         1 UNK         0.0828 
    110 H110       21.8093  -32.0447  -41.3907 H         1 UNK         0.2931 
    111 H111       22.1046  -34.9000  -42.0604 H         1 UNK         0.0412 
    112 H112       21.2500  -33.1483  -39.1990 H         1 UNK         0.3472 
    113 H113       20.3685  -34.4536  -38.4418 H         1 UNK         0.3472 
    114 H114       19.7660  -32.9675  -42.4378 H         1 UNK         0.0970 
    115 H115       19.7656  -34.6434  -42.9461 H         1 UNK         0.0970 
    116 H116       20.1327  -33.3866  -46.4904 H         1 UNK         0.0612 
    117 H117       19.1365  -34.1573  -45.2877 H         1 UNK         0.0612 
@<TRIPOS>BOND
     1    1    2 1    
     2    1   62 1    
     3    1   63 1    
     4    1   64 1    
     5    2    3 2    
     6    2    4 am   BACKBONE|DICT|INTERRES
     7    4    5 1    
     8    4   65 1    
     9    5    6 1    
    10    5   25 1    
    11    5   66 1    
    12    6    7 1    
    13    6   67 1    
    14    6   68 1    
    15    7    8 1    
    16    8    9 1    
    17    8   69 1    
    18    8   70 1    
    19    9   10 ar   
    20    9   14 ar   
    21   10   11 ar   
    22   10   71 1    
    23   11   12 ar   
    24   11   61 1    
    25   12   13 ar   
    26   12   72 1    
    27   13   14 ar   
    28   13   15 1    
    29   14   73 1    
    30   15   16 1    
    31   15   74 1    
    32   15   75 1    
    33   16   17 1    
    34   17   18 1    
    35   17   76 1    
    36   17   77 1    
    37   18   19 1    
    38   18   27 1    
    39   18   78 1    
    40   19   20 am   BACKBONE|DICT|INTERRES
    41   19   79 1    
    42   20   21 2    
    43   20   22 1    
    44   22   23 1    
    45   22   24 1    
    46   22   80 1    
    47   23   81 1    
    48   23   82 1    
    49   23   83 1    
    50   24   25 am   BACKBONE|DICT|INTERRES
    51   24   84 1    
    52   25   26 2    
    53   27   28 2    
    54   27   29 am   BACKBONE|DICT|INTERRES
    55   29   30 1    
    56   29   85 1    
    57   30   31 1    
    58   30   32 1    
    59   30   86 1    
    60   31   87 1    
    61   31   88 1    
    62   31   89 1    
    63   32   33 2    
    64   32   34 am   BACKBONE|DICT|INTERRES
    65   34   35 1    
    66   34   90 1    
    67   35   36 1    
    68   35   37 1    
    69   35   91 1    
    70   36   92 1    
    71   36   93 1    
    72   36   94 1    
    73   37   38 2    
    74   37   39 am   BACKBONE|DICT|INTERRES
    75   39   40 1    
    76   39   95 1    
    77   40   41 1    
    78   40   42 1    
    79   40   96 1    
    80   41   97 1    
    81   41   98 1    
    82   41   99 1    
    83   42   43 2    
    84   42   44 am   BACKBONE|DICT|INTERRES
    85   44   45 1    
    86   44  100 1    
    87   45   46 1    
    88   45   47 1    
    89   45  101 1    
    90   46  102 1    
    91   46  103 1    
    92   46  104 1    
    93   47   48 2    
    94   47   49 am   BACKBONE|DICT|INTERRES
    95   49   50 1    
    96   49  105 1    
    97   50   51 1    
    98   50   52 1    
    99   50  106 1    
   100   51  107 1    
   101   51  108 1    
   102   51  109 1    
   103   52   53 2    
   104   52   54 am   BACKBONE|DICT|INTERRES
   105   54   55 1    
   106   54  110 1    
   107   55   56 1    
   108   55   59 1    
   109   55  111 1    
   110   56   57 am   BACKBONE|DICT|INTERRES
   111   56   58 2    
   112   57  112 1    
   113   57  113 1    
   114   59   60 1    
   115   59  114 1    
   116   59  115 1    
   117   60   61 1    
   118   61  116 1    
   119   61  117 1    
@<TRIPOS>SUBSTRUCTURE
     1 UNK         1 GROUP             0       ****    0 ROOT    
