@<TRIPOS>MOLECULE
3R8
117   119    1
SMALL
USER_CHARGES


@<TRIPOS>ATOM
      1 CA         17.6331  -28.5211  -49.7557 C.3       0 UNK        -0.2013 
      2 C          18.2414  -29.0676  -48.4730 C.2       0 UNK         0.4866 
      3 O          19.1380  -29.9091  -48.5318 O.2       0 UNK        -0.5176 
      4 N          17.7576  -28.5984  -47.3151 N.am      1 UNK        -0.4884 
      5 CA         18.2214  -29.0112  -45.9836 C.3       1 UNK         0.0853 
      6 C6         17.2753  -28.5140  -44.8645 C.3       10 UNK        -0.0849 
      7 S7         15.6078  -29.2541  -44.9757 S.3       10 UNK        -0.2776 
      8 C8         14.8769  -28.8254  -43.3536 C.3       10 UNK         0.0316 
      9 C9         15.7959  -29.1819  -42.1923 C.ar      10 UNK        -0.0863 
     10 C10        16.2169  -30.5013  -42.0109 C.ar      10 UNK        -0.1009 
     11 C11        17.1796  -30.8167  -41.0473 C.ar      10 UNK        -0.0712 
     12 C12        17.6683  -29.8068  -40.2114 C.ar      10 UNK        -0.0894 
     13 C13        17.2240  -28.4882  -40.3562 C.ar      10 UNK        -0.0745 
     14 C14        16.2887  -28.1818  -41.3493 C.ar      10 UNK        -0.0972 
     15 C15        17.7695  -27.3874  -39.4561 C.3       10 UNK         0.0209 
     16 S16        19.4940  -26.9535  -39.8525 S.3       10 UNK        -0.2568 
     17 C17        19.3431  -26.2977  -41.5481 C.3       10 UNK        -0.0983 
     18 CA         20.7274  -26.1145  -42.2179 C.3       3 UNK         0.0876 
     19 N          20.6331  -26.1808  -43.6745 N.am      3 UNK        -0.4424 
     20 C          21.6604  -26.4420  -44.4944 C.2       2 UNK         0.4918 
     21 O          22.8275  -26.5510  -44.1168 O.2       2 UNK        -0.4875 
     22 CA         21.3087  -26.6638  -45.9822 C.3       2 UNK         0.0481 
     23 CB         22.4279  -27.3994  -46.7496 C.3       2 UNK        -0.1831 
     24 N          20.0222  -27.3502  -46.1759 N.am      2 UNK        -0.4498 
     25 C          19.6626  -28.5498  -45.6861 C.2       1 UNK         0.5027 
     26 O          20.3978  -29.2696  -45.0080 O.2       1 UNK        -0.4969 
     27 C          21.4313  -24.8222  -41.7579 C.2       3 UNK         0.5005 
     28 O          20.9852  -23.7244  -42.1025 O.2       3 UNK        -0.5279 
     29 N          22.4994  -24.9862  -40.9747 N.am      4 UNK        -0.4463 
     30 CA         23.2675  -23.9390  -40.3111 C.3       4 UNK         0.0283 
     31 CB         24.3352  -23.3759  -41.2737 C.3       4 UNK        -0.1875 
     32 C          23.8207  -24.5484  -39.0132 C.2       4 UNK         0.4949 
     33 O          23.0289  -24.9651  -38.1670 O.2       4 UNK        -0.5039 
     34 N          25.1524  -24.6381  -38.8808 N.am      5 UNK        -0.4663 
     35 CA         25.8340  -25.3508  -37.7889 C.3       5 UNK         0.0242 
     36 CB         27.3103  -24.9230  -37.7547 C.3       5 UNK        -0.1982 
     37 C          25.7192  -26.8859  -37.9031 C.2       5 UNK         0.5017 
     38 O          25.8859  -27.5868  -36.9045 O.2       5 UNK        -0.5012 
     39 N          25.4277  -27.3664  -39.1145 N.am      6 UNK        -0.4439 
     40 CA         25.0823  -28.7364  -39.4755 C.3       6 UNK         0.0297 
     41 CB         26.3429  -29.4678  -39.9725 C.3       6 UNK        -0.2006 
     42 C          23.9936  -28.6559  -40.5585 C.2       6 UNK         0.4892 
     43 O          23.5988  -27.5497  -40.9347 O.2       6 UNK        -0.5089 
     44 N          23.5309  -29.8091  -41.0467 N.am      7 UNK        -0.4243 
     45 CA         22.5707  -29.9287  -42.1438 C.3       7 UNK         0.0196 
     46 CB         21.1626  -30.1721  -41.5688 C.3       7 UNK        -0.2007 
     47 C          23.0017  -31.0819  -43.0564 C.2       7 UNK         0.5020 
     48 O          23.8487  -31.8903  -42.6677 O.2       7 UNK        -0.5147 
     49 N          22.3873  -31.1622  -44.2425 N.am      8 UNK        -0.4734 
     50 CA         22.6014  -32.2369  -45.2212 C.3       8 UNK         0.0238 
     51 CB         22.0812  -31.7684  -46.5913 C.3       8 UNK        -0.1912 
     52 C          21.9498  -33.5785  -44.8248 C.2       8 UNK         0.5038 
     53 O          22.2118  -34.5891  -45.4785 O.2       8 UNK        -0.5046 
     54 N          21.0994  -33.5532  -43.7917 N.am      9 UNK        -0.4200 
     55 CA         20.3405  -34.6781  -43.2287 C.3       9 UNK         0.0839 
     56 C          21.2365  -35.8588  -42.7658 C.2       9 UNK         0.5513 
     57 N          20.8110  -37.0915  -43.0054 N.am      9 UNK        -0.7519 
     58 O          22.2826  -35.6665  -42.1498 O.2       9 UNK        -0.4960 
     59 C59        19.4320  -34.2020  -42.0636 C.3       10 UNK        -0.0876 
     60 S60        18.3728  -32.8012  -42.5524 S.3       10 UNK        -0.2414 
     61 C61        17.7239  -32.2358  -40.9461 C.3       10 UNK         0.0169 
     62 H62        18.4011  -28.0369  -50.3583 H         1 UNK         0.0903 
     63 H63        17.2018  -29.3325  -50.3414 H         1 UNK         0.0903 
     64 H64        16.8477  -27.7919  -49.5574 H         1 UNK         0.0903 
     65 H65        16.9939  -27.9366  -47.3266 H         1 UNK         0.3096 
     66 H66        18.2344  -30.1037  -45.9589 H         1 UNK         0.1121 
     67 H67        17.7064  -28.7676  -43.8946 H         1 UNK         0.0849 
     68 H68        17.1793  -27.4268  -44.8817 H         1 UNK         0.0849 
     69 H69        14.6386  -27.7607  -43.3472 H         1 UNK         0.0865 
     70 H70        13.9293  -29.3531  -43.2375 H         1 UNK         0.0865 
     71 H71        15.8482  -31.2737  -42.6723 H         1 UNK         0.1346 
     72 H72        18.4143  -30.0374  -39.4631 H         1 UNK         0.1412 
     73 H73        15.9694  -27.1574  -41.4855 H         1 UNK         0.1426 
     74 H74        17.1521  -26.4900  -39.5205 H         1 UNK         0.0716 
     75 H75        17.7201  -27.7169  -38.4173 H         1 UNK         0.0716 
     76 H76        18.7573  -27.0155  -42.1233 H         1 UNK         0.0695 
     77 H77        18.7662  -25.3709  -41.5383 H         1 UNK         0.0695 
     78 H78        21.3408  -26.9680  -41.9252 H         1 UNK         0.0983 
     79 H79        19.7160  -26.0547  -44.0735 H         1 UNK         0.3095 
     80 H80        21.1993  -25.6721  -46.4231 H         1 UNK         0.0454 
     81 H81        22.6436  -28.3744  -46.3117 H         1 UNK         0.0851 
     82 H82        22.1591  -27.5535  -47.7945 H         1 UNK         0.0851 
     83 H83        23.3552  -26.8255  -46.7352 H         1 UNK         0.0851 
     84 H84        19.3377  -26.8522  -46.7281 H         1 UNK         0.2976 
     85 H85        22.8100  -25.9405  -40.7858 H         1 UNK         0.3116 
     86 H86        22.5957  -23.1290  -40.0195 H         1 UNK         0.0646 
     87 H87        25.0088  -24.1524  -41.6387 H         1 UNK         0.0847 
     88 H88        23.8682  -22.9165  -42.1451 H         1 UNK         0.0847 
     89 H89        24.9351  -22.6018  -40.7935 H         1 UNK         0.0847 
     90 H90        25.7380  -24.2572  -39.6108 H         1 UNK         0.3040 
     91 H91        25.3694  -25.0605  -36.8437 H         1 UNK         0.1015 
     92 H92        27.8290  -25.1844  -38.6780 H         1 UNK         0.0786 
     93 H93        27.8389  -25.4118  -36.9349 H         1 UNK         0.0786 
     94 H94        27.4090  -23.8476  -37.6052 H         1 UNK         0.0786 
     95 H95        25.2286  -26.6997  -39.8491 H         1 UNK         0.3172 
     96 H96        24.6651  -29.2558  -38.6104 H         1 UNK         0.0595 
     97 H97        26.1323  -30.5120  -40.2057 H         1 UNK         0.0839 
     98 H98        27.1269  -29.4614  -39.2149 H         1 UNK         0.0839 
     99 H99        26.7472  -29.0055  -40.8740 H         1 UNK         0.0839 
    100 H100       23.9524  -30.6833  -40.7596 H         1 UNK         0.2998 
    101 H101       22.5665  -29.0162  -42.7444 H         1 UNK         0.0822 
    102 H102       20.4090  -30.1934  -42.3572 H         1 UNK         0.0787 
    103 H103       21.1021  -31.1188  -41.0307 H         1 UNK         0.0787 
    104 H104       20.8769  -29.3800  -40.8781 H         1 UNK         0.0787 
    105 H105       21.6874  -30.4606  -44.4858 H         1 UNK         0.3055 
    106 H106       23.6755  -32.4172  -45.3050 H         1 UNK         0.1106 
    107 H107       22.5792  -30.8547  -46.9151 H         1 UNK         0.0828 
    108 H108       22.2610  -32.5224  -47.3587 H         1 UNK         0.0828 
    109 H109       21.0078  -31.5741  -46.5711 H         1 UNK         0.0828 
    110 H110       20.9495  -32.6644  -43.3400 H         1 UNK         0.2931 
    111 H111       19.6951  -35.0402  -44.0315 H         1 UNK         0.0412 
    112 H112       19.9477  -37.2584  -43.4995 H         1 UNK         0.3472 
    113 H113       21.3696  -37.8723  -42.6968 H         1 UNK         0.3472 
    114 H114       18.7906  -35.0155  -41.7191 H         1 UNK         0.0970 
    115 H115       20.0392  -33.9015  -41.2071 H         1 UNK         0.0970 
    116 H116       18.5175  -32.2860  -40.1992 H         1 UNK         0.0612 
    117 H117       16.9328  -32.9100  -40.6157 H         1 UNK         0.0612 
@<TRIPOS>BOND
     1    1    2 1    
     2    1   62 1    
     3    1   63 1    
     4    1   64 1    
     5    2    3 2    
     6    2    4 am   BACKBONE|DICT|INTERRES
     7    4    5 1    
     8    4   65 1    
     9    5    6 1    
    10    5   25 1    
    11    5   66 1    
    12    6    7 1    
    13    6   67 1    
    14    6   68 1    
    15    7    8 1    
    16    8    9 1    
    17    8   69 1    
    18    8   70 1    
    19    9   10 ar   
    20    9   14 ar   
    21   10   11 ar   
    22   10   71 1    
    23   11   12 ar   
    24   11   61 1    
    25   12   13 ar   
    26   12   72 1    
    27   13   14 ar   
    28   13   15 1    
    29   14   73 1    
    30   15   16 1    
    31   15   74 1    
    32   15   75 1    
    33   16   17 1    
    34   17   18 1    
    35   17   76 1    
    36   17   77 1    
    37   18   19 1    
    38   18   27 1    
    39   18   78 1    
    40   19   20 am   BACKBONE|DICT|INTERRES
    41   19   79 1    
    42   20   21 2    
    43   20   22 1    
    44   22   23 1    
    45   22   24 1    
    46   22   80 1    
    47   23   81 1    
    48   23   82 1    
    49   23   83 1    
    50   24   25 am   BACKBONE|DICT|INTERRES
    51   24   84 1    
    52   25   26 2    
    53   27   28 2    
    54   27   29 am   BACKBONE|DICT|INTERRES
    55   29   30 1    
    56   29   85 1    
    57   30   31 1    
    58   30   32 1    
    59   30   86 1    
    60   31   87 1    
    61   31   88 1    
    62   31   89 1    
    63   32   33 2    
    64   32   34 am   BACKBONE|DICT|INTERRES
    65   34   35 1    
    66   34   90 1    
    67   35   36 1    
    68   35   37 1    
    69   35   91 1    
    70   36   92 1    
    71   36   93 1    
    72   36   94 1    
    73   37   38 2    
    74   37   39 am   BACKBONE|DICT|INTERRES
    75   39   40 1    
    76   39   95 1    
    77   40   41 1    
    78   40   42 1    
    79   40   96 1    
    80   41   97 1    
    81   41   98 1    
    82   41   99 1    
    83   42   43 2    
    84   42   44 am   BACKBONE|DICT|INTERRES
    85   44   45 1    
    86   44  100 1    
    87   45   46 1    
    88   45   47 1    
    89   45  101 1    
    90   46  102 1    
    91   46  103 1    
    92   46  104 1    
    93   47   48 2    
    94   47   49 am   BACKBONE|DICT|INTERRES
    95   49   50 1    
    96   49  105 1    
    97   50   51 1    
    98   50   52 1    
    99   50  106 1    
   100   51  107 1    
   101   51  108 1    
   102   51  109 1    
   103   52   53 2    
   104   52   54 am   BACKBONE|DICT|INTERRES
   105   54   55 1    
   106   54  110 1    
   107   55   56 1    
   108   55   59 1    
   109   55  111 1    
   110   56   57 am   BACKBONE|DICT|INTERRES
   111   56   58 2    
   112   57  112 1    
   113   57  113 1    
   114   59   60 1    
   115   59  114 1    
   116   59  115 1    
   117   60   61 1    
   118   61  116 1    
   119   61  117 1    
@<TRIPOS>SUBSTRUCTURE
     1 UNK         1 GROUP             0       ****    0 ROOT    
