@<TRIPOS>MOLECULE
3R8
117   119    1
SMALL
USER_CHARGES


@<TRIPOS>ATOM
      1 CA         15.9524  -23.2839  -39.8880 C.3       0 UNK        -0.2013 
      2 C          16.5213  -23.8377  -41.1859 C.2       0 UNK         0.4866 
      3 O          17.6294  -23.4681  -41.5755 O.2       0 UNK        -0.5176 
      4 N          15.7694  -24.7146  -41.8629 N.am      1 UNK        -0.4884 
      5 CA         16.1908  -25.4010  -43.0870 C.3       1 UNK         0.0853 
      6 C6         14.9742  -26.0033  -43.8307 C.3       10 UNK        -0.0849 
      7 S7         15.3402  -26.4328  -45.5683 S.3       10 UNK        -0.2776 
      8 C8         14.8361  -28.1831  -45.6537 C.3       10 UNK         0.0316 
      9 C9         16.0227  -29.1344  -45.5737 C.ar      10 UNK        -0.0863 
     10 C10        16.4201  -29.6894  -44.3527 C.ar      10 UNK        -0.1009 
     11 C11        17.4738  -30.6107  -44.2969 C.ar      10 UNK        -0.0712 
     12 C12        18.1183  -30.9860  -45.4809 C.ar      10 UNK        -0.0894 
     13 C13        17.7473  -30.4180  -46.7015 C.ar      10 UNK        -0.0745 
     14 C14        16.6991  -29.4952  -46.7419 C.ar      10 UNK        -0.0972 
     15 C15        18.4656  -30.8059  -47.9832 C.3       10 UNK         0.0209 
     16 S16        19.6870  -29.5483  -48.4694 S.3       10 UNK        -0.2568 
     17 C17        21.0953  -29.9168  -47.3709 C.3       10 UNK        -0.0983 
     18 CA         21.4291  -28.7320  -46.4307 C.3       3 UNK         0.0876 
     19 N          20.4488  -28.5774  -45.3501 N.am      3 UNK        -0.4424 
     20 C          20.2399  -27.4315  -44.6929 C.2       2 UNK         0.4918 
     21 O          20.7209  -26.3453  -45.0223 O.2       2 UNK        -0.4875 
     22 CA         19.3818  -27.5149  -43.4303 C.3       2 UNK         0.0481 
     23 CB         20.2518  -27.3611  -42.1704 C.3       2 UNK        -0.1831 
     24 N          18.3500  -26.4887  -43.4905 N.am      2 UNK        -0.4498 
     25 C          17.2342  -26.4842  -42.7541 C.2       1 UNK         0.5027 
     26 O          16.9877  -27.3022  -41.8635 O.2       1 UNK        -0.4969 
     27 C          22.8566  -28.8770  -45.8621 C.2       3 UNK         0.5005 
     28 O          23.8120  -28.4599  -46.5194 O.2       3 UNK        -0.5279 
     29 N          22.9841  -29.4622  -44.6620 N.am      4 UNK        -0.4463 
     30 CA         24.2495  -29.6179  -43.9489 C.3       4 UNK         0.0283 
     31 CB         24.1116  -30.7455  -42.9138 C.3       4 UNK        -0.1875 
     32 C          24.6448  -28.3089  -43.2543 C.2       4 UNK         0.4949 
     33 O          23.8199  -27.7220  -42.5517 O.2       4 UNK        -0.5039 
     34 N          25.9171  -27.9143  -43.3979 N.am      5 UNK        -0.4663 
     35 CA         26.5074  -26.7428  -42.7341 C.3       5 UNK         0.0242 
     36 CB         27.8978  -26.4696  -43.3298 C.3       5 UNK        -0.1982 
     37 C          26.5947  -26.8855  -41.2024 C.2       5 UNK         0.5017 
     38 O          26.6101  -25.8769  -40.4973 O.2       5 UNK        -0.5012 
     39 N          26.6150  -28.1359  -40.7208 N.am      6 UNK        -0.4439 
     40 CA         26.5490  -28.5128  -39.3076 C.3       6 UNK         0.0297 
     41 CB         27.1287  -29.9303  -39.1535 C.3       6 UNK        -0.2006 
     42 C          25.1259  -28.4456  -38.7143 C.2       6 UNK         0.4892 
     43 O          24.9638  -28.7759  -37.5393 O.2       6 UNK        -0.5089 
     44 N          24.1190  -28.0777  -39.5240 N.am      7 UNK        -0.4243 
     45 CA         22.6796  -27.9860  -39.2340 C.3       7 UNK         0.0196 
     46 CB         22.3825  -27.0405  -38.0538 C.3       7 UNK        -0.2007 
     47 C          21.9808  -29.3458  -39.0565 C.2       7 UNK         0.5020 
     48 O          20.8454  -29.4991  -39.5043 O.2       7 UNK        -0.5147 
     49 N          22.6594  -30.3145  -38.4327 N.am      8 UNK        -0.4734 
     50 CA         22.2338  -31.7083  -38.3363 C.3       8 UNK         0.0238 
     51 CB         23.0278  -32.4011  -37.2153 C.3       8 UNK        -0.1912 
     52 C          22.4414  -32.4081  -39.6891 C.2       8 UNK         0.5038 
     53 O          23.5856  -32.6835  -40.0562 O.2       8 UNK        -0.5046 
     54 N          21.3416  -32.6550  -40.4101 N.am      9 UNK        -0.4200 
     55 CA         21.3329  -33.3037  -41.7329 C.3       9 UNK         0.0839 
     56 C          21.6306  -34.8318  -41.7142 C.2       9 UNK         0.5513 
     57 N          21.6339  -35.4987  -40.5661 N.am      9 UNK        -0.7519 
     58 O          21.8659  -35.4222  -42.7652 O.2       9 UNK        -0.4960 
     59 C59        20.0250  -33.0081  -42.5129 C.3       10 UNK        -0.0876 
     60 S60        19.7060  -31.2218  -42.7172 S.3       10 UNK        -0.2414 
     61 C61        17.8933  -31.2080  -42.9573 C.3       10 UNK         0.0169 
     62 H62        16.6086  -23.5333  -39.0546 H         1 UNK         0.0903 
     63 H63        15.8727  -22.1986  -39.9461 H         1 UNK         0.0903 
     64 H64        14.9624  -23.6851  -39.6717 H         1 UNK         0.0903 
     65 H65        14.8830  -25.0083  -41.4774 H         1 UNK         0.3096 
     66 H66        16.6523  -24.6534  -43.7370 H         1 UNK         0.1121 
     67 H67        14.1629  -25.2738  -43.8574 H         1 UNK         0.0849 
     68 H68        14.5762  -26.8642  -43.2902 H         1 UNK         0.0849 
     69 H69        14.1049  -28.4175  -44.8791 H         1 UNK         0.0865 
     70 H70        14.3136  -28.3403  -46.5987 H         1 UNK         0.0865 
     71 H71        15.9044  -29.4067  -43.4448 H         1 UNK         0.1346 
     72 H72        18.9170  -31.7145  -45.4509 H         1 UNK         0.1412 
     73 H73        16.4039  -29.0634  -47.6889 H         1 UNK         0.1426 
     74 H74        17.7357  -30.9128  -48.7871 H         1 UNK         0.0716 
     75 H75        18.9502  -31.7786  -47.8848 H         1 UNK         0.0716 
     76 H76        21.9410  -30.1403  -48.0248 H         1 UNK         0.0695 
     77 H77        20.9107  -30.8283  -46.8002 H         1 UNK         0.0695 
     78 H78        21.4309  -27.8187  -47.0307 H         1 UNK         0.0983 
     79 H79        19.9538  -29.4087  -45.0593 H         1 UNK         0.3095 
     80 H80        18.8942  -28.4868  -43.3989 H         1 UNK         0.0454 
     81 H81        21.0340  -28.1209  -42.1500 H         1 UNK         0.0851 
     82 H82        19.6669  -27.4831  -41.2588 H         1 UNK         0.0851 
     83 H83        20.7402  -26.3868  -42.1317 H         1 UNK         0.0851 
     84 H84        18.4854  -25.7889  -44.2087 H         1 UNK         0.2976 
     85 H85        22.1494  -29.7351  -44.1653 H         1 UNK         0.3116 
     86 H86        25.0276  -29.8999  -44.6619 H         1 UNK         0.0646 
     87 H87        25.0341  -30.8791  -42.3475 H         1 UNK         0.0847 
     88 H88        23.3170  -30.5424  -42.1938 H         1 UNK         0.0847 
     89 H89        23.8941  -31.6974  -43.3975 H         1 UNK         0.0847 
     90 H90        26.5289  -28.4503  -43.9980 H         1 UNK         0.3040 
     91 H91        25.8679  -25.8815  -42.9413 H         1 UNK         0.1015 
     92 H92        28.3508  -25.5874  -42.8748 H         1 UNK         0.0786 
     93 H93        27.8408  -26.2840  -44.4027 H         1 UNK         0.0786 
     94 H94        28.5794  -27.3057  -43.1679 H         1 UNK         0.0786 
     95 H95        26.6146  -28.8914  -41.3903 H         1 UNK         0.3172 
     96 H96        27.1722  -27.8239  -38.7336 H         1 UNK         0.0595 
     97 H97        26.5263  -30.6732  -39.6786 H         1 UNK         0.0839 
     98 H98        27.1667  -30.2272  -38.1044 H         1 UNK         0.0839 
     99 H99        28.1471  -29.9885  -39.5380 H         1 UNK         0.0839 
    100 H100       24.3515  -27.8704  -40.4888 H         1 UNK         0.2998 
    101 H101       22.2446  -27.5311  -40.1240 H         1 UNK         0.0822 
    102 H102       21.3084  -26.8826  -37.9478 H         1 UNK         0.0787 
    103 H103       22.7432  -27.4401  -37.1058 H         1 UNK         0.0787 
    104 H104       22.8409  -26.0630  -38.2038 H         1 UNK         0.0787 
    105 H105       23.5790  -30.0810  -38.0721 H         1 UNK         0.3055 
    106 H106       21.1741  -31.7393  -38.0721 H         1 UNK         0.1106 
    107 H107       22.8413  -31.9308  -36.2496 H         1 UNK         0.0828 
    108 H108       22.7421  -33.4499  -37.1257 H         1 UNK         0.0828 
    109 H109       24.1027  -32.3702  -37.3991 H         1 UNK         0.0828 
    110 H110       20.4451  -32.3471  -40.0629 H         1 UNK         0.2931 
    111 H111       22.1472  -32.8600  -42.3064 H         1 UNK         0.0412 
    112 H112       21.4417  -35.0255  -39.6981 H         1 UNK         0.3472 
    113 H113       21.8315  -36.4873  -40.5696 H         1 UNK         0.3472 
    114 H114       19.1810  -33.4719  -41.9994 H         1 UNK         0.0970 
    115 H115       20.0601  -33.4541  -43.5089 H         1 UNK         0.0970 
    116 H116       17.4839  -32.2160  -42.8885 H         1 UNK         0.0612 
    117 H117       17.4541  -30.6407  -42.1350 H         1 UNK         0.0612 
@<TRIPOS>BOND
     1    1    2 1    
     2    1   62 1    
     3    1   63 1    
     4    1   64 1    
     5    2    3 2    
     6    2    4 am   BACKBONE|DICT|INTERRES
     7    4    5 1    
     8    4   65 1    
     9    5    6 1    
    10    5   25 1    
    11    5   66 1    
    12    6    7 1    
    13    6   67 1    
    14    6   68 1    
    15    7    8 1    
    16    8    9 1    
    17    8   69 1    
    18    8   70 1    
    19    9   10 ar   
    20    9   14 ar   
    21   10   11 ar   
    22   10   71 1    
    23   11   12 ar   
    24   11   61 1    
    25   12   13 ar   
    26   12   72 1    
    27   13   14 ar   
    28   13   15 1    
    29   14   73 1    
    30   15   16 1    
    31   15   74 1    
    32   15   75 1    
    33   16   17 1    
    34   17   18 1    
    35   17   76 1    
    36   17   77 1    
    37   18   19 1    
    38   18   27 1    
    39   18   78 1    
    40   19   20 am   BACKBONE|DICT|INTERRES
    41   19   79 1    
    42   20   21 2    
    43   20   22 1    
    44   22   23 1    
    45   22   24 1    
    46   22   80 1    
    47   23   81 1    
    48   23   82 1    
    49   23   83 1    
    50   24   25 am   BACKBONE|DICT|INTERRES
    51   24   84 1    
    52   25   26 2    
    53   27   28 2    
    54   27   29 am   BACKBONE|DICT|INTERRES
    55   29   30 1    
    56   29   85 1    
    57   30   31 1    
    58   30   32 1    
    59   30   86 1    
    60   31   87 1    
    61   31   88 1    
    62   31   89 1    
    63   32   33 2    
    64   32   34 am   BACKBONE|DICT|INTERRES
    65   34   35 1    
    66   34   90 1    
    67   35   36 1    
    68   35   37 1    
    69   35   91 1    
    70   36   92 1    
    71   36   93 1    
    72   36   94 1    
    73   37   38 2    
    74   37   39 am   BACKBONE|DICT|INTERRES
    75   39   40 1    
    76   39   95 1    
    77   40   41 1    
    78   40   42 1    
    79   40   96 1    
    80   41   97 1    
    81   41   98 1    
    82   41   99 1    
    83   42   43 2    
    84   42   44 am   BACKBONE|DICT|INTERRES
    85   44   45 1    
    86   44  100 1    
    87   45   46 1    
    88   45   47 1    
    89   45  101 1    
    90   46  102 1    
    91   46  103 1    
    92   46  104 1    
    93   47   48 2    
    94   47   49 am   BACKBONE|DICT|INTERRES
    95   49   50 1    
    96   49  105 1    
    97   50   51 1    
    98   50   52 1    
    99   50  106 1    
   100   51  107 1    
   101   51  108 1    
   102   51  109 1    
   103   52   53 2    
   104   52   54 am   BACKBONE|DICT|INTERRES
   105   54   55 1    
   106   54  110 1    
   107   55   56 1    
   108   55   59 1    
   109   55  111 1    
   110   56   57 am   BACKBONE|DICT|INTERRES
   111   56   58 2    
   112   57  112 1    
   113   57  113 1    
   114   59   60 1    
   115   59  114 1    
   116   59  115 1    
   117   60   61 1    
   118   61  116 1    
   119   61  117 1    
@<TRIPOS>SUBSTRUCTURE
     1 UNK         1 GROUP             0       ****    0 ROOT    
