@<TRIPOS>MOLECULE
3R8
117   119    1
SMALL
USER_CHARGES


@<TRIPOS>ATOM
      1 CA         17.5433  -23.7820  -47.7860 C.3       0 UNK        -0.2013 
      2 C          17.6183  -25.0817  -46.9997 C.2       0 UNK         0.4866 
      3 O          18.7127  -25.5302  -46.6578 O.2       0 UNK        -0.5176 
      4 N          16.4636  -25.6897  -46.6968 N.am      1 UNK        -0.4884 
      5 CA         16.3285  -26.9407  -45.9403 C.3       1 UNK         0.0853 
      6 C6         15.0092  -27.6621  -46.3252 C.3       10 UNK        -0.0849 
      7 S7         14.7687  -29.3348  -45.6279 S.3       10 UNK        -0.2776 
      8 C8         16.1783  -30.2782  -46.2981 C.3       10 UNK         0.0316 
      9 C9         17.4358  -30.1826  -45.4373 C.ar      10 UNK        -0.0863 
     10 C10        17.3782  -30.4125  -44.0578 C.ar      10 UNK        -0.1009 
     11 C11        18.5418  -30.4057  -43.2814 C.ar      10 UNK        -0.0712 
     12 C12        19.7716  -30.1613  -43.8966 C.ar      10 UNK        -0.0894 
     13 C13        19.8437  -29.9018  -45.2682 C.ar      10 UNK        -0.0745 
     14 C14        18.6731  -29.9165  -46.0326 C.ar      10 UNK        -0.0972 
     15 C15        21.1871  -29.6487  -45.9376 C.3       10 UNK         0.0209 
     16 S16        21.6986  -27.9031  -45.8264 S.3       10 UNK        -0.2568 
     17 C17        22.4380  -27.8273  -44.1597 C.3       10 UNK        -0.0983 
     18 CA         21.8640  -26.6908  -43.2804 C.3       3 UNK         0.0876 
     19 N          20.3963  -26.7219  -43.1838 N.am      3 UNK        -0.4424 
     20 C          19.6558  -25.7203  -42.6854 C.2       2 UNK         0.4918 
     21 O          20.1333  -24.6640  -42.2679 O.2       2 UNK        -0.4875 
     22 CA         18.1342  -25.9239  -42.6874 C.3       2 UNK         0.0481 
     23 CB         17.3739  -24.6957  -42.1372 C.3       2 UNK        -0.1831 
     24 N          17.7084  -26.2423  -44.0473 N.am      2 UNK        -0.4498 
     25 C          16.5044  -26.6858  -44.4244 C.2       1 UNK         0.5027 
     26 O          15.5634  -26.8496  -43.6456 O.2       1 UNK        -0.4969 
     27 C          22.5468  -26.6663  -41.8930 C.2       3 UNK         0.5005 
     28 O          23.6074  -26.0538  -41.7560 O.2       3 UNK        -0.5279 
     29 N          21.9058  -27.2928  -40.8919 N.am      4 UNK        -0.4463 
     30 CA         22.2166  -27.2648  -39.4583 C.3       4 UNK         0.0283 
     31 CB         21.8077  -25.9001  -38.8599 C.3       4 UNK        -0.1875 
     32 C          23.6711  -27.6610  -39.1438 C.2       4 UNK         0.4949 
     33 O          23.9795  -28.8510  -39.1061 O.2       4 UNK        -0.5039 
     34 N          24.5388  -26.6647  -38.9248 N.am      5 UNK        -0.4663 
     35 CA         25.9669  -26.8464  -38.6619 C.3       5 UNK         0.0242 
     36 CB         26.5549  -25.5246  -38.1418 C.3       5 UNK        -0.1982 
     37 C          26.7581  -27.3434  -39.8849 C.2       5 UNK         0.5017 
     38 O          27.7965  -27.9791  -39.6991 O.2       5 UNK        -0.5012 
     39 N          26.2735  -27.0494  -41.1014 N.am      6 UNK        -0.4439 
     40 CA         26.9031  -27.4799  -42.3519 C.3       6 UNK         0.0297 
     41 CB         26.4853  -26.5454  -43.4982 C.3       6 UNK        -0.2006 
     42 C          26.6003  -28.9481  -42.6969 C.2       6 UNK         0.4892 
     43 O          27.4493  -29.5989  -43.3071 O.2       6 UNK        -0.5089 
     44 N          25.4237  -29.4485  -42.2961 N.am      7 UNK        -0.4243 
     45 CA         24.9878  -30.8311  -42.4794 C.3       7 UNK         0.0196 
     46 CB         24.7002  -31.1344  -43.9636 C.3       7 UNK        -0.2007 
     47 C          23.7379  -31.0752  -41.6293 C.2       7 UNK         0.5020 
     48 O          22.7927  -30.2887  -41.7009 O.2       7 UNK        -0.5147 
     49 N          23.7414  -32.1703  -40.8636 N.am      8 UNK        -0.4734 
     50 CA         22.5886  -32.6303  -40.0877 C.3       8 UNK         0.0238 
     51 CB         23.0946  -33.4621  -38.8968 C.3       8 UNK        -0.1912 
     52 C          21.6379  -33.4634  -40.9638 C.2       8 UNK         0.5038 
     53 O          22.0648  -34.0070  -41.9865 O.2       8 UNK        -0.5046 
     54 N          20.3809  -33.5795  -40.5243 N.am      9 UNK        -0.4200 
     55 CA         19.3252  -34.3580  -41.1919 C.3       9 UNK         0.0839 
     56 C          18.4731  -35.2256  -40.2206 C.2       9 UNK         0.5513 
     57 N          18.8524  -35.3739  -38.9560 N.am      9 UNK        -0.7519 
     58 O          17.4644  -35.7994  -40.6235 O.2       9 UNK        -0.4960 
     59 C59        18.4834  -33.4810  -42.1578 C.3       10 UNK        -0.0876 
     60 S60        17.5386  -32.1521  -41.3288 S.3       10 UNK        -0.2414 
     61 C61        18.4860  -30.6603  -41.7786 C.3       10 UNK         0.0169 
     62 H62        18.0928  -23.8788  -48.7220 H         1 UNK         0.0903 
     63 H63        16.5159  -23.5062  -48.0228 H         1 UNK         0.0903 
     64 H64        17.9891  -22.9705  -47.2116 H         1 UNK         0.0903 
     65 H65        15.5945  -25.2542  -46.9737 H         1 UNK         0.3096 
     66 H66        17.1524  -27.5871  -46.2431 H         1 UNK         0.1121 
     67 H67        14.1514  -27.0540  -46.0319 H         1 UNK         0.0849 
     68 H68        14.9467  -27.7533  -47.4109 H         1 UNK         0.0849 
     69 H69        15.8905  -31.3286  -46.3586 H         1 UNK         0.0865 
     70 H70        16.3732  -29.9582  -47.3230 H         1 UNK         0.0865 
     71 H71        16.4257  -30.6170  -43.5882 H         1 UNK         0.1346 
     72 H72        20.6743  -30.1851  -43.3034 H         1 UNK         0.1412 
     73 H73        18.7311  -29.7397  -47.0983 H         1 UNK         0.1426 
     74 H74        21.1309  -29.9220  -46.9924 H         1 UNK         0.0716 
     75 H75        21.9516  -30.2950  -45.5058 H         1 UNK         0.0716 
     76 H76        23.5129  -27.6998  -44.2902 H         1 UNK         0.0695 
     77 H77        22.3184  -28.7870  -43.6656 H         1 UNK         0.0695 
     78 H78        22.1256  -25.7470  -43.7645 H         1 UNK         0.0983 
     79 H79        19.9380  -27.5418  -43.5559 H         1 UNK         0.3095 
     80 H80        17.9219  -26.7829  -42.0479 H         1 UNK         0.0454 
     81 H81        17.5140  -23.8204  -42.7724 H         1 UNK         0.0851 
     82 H82        17.7237  -24.4344  -41.1377 H         1 UNK         0.0851 
     83 H83        16.3035  -24.8814  -42.0556 H         1 UNK         0.0851 
     84 H84        18.3922  -26.0738  -44.7824 H         1 UNK         0.2976 
     85 H85        21.0876  -27.8291  -41.1410 H         1 UNK         0.3116 
     86 H86        21.5891  -28.0265  -38.9927 H         1 UNK         0.0646 
     87 H87        22.3081  -25.0644  -39.3502 H         1 UNK         0.0847 
     88 H88        22.0384  -25.8497  -37.7948 H         1 UNK         0.0847 
     89 H89        20.7345  -25.7378  -38.9613 H         1 UNK         0.0847 
     90 H90        24.2060  -25.7148  -39.0092 H         1 UNK         0.3040 
     91 H91        26.0737  -27.6010  -37.8791 H         1 UNK         0.1015 
     92 H92        26.4641  -24.7246  -38.8779 H         1 UNK         0.0786 
     93 H93        27.6151  -25.6341  -37.9088 H         1 UNK         0.0786 
     94 H94        26.0565  -25.2002  -37.2281 H         1 UNK         0.0786 
     95 H95        25.3908  -26.5475  -41.1767 H         1 UNK         0.3172 
     96 H96        27.9861  -27.3904  -42.2404 H         1 UNK         0.0595 
     97 H97        25.4091  -26.5535  -43.6613 H         1 UNK         0.0839 
     98 H98        26.9586  -26.8419  -44.4353 H         1 UNK         0.0839 
     99 H99        26.7831  -25.5162  -43.2973 H         1 UNK         0.0839 
    100 H100       24.7893  -28.8686  -41.7616 H         1 UNK         0.2998 
    101 H101       25.7854  -31.4905  -42.1307 H         1 UNK         0.0822 
    102 H102       25.6122  -31.1258  -44.5600 H         1 UNK         0.0787 
    103 H103       24.2486  -32.1204  -44.0827 H         1 UNK         0.0787 
    104 H104       24.0156  -30.4054  -44.3944 H         1 UNK         0.0787 
    105 H105       24.5331  -32.7959  -40.9048 H         1 UNK         0.3055 
    106 H106       22.0446  -31.7624  -39.7059 H         1 UNK         0.1106 
    107 H107       22.2687  -33.7886  -38.2637 H         1 UNK         0.0828 
    108 H108       23.6269  -34.3563  -39.2241 H         1 UNK         0.0828 
    109 H109       23.7697  -32.8814  -38.2677 H         1 UNK         0.0828 
    110 H110       20.0983  -33.1047  -39.6791 H         1 UNK         0.2931 
    111 H111       19.8122  -35.1109  -41.8143 H         1 UNK         0.0412 
    112 H112       18.2923  -35.9463  -38.3432 H         1 UNK         0.3472 
    113 H113       19.7067  -34.9651  -38.6147 H         1 UNK         0.3472 
    114 H114       19.1377  -33.0511  -42.9170 H         1 UNK         0.0970 
    115 H115       17.7769  -34.1015  -42.7118 H         1 UNK         0.0970 
    116 H116       18.0267  -29.7965  -41.2965 H         1 UNK         0.0612 
    117 H117       19.4906  -30.7498  -41.3616 H         1 UNK         0.0612 
@<TRIPOS>BOND
     1    1    2 1    
     2    1   62 1    
     3    1   63 1    
     4    1   64 1    
     5    2    3 2    
     6    2    4 am   BACKBONE|DICT|INTERRES
     7    4    5 1    
     8    4   65 1    
     9    5    6 1    
    10    5   25 1    
    11    5   66 1    
    12    6    7 1    
    13    6   67 1    
    14    6   68 1    
    15    7    8 1    
    16    8    9 1    
    17    8   69 1    
    18    8   70 1    
    19    9   10 ar   
    20    9   14 ar   
    21   10   11 ar   
    22   10   71 1    
    23   11   12 ar   
    24   11   61 1    
    25   12   13 ar   
    26   12   72 1    
    27   13   14 ar   
    28   13   15 1    
    29   14   73 1    
    30   15   16 1    
    31   15   74 1    
    32   15   75 1    
    33   16   17 1    
    34   17   18 1    
    35   17   76 1    
    36   17   77 1    
    37   18   19 1    
    38   18   27 1    
    39   18   78 1    
    40   19   20 am   BACKBONE|DICT|INTERRES
    41   19   79 1    
    42   20   21 2    
    43   20   22 1    
    44   22   23 1    
    45   22   24 1    
    46   22   80 1    
    47   23   81 1    
    48   23   82 1    
    49   23   83 1    
    50   24   25 am   BACKBONE|DICT|INTERRES
    51   24   84 1    
    52   25   26 2    
    53   27   28 2    
    54   27   29 am   BACKBONE|DICT|INTERRES
    55   29   30 1    
    56   29   85 1    
    57   30   31 1    
    58   30   32 1    
    59   30   86 1    
    60   31   87 1    
    61   31   88 1    
    62   31   89 1    
    63   32   33 2    
    64   32   34 am   BACKBONE|DICT|INTERRES
    65   34   35 1    
    66   34   90 1    
    67   35   36 1    
    68   35   37 1    
    69   35   91 1    
    70   36   92 1    
    71   36   93 1    
    72   36   94 1    
    73   37   38 2    
    74   37   39 am   BACKBONE|DICT|INTERRES
    75   39   40 1    
    76   39   95 1    
    77   40   41 1    
    78   40   42 1    
    79   40   96 1    
    80   41   97 1    
    81   41   98 1    
    82   41   99 1    
    83   42   43 2    
    84   42   44 am   BACKBONE|DICT|INTERRES
    85   44   45 1    
    86   44  100 1    
    87   45   46 1    
    88   45   47 1    
    89   45  101 1    
    90   46  102 1    
    91   46  103 1    
    92   46  104 1    
    93   47   48 2    
    94   47   49 am   BACKBONE|DICT|INTERRES
    95   49   50 1    
    96   49  105 1    
    97   50   51 1    
    98   50   52 1    
    99   50  106 1    
   100   51  107 1    
   101   51  108 1    
   102   51  109 1    
   103   52   53 2    
   104   52   54 am   BACKBONE|DICT|INTERRES
   105   54   55 1    
   106   54  110 1    
   107   55   56 1    
   108   55   59 1    
   109   55  111 1    
   110   56   57 am   BACKBONE|DICT|INTERRES
   111   56   58 2    
   112   57  112 1    
   113   57  113 1    
   114   59   60 1    
   115   59  114 1    
   116   59  115 1    
   117   60   61 1    
   118   61  116 1    
   119   61  117 1    
@<TRIPOS>SUBSTRUCTURE
     1 UNK         1 GROUP             0       ****    0 ROOT    
