@<TRIPOS>MOLECULE
3R8
117   119    1
SMALL
USER_CHARGES


@<TRIPOS>ATOM
      1 CA         15.6435  -22.1912  -46.9400 C.3       0 UNK        -0.2013 
      2 C          16.7020  -23.2693  -46.7601 C.2       0 UNK         0.4866 
      3 O          17.7434  -23.2210  -47.4159 O.2       0 UNK        -0.5176 
      4 N          16.4405  -24.2472  -45.8844 N.am      1 UNK        -0.4884 
      5 CA         17.3613  -25.3385  -45.5510 C.3       1 UNK         0.0853 
      6 C6         16.6634  -26.4530  -44.7370 C.3       10 UNK        -0.0849 
      7 S7         15.2945  -27.2749  -45.6206 S.3       10 UNK        -0.2776 
      8 C8         16.0207  -28.9034  -46.0403 C.3       10 UNK         0.0316 
      9 C9         16.5836  -29.7161  -44.8686 C.ar      10 UNK        -0.0863 
     10 C10        17.5178  -30.7201  -45.1423 C.ar      10 UNK        -0.1009 
     11 C11        18.0891  -31.4698  -44.1103 C.ar      10 UNK        -0.0712 
     12 C12        17.7205  -31.2134  -42.7871 C.ar      10 UNK        -0.0894 
     13 C13        16.7913  -30.2119  -42.4933 C.ar      10 UNK        -0.0745 
     14 C14        16.2085  -29.4877  -43.5373 C.ar      10 UNK        -0.0972 
     15 C15        16.4200  -29.8986  -41.0490 C.3       10 UNK         0.0209 
     16 S16        17.8461  -29.3417  -40.0547 S.3       10 UNK        -0.2568 
     17 C17        18.5038  -27.9383  -41.0247 C.3       10 UNK        -0.0983 
     18 CA         19.8336  -28.3064  -41.7425 C.3       3 UNK         0.0876 
     19 N          20.1560  -27.3776  -42.8310 N.am      3 UNK        -0.4424 
     20 C          20.6448  -26.1319  -42.7155 C.2       2 UNK         0.4918 
     21 O          20.8941  -25.5804  -41.6432 O.2       2 UNK        -0.4875 
     22 CA         20.8792  -25.3697  -44.0319 C.3       2 UNK         0.0481 
     23 CB         22.1387  -25.8843  -44.7472 C.3       2 UNK        -0.1831 
     24 N          19.7223  -25.4872  -44.9222 N.am      2 UNK        -0.4498 
     25 C          18.5677  -24.8326  -44.7354 C.2       1 UNK         0.5027 
     26 O          18.4121  -23.9343  -43.9036 O.2       1 UNK        -0.4969 
     27 C          21.0492  -28.5049  -40.8093 C.2       3 UNK         0.5005 
     28 O          22.0426  -29.0944  -41.2389 O.2       3 UNK        -0.5279 
     29 N          20.9853  -27.9788  -39.5781 N.am      4 UNK        -0.4463 
     30 CA         22.0600  -28.0033  -38.5815 C.3       4 UNK         0.0283 
     31 CB         21.5646  -27.3511  -37.2819 C.3       4 UNK        -0.1875 
     32 C          23.3694  -27.3412  -39.0488 C.2       4 UNK         0.4949 
     33 O          24.4394  -27.7811  -38.6296 O.2       4 UNK        -0.5039 
     34 N          23.2840  -26.3498  -39.9500 N.am      5 UNK        -0.4663 
     35 CA         24.4484  -25.7202  -40.5867 C.3       5 UNK         0.0242 
     36 CB         24.0249  -24.4036  -41.2574 C.3       5 UNK        -0.1982 
     37 C          25.1706  -26.6425  -41.5895 C.2       5 UNK         0.5017 
     38 O          26.3332  -26.3876  -41.9029 O.2       5 UNK        -0.5012 
     39 N          24.4901  -27.7036  -42.0457 N.am      6 UNK        -0.4439 
     40 CA         25.0441  -28.7951  -42.8483 C.3       6 UNK         0.0297 
     41 CB         24.1346  -29.0277  -44.0696 C.3       6 UNK        -0.2006 
     42 C          25.2005  -30.0795  -42.0096 C.2       6 UNK         0.4892 
     43 O          25.3116  -31.1594  -42.5896 O.2       6 UNK        -0.5089 
     44 N          25.1765  -29.9564  -40.6709 N.am      7 UNK        -0.4243 
     45 CA         25.2619  -31.0318  -39.6731 C.3       7 UNK         0.0196 
     46 CB         26.6713  -31.6619  -39.6758 C.3       7 UNK        -0.2007 
     47 C          24.1357  -32.0789  -39.8006 C.2       7 UNK         0.5020 
     48 O          24.3753  -33.2649  -39.5719 O.2       7 UNK        -0.5147 
     49 N          22.9322  -31.6168  -40.1744 N.am      8 UNK        -0.4734 
     50 CA         21.7331  -32.4053  -40.4910 C.3       8 UNK         0.0238 
     51 CB         21.2460  -33.2266  -39.2781 C.3       8 UNK        -0.1912 
     52 C          21.8810  -33.2411  -41.7788 C.2       8 UNK         0.5038 
     53 O          21.2081  -34.2635  -41.9232 O.2       8 UNK        -0.5046 
     54 N          22.7215  -32.7555  -42.7024 N.am      9 UNK        -0.4200 
     55 CA         22.9896  -33.2961  -44.0433 C.3       9 UNK         0.0839 
     56 C          23.8179  -34.6152  -44.0294 C.2       9 UNK         0.5513 
     57 N          24.1163  -35.1760  -45.1946 N.am      9 UNK        -0.7519 
     58 O          24.2210  -35.1305  -42.9887 O.2       9 UNK        -0.4960 
     59 C59        21.7208  -33.3884  -44.9453 C.3       10 UNK        -0.0876 
     60 S60        20.7018  -31.8696  -44.9405 S.3       10 UNK        -0.2414 
     61 C61        19.0984  -32.5609  -44.4265 C.3       10 UNK         0.0169 
     62 H62        16.0553  -21.2153  -46.6843 H         1 UNK         0.0903 
     63 H63        15.3118  -22.1603  -47.9775 H         1 UNK         0.0903 
     64 H64        14.7713  -22.3666  -46.3105 H         1 UNK         0.0903 
     65 H65        15.5724  -24.2372  -45.3681 H         1 UNK         0.3096 
     66 H66        17.7295  -25.7644  -46.4874 H         1 UNK         0.1121 
     67 H67        17.3953  -27.2035  -44.4363 H         1 UNK         0.0849 
     68 H68        16.2602  -26.0495  -43.8056 H         1 UNK         0.0849 
     69 H69        15.2571  -29.5019  -46.5388 H         1 UNK         0.0865 
     70 H70        16.8081  -28.7373  -46.7773 H         1 UNK         0.0865 
     71 H71        17.8136  -30.9164  -46.1643 H         1 UNK         0.1346 
     72 H72        18.1658  -31.7816  -41.9816 H         1 UNK         0.1412 
     73 H73        15.4793  -28.7254  -43.3024 H         1 UNK         0.1426 
     74 H74        15.9962  -30.7920  -40.5886 H         1 UNK         0.0716 
     75 H75        15.6437  -29.1331  -41.0035 H         1 UNK         0.0716 
     76 H76        17.7551  -27.6486  -41.7633 H         1 UNK         0.0695 
     77 H77        18.6155  -27.0649  -40.3805 H         1 UNK         0.0695 
     78 H78        19.6884  -29.2701  -42.2327 H         1 UNK         0.0983 
     79 H79        20.0228  -27.7490  -43.7593 H         1 UNK         0.3095 
     80 H80        21.0361  -24.3163  -43.7896 H         1 UNK         0.0454 
     81 H81        22.0254  -26.9164  -45.0796 H         1 UNK         0.0851 
     82 H82        22.3701  -25.2769  -45.6223 H         1 UNK         0.0851 
     83 H83        23.0093  -25.8468  -44.0916 H         1 UNK         0.0851 
     84 H84        19.7751  -26.1895  -45.6463 H         1 UNK         0.2976 
     85 H85        20.1345  -27.5036  -39.3130 H         1 UNK         0.3116 
     86 H86        22.2838  -29.0515  -38.3725 H         1 UNK         0.0646 
     87 H87        22.3369  -27.3798  -36.5118 H         1 UNK         0.0847 
     88 H88        20.6936  -27.8710  -36.8825 H         1 UNK         0.0847 
     89 H89        21.2937  -26.3052  -37.4322 H         1 UNK         0.0847 
     90 H90        22.3686  -26.0581  -40.2799 H         1 UNK         0.3040 
     91 H91        25.1693  -25.4785  -39.8021 H         1 UNK         0.1015 
     92 H92        23.5502  -23.7294  -40.5443 H         1 UNK         0.0786 
     93 H93        23.3273  -24.5686  -42.0771 H         1 UNK         0.0786 
     94 H94        24.8896  -23.8813  -41.6694 H         1 UNK         0.0786 
     95 H95        23.5475  -27.8630  -41.7021 H         1 UNK         0.3172 
     96 H96        26.0395  -28.5346  -43.2127 H         1 UNK         0.0595 
     97 H97        24.0860  -28.1380  -44.6957 H         1 UNK         0.0839 
     98 H98        23.1183  -29.2934  -43.7754 H         1 UNK         0.0839 
     99 H99        24.5127  -29.8345  -44.6988 H         1 UNK         0.0839 
    100 H100       25.0648  -29.0275  -40.2818 H         1 UNK         0.2998 
    101 H101       25.1175  -30.5558  -38.7020 H         1 UNK         0.0822 
    102 H102       27.4455  -30.9027  -39.5650 H         1 UNK         0.0787 
    103 H103       26.7883  -32.3645  -38.8498 H         1 UNK         0.0787 
    104 H104       26.8671  -32.2096  -40.5984 H         1 UNK         0.0787 
    105 H105       22.8476  -30.6258  -40.3894 H         1 UNK         0.3055 
    106 H106       20.9522  -31.6767  -40.7145 H         1 UNK         0.1106 
    107 H107       20.2649  -33.6616  -39.4720 H         1 UNK         0.0828 
    108 H108       21.9216  -34.0499  -39.0453 H         1 UNK         0.0828 
    109 H109       21.1525  -32.6041  -38.3884 H         1 UNK         0.0828 
    110 H110       23.2996  -31.9651  -42.4484 H         1 UNK         0.2931 
    111 H111       23.6503  -32.5553  -44.4953 H         1 UNK         0.0412 
    112 H112       24.6608  -36.0248  -45.2009 H         1 UNK         0.3472 
    113 H113       23.8272  -34.7633  -46.0675 H         1 UNK         0.3472 
    114 H114       21.1119  -34.2435  -44.6467 H         1 UNK         0.0970 
    115 H115       22.0050  -33.5786  -45.9810 H         1 UNK         0.0970 
    116 H116       18.7104  -33.1992  -45.2216 H         1 UNK         0.0612 
    117 H117       19.2415  -33.2029  -43.5562 H         1 UNK         0.0612 
@<TRIPOS>BOND
     1    1    2 1    
     2    1   62 1    
     3    1   63 1    
     4    1   64 1    
     5    2    3 2    
     6    2    4 am   BACKBONE|DICT|INTERRES
     7    4    5 1    
     8    4   65 1    
     9    5    6 1    
    10    5   25 1    
    11    5   66 1    
    12    6    7 1    
    13    6   67 1    
    14    6   68 1    
    15    7    8 1    
    16    8    9 1    
    17    8   69 1    
    18    8   70 1    
    19    9   10 ar   
    20    9   14 ar   
    21   10   11 ar   
    22   10   71 1    
    23   11   12 ar   
    24   11   61 1    
    25   12   13 ar   
    26   12   72 1    
    27   13   14 ar   
    28   13   15 1    
    29   14   73 1    
    30   15   16 1    
    31   15   74 1    
    32   15   75 1    
    33   16   17 1    
    34   17   18 1    
    35   17   76 1    
    36   17   77 1    
    37   18   19 1    
    38   18   27 1    
    39   18   78 1    
    40   19   20 am   BACKBONE|DICT|INTERRES
    41   19   79 1    
    42   20   21 2    
    43   20   22 1    
    44   22   23 1    
    45   22   24 1    
    46   22   80 1    
    47   23   81 1    
    48   23   82 1    
    49   23   83 1    
    50   24   25 am   BACKBONE|DICT|INTERRES
    51   24   84 1    
    52   25   26 2    
    53   27   28 2    
    54   27   29 am   BACKBONE|DICT|INTERRES
    55   29   30 1    
    56   29   85 1    
    57   30   31 1    
    58   30   32 1    
    59   30   86 1    
    60   31   87 1    
    61   31   88 1    
    62   31   89 1    
    63   32   33 2    
    64   32   34 am   BACKBONE|DICT|INTERRES
    65   34   35 1    
    66   34   90 1    
    67   35   36 1    
    68   35   37 1    
    69   35   91 1    
    70   36   92 1    
    71   36   93 1    
    72   36   94 1    
    73   37   38 2    
    74   37   39 am   BACKBONE|DICT|INTERRES
    75   39   40 1    
    76   39   95 1    
    77   40   41 1    
    78   40   42 1    
    79   40   96 1    
    80   41   97 1    
    81   41   98 1    
    82   41   99 1    
    83   42   43 2    
    84   42   44 am   BACKBONE|DICT|INTERRES
    85   44   45 1    
    86   44  100 1    
    87   45   46 1    
    88   45   47 1    
    89   45  101 1    
    90   46  102 1    
    91   46  103 1    
    92   46  104 1    
    93   47   48 2    
    94   47   49 am   BACKBONE|DICT|INTERRES
    95   49   50 1    
    96   49  105 1    
    97   50   51 1    
    98   50   52 1    
    99   50  106 1    
   100   51  107 1    
   101   51  108 1    
   102   51  109 1    
   103   52   53 2    
   104   52   54 am   BACKBONE|DICT|INTERRES
   105   54   55 1    
   106   54  110 1    
   107   55   56 1    
   108   55   59 1    
   109   55  111 1    
   110   56   57 am   BACKBONE|DICT|INTERRES
   111   56   58 2    
   112   57  112 1    
   113   57  113 1    
   114   59   60 1    
   115   59  114 1    
   116   59  115 1    
   117   60   61 1    
   118   61  116 1    
   119   61  117 1    
@<TRIPOS>SUBSTRUCTURE
     1 UNK         1 GROUP             0       ****    0 ROOT    
