@<TRIPOS>MOLECULE
3R8
117   119    1
SMALL
USER_CHARGES


@<TRIPOS>ATOM
      1 CA         14.3057  -25.0342  -40.6269 C.3       0 UNK        -0.2013 
      2 C          14.8315  -24.9418  -42.0519 C.2       0 UNK         0.4866 
      3 O          14.7596  -23.8742  -42.6623 O.2       0 UNK        -0.5176 
      4 N          15.3508  -26.0534  -42.5882 N.am      1 UNK        -0.4884 
      5 CA         15.9690  -26.1273  -43.9165 C.3       1 UNK         0.0853 
      6 C6         15.9061  -27.5723  -44.4863 C.3       10 UNK        -0.0849 
      7 S7         15.8822  -27.5949  -46.3138 S.3       10 UNK        -0.2776 
      8 C8         15.9877  -29.3768  -46.6720 C.3       10 UNK         0.0316 
      9 C9         17.3553  -29.9626  -46.3446 C.ar      10 UNK        -0.0863 
     10 C10        17.5251  -30.7509  -45.2015 C.ar      10 UNK        -0.1009 
     11 C11        18.7636  -31.3341  -44.9197 C.ar      10 UNK        -0.0712 
     12 C12        19.8326  -31.1326  -45.7963 C.ar      10 UNK        -0.0894 
     13 C13        19.6897  -30.3161  -46.9227 C.ar      10 UNK        -0.0745 
     14 C14        18.4439  -29.7411  -47.1973 C.ar      10 UNK        -0.0972 
     15 C15        20.8822  -30.0701  -47.8424 C.3       10 UNK         0.0209 
     16 S16        21.7284  -28.4833  -47.5156 S.3       10 UNK        -0.2568 
     17 C17        22.3399  -28.7207  -45.8086 C.3       10 UNK        -0.0983 
     18 CA         22.6239  -27.4135  -45.0136 C.3       3 UNK         0.0876 
     19 N          21.5979  -26.3643  -45.1646 N.am      3 UNK        -0.4424 
     20 C          20.2774  -26.4763  -44.9679 C.2       2 UNK         0.4918 
     21 O          19.7482  -27.4888  -44.5066 O.2       2 UNK        -0.4875 
     22 CA         19.4243  -25.2454  -45.3406 C.3       2 UNK         0.0481 
     23 CB         19.5998  -24.8797  -46.8263 C.3       2 UNK        -0.1831 
     24 N          18.0016  -25.4817  -45.0974 N.am      2 UNK        -0.4498 
     25 C          17.4153  -25.5802  -43.8985 C.2       1 UNK         0.5027 
     26 O          17.9759  -25.2989  -42.8343 O.2       1 UNK        -0.4969 
     27 C          22.9336  -27.7782  -43.5442 C.2       3 UNK         0.5005 
     28 O          24.0781  -28.1184  -43.2397 O.2       3 UNK        -0.5279 
     29 N          21.9150  -27.7307  -42.6739 N.am      4 UNK        -0.4463 
     30 CA         21.8623  -28.2286  -41.2950 C.3       4 UNK         0.0283 
     31 CB         20.5189  -27.8195  -40.6717 C.3       4 UNK        -0.1875 
     32 C          23.0209  -27.8284  -40.3701 C.2       4 UNK         0.4949 
     33 O          23.3484  -28.6020  -39.4715 O.2       4 UNK        -0.5039 
     34 N          23.6452  -26.6701  -40.6204 N.am      5 UNK        -0.4663 
     35 CA         24.8504  -26.2060  -39.9252 C.3       5 UNK         0.0242 
     36 CB         25.1735  -24.7732  -40.3787 C.3       5 UNK        -0.1982 
     37 C          26.0743  -27.1230  -40.1235 C.2       5 UNK         0.5017 
     38 O          26.9332  -27.1681  -39.2420 O.2       5 UNK        -0.5012 
     39 N          26.1251  -27.8341  -41.2582 N.am      6 UNK        -0.4439 
     40 CA         27.1440  -28.8320  -41.5842 C.3       6 UNK         0.0297 
     41 CB         27.7763  -28.4838  -42.9419 C.3       6 UNK        -0.2006 
     42 C          26.5494  -30.2486  -41.6209 C.2       6 UNK         0.4892 
     43 O          27.2084  -31.1858  -41.1697 O.2       6 UNK        -0.5089 
     44 N          25.3311  -30.3887  -42.1644 N.am      7 UNK        -0.4243 
     45 CA         24.6528  -31.6721  -42.3679 C.3       7 UNK         0.0196 
     46 CB         23.5453  -31.4981  -43.4199 C.3       7 UNK        -0.2007 
     47 C          24.0879  -32.3061  -41.0845 C.2       7 UNK         0.5020 
     48 O          23.8801  -33.5197  -41.0761 O.2       7 UNK        -0.5147 
     49 N          23.8512  -31.4973  -40.0383 N.am      8 UNK        -0.4734 
     50 CA         23.3068  -31.8836  -38.7278 C.3       8 UNK         0.0238 
     51 CB         24.3163  -32.7596  -37.9543 C.3       8 UNK        -0.1912 
     52 C          21.9063  -32.5211  -38.8321 C.2       8 UNK         0.5038 
     53 O          21.6790  -33.6122  -38.3047 O.2       8 UNK        -0.5046 
     54 N          21.0009  -31.8260  -39.5336 N.am      9 UNK        -0.4200 
     55 CA         19.6205  -32.2620  -39.8157 C.3       9 UNK         0.0839 
     56 C          18.6909  -32.3748  -38.5706 C.2       9 UNK         0.5513 
     57 N          19.0294  -31.7858  -37.4300 N.am      9 UNK        -0.7519 
     58 O          17.6410  -33.0083  -38.6456 O.2       9 UNK        -0.4960 
     59 C59        18.9474  -31.3837  -40.9051 C.3       10 UNK        -0.0876 
     60 S60        19.9380  -31.2495  -42.4337 S.3       10 UNK        -0.2414 
     61 C61        18.9594  -32.1696  -43.6637 C.3       10 UNK         0.0169 
     62 H62        13.2486  -24.7714  -40.5990 H         1 UNK         0.0903 
     63 H63        14.4165  -26.0370  -40.2146 H         1 UNK         0.0903 
     64 H64        14.8464  -24.3414  -39.9826 H         1 UNK         0.0903 
     65 H65        15.4198  -26.8892  -42.0248 H         1 UNK         0.3096 
     66 H66        15.3914  -25.4747  -44.5761 H         1 UNK         0.1121 
     67 H67        16.7343  -28.1805  -44.1154 H         1 UNK         0.0849 
     68 H68        14.9938  -28.0705  -44.1538 H         1 UNK         0.0849 
     69 H69        15.1998  -29.9019  -46.1294 H         1 UNK         0.0865 
     70 H70        15.7773  -29.5333  -47.7311 H         1 UNK         0.0865 
     71 H71        16.6924  -30.9119  -44.5306 H         1 UNK         0.1346 
     72 H72        20.7907  -31.5834  -45.5761 H         1 UNK         0.1412 
     73 H73        18.3219  -29.1185  -48.0731 H         1 UNK         0.1426 
     74 H74        20.5460  -30.0789  -48.8801 H         1 UNK         0.0716 
     75 H75        21.6053  -30.8824  -47.7531 H         1 UNK         0.0716 
     76 H76        21.6119  -29.3156  -45.2605 H         1 UNK         0.0695 
     77 H77        23.2436  -29.3302  -45.8618 H         1 UNK         0.0695 
     78 H78        23.5398  -26.9799  -45.4185 H         1 UNK         0.0983 
     79 H79        21.9488  -25.4814  -45.5074 H         1 UNK         0.3095 
     80 H80        19.7487  -24.4039  -44.7255 H         1 UNK         0.0454 
     81 H81        19.3511  -25.7189  -47.4780 H         1 UNK         0.0851 
     82 H82        18.9645  -24.0390  -47.1063 H         1 UNK         0.0851 
     83 H83        20.6261  -24.5882  -47.0507 H         1 UNK         0.0851 
     84 H84        17.4710  -25.8151  -45.8915 H         1 UNK         0.2976 
     85 H85        21.0136  -27.5085  -43.0887 H         1 UNK         0.3116 
     86 H86        21.8865  -29.3161  -41.3632 H         1 UNK         0.0646 
     87 H87        19.6789  -28.1825  -41.2645 H         1 UNK         0.0847 
     88 H88        20.4255  -26.7354  -40.5957 H         1 UNK         0.0847 
     89 H89        20.4086  -28.2290  -39.6666 H         1 UNK         0.0847 
     90 H90        23.3087  -26.1042  -41.3861 H         1 UNK         0.3040 
     91 H91        24.6307  -26.1886  -38.8553 H         1 UNK         0.1015 
     92 H92        24.3492  -24.0928  -40.1641 H         1 UNK         0.0786 
     93 H93        25.3809  -24.7255  -41.4486 H         1 UNK         0.0786 
     94 H94        26.0522  -24.3884  -39.8589 H         1 UNK         0.0786 
     95 H95        25.3576  -27.7400  -41.9197 H         1 UNK         0.3172 
     96 H96        27.9368  -28.8285  -40.8332 H         1 UNK         0.0595 
     97 H97        28.5374  -29.2150  -43.2179 H         1 UNK         0.0839 
     98 H98        28.2607  -27.5077  -42.9126 H         1 UNK         0.0839 
     99 H99        27.0348  -28.4649  -43.7419 H         1 UNK         0.0839 
    100 H100       24.8679  -29.5668  -42.5470 H         1 UNK         0.2998 
    101 H101       25.3845  -32.3759  -42.7710 H         1 UNK         0.0822 
    102 H102       23.9565  -31.1748  -44.3759 H         1 UNK         0.0787 
    103 H103       23.0175  -32.4365  -43.5959 H         1 UNK         0.0787 
    104 H104       22.8041  -30.7640  -43.1074 H         1 UNK         0.0787 
    105 H105       24.0385  -30.5066  -40.1452 H         1 UNK         0.3055 
    106 H106       23.1779  -30.9609  -38.1592 H         1 UNK         0.1106 
    107 H107       24.4733  -33.7245  -38.4377 H         1 UNK         0.0828 
    108 H108       25.2847  -32.2663  -37.8693 H         1 UNK         0.0828 
    109 H109       23.9641  -32.9583  -36.9413 H         1 UNK         0.0828 
    110 H110       21.2818  -30.9526  -39.9511 H         1 UNK         0.2931 
    111 H111       19.6976  -33.2731  -40.2214 H         1 UNK         0.0412 
    112 H112       19.8894  -31.2665  -37.3567 H         1 UNK         0.3472 
    113 H113       18.4194  -31.8692  -36.6313 H         1 UNK         0.3472 
    114 H114       17.9537  -31.7663  -41.1428 H         1 UNK         0.0970 
    115 H115       18.7863  -30.3738  -40.5245 H         1 UNK         0.0970 
    116 H116       19.4850  -33.0920  -43.9141 H         1 UNK         0.0612 
    117 H117       17.9947  -32.4702  -43.2546 H         1 UNK         0.0612 
@<TRIPOS>BOND
     1    1    2 1    
     2    1   62 1    
     3    1   63 1    
     4    1   64 1    
     5    2    3 2    
     6    2    4 am   BACKBONE|DICT|INTERRES
     7    4    5 1    
     8    4   65 1    
     9    5    6 1    
    10    5   25 1    
    11    5   66 1    
    12    6    7 1    
    13    6   67 1    
    14    6   68 1    
    15    7    8 1    
    16    8    9 1    
    17    8   69 1    
    18    8   70 1    
    19    9   10 ar   
    20    9   14 ar   
    21   10   11 ar   
    22   10   71 1    
    23   11   12 ar   
    24   11   61 1    
    25   12   13 ar   
    26   12   72 1    
    27   13   14 ar   
    28   13   15 1    
    29   14   73 1    
    30   15   16 1    
    31   15   74 1    
    32   15   75 1    
    33   16   17 1    
    34   17   18 1    
    35   17   76 1    
    36   17   77 1    
    37   18   19 1    
    38   18   27 1    
    39   18   78 1    
    40   19   20 am   BACKBONE|DICT|INTERRES
    41   19   79 1    
    42   20   21 2    
    43   20   22 1    
    44   22   23 1    
    45   22   24 1    
    46   22   80 1    
    47   23   81 1    
    48   23   82 1    
    49   23   83 1    
    50   24   25 am   BACKBONE|DICT|INTERRES
    51   24   84 1    
    52   25   26 2    
    53   27   28 2    
    54   27   29 am   BACKBONE|DICT|INTERRES
    55   29   30 1    
    56   29   85 1    
    57   30   31 1    
    58   30   32 1    
    59   30   86 1    
    60   31   87 1    
    61   31   88 1    
    62   31   89 1    
    63   32   33 2    
    64   32   34 am   BACKBONE|DICT|INTERRES
    65   34   35 1    
    66   34   90 1    
    67   35   36 1    
    68   35   37 1    
    69   35   91 1    
    70   36   92 1    
    71   36   93 1    
    72   36   94 1    
    73   37   38 2    
    74   37   39 am   BACKBONE|DICT|INTERRES
    75   39   40 1    
    76   39   95 1    
    77   40   41 1    
    78   40   42 1    
    79   40   96 1    
    80   41   97 1    
    81   41   98 1    
    82   41   99 1    
    83   42   43 2    
    84   42   44 am   BACKBONE|DICT|INTERRES
    85   44   45 1    
    86   44  100 1    
    87   45   46 1    
    88   45   47 1    
    89   45  101 1    
    90   46  102 1    
    91   46  103 1    
    92   46  104 1    
    93   47   48 2    
    94   47   49 am   BACKBONE|DICT|INTERRES
    95   49   50 1    
    96   49  105 1    
    97   50   51 1    
    98   50   52 1    
    99   50  106 1    
   100   51  107 1    
   101   51  108 1    
   102   51  109 1    
   103   52   53 2    
   104   52   54 am   BACKBONE|DICT|INTERRES
   105   54   55 1    
   106   54  110 1    
   107   55   56 1    
   108   55   59 1    
   109   55  111 1    
   110   56   57 am   BACKBONE|DICT|INTERRES
   111   56   58 2    
   112   57  112 1    
   113   57  113 1    
   114   59   60 1    
   115   59  114 1    
   116   59  115 1    
   117   60   61 1    
   118   61  116 1    
   119   61  117 1    
@<TRIPOS>SUBSTRUCTURE
     1 UNK         1 GROUP             0       ****    0 ROOT    
