@<TRIPOS>MOLECULE
3R8
117   119    1
SMALL
USER_CHARGES


@<TRIPOS>ATOM
      1 CA         15.3548  -24.1012  -45.8070 C.3       0 UNK        -0.2013 
      2 C          16.1919  -24.8887  -46.8034 C.2       0 UNK         0.4866 
      3 O          16.6837  -24.3166  -47.7762 O.2       0 UNK        -0.5176 
      4 N          16.3482  -26.1994  -46.5746 N.am      1 UNK        -0.4884 
      5 CA         17.0867  -27.1266  -47.4460 C.3       1 UNK         0.0853 
      6 C6         16.7912  -28.6141  -47.1154 C.3       10 UNK        -0.0849 
      7 S7         15.0047  -28.9672  -46.9563 S.3       10 UNK        -0.2776 
      8 C8         14.9591  -30.1823  -45.5907 C.3       10 UNK         0.0316 
      9 C9         15.6053  -29.7122  -44.2868 C.ar      10 UNK        -0.0863 
     10 C10        16.3927  -30.6060  -43.5537 C.ar      10 UNK        -0.1009 
     11 C11        16.9734  -30.2204  -42.3420 C.ar      10 UNK        -0.0712 
     12 C12        16.7751  -28.9222  -41.8665 C.ar      10 UNK        -0.0894 
     13 C13        16.0193  -28.0067  -42.6027 C.ar      10 UNK        -0.0745 
     14 C14        15.4133  -28.4148  -43.7963 C.ar      10 UNK        -0.0972 
     15 C15        15.8641  -26.5737  -42.1185 C.3       10 UNK         0.0209 
     16 S16        17.0655  -25.4772  -42.9384 S.3       10 UNK        -0.2568 
     17 C17        18.5069  -25.5073  -41.8115 C.3       10 UNK        -0.0983 
     18 CA         19.5602  -26.6089  -42.1239 C.3       3 UNK         0.0876 
     19 N          19.9005  -26.7221  -43.5501 N.am      3 UNK        -0.4424 
     20 C          20.4444  -25.7933  -44.3510 C.2       2 UNK         0.4918 
     21 O          20.8789  -24.7075  -43.9709 O.2       2 UNK        -0.4875 
     22 CA         20.4560  -26.1428  -45.8414 C.3       2 UNK         0.0481 
     23 CB         21.4575  -27.2827  -46.1269 C.3       2 UNK        -0.1831 
     24 N          19.0852  -26.4942  -46.2066 N.am      2 UNK        -0.4498 
     25 C          18.6069  -26.8693  -47.3984 C.2       1 UNK         0.5027 
     26 O          19.2880  -27.0092  -48.4148 O.2       1 UNK        -0.4969 
     27 C          20.7745  -26.5172  -41.1696 C.2       3 UNK         0.5005 
     28 O          20.5819  -26.4989  -39.9518 O.2       3 UNK        -0.5279 
     29 N          22.0011  -26.4938  -41.7086 N.am      4 UNK        -0.4463 
     30 CA         23.2647  -26.4696  -40.9729 C.3       4 UNK         0.0283 
     31 CB         24.3650  -25.9101  -41.8940 C.3       4 UNK        -0.1875 
     32 C          23.6042  -27.8726  -40.4467 C.2       4 UNK         0.4949 
     33 O          24.5241  -28.5133  -40.9553 O.2       4 UNK        -0.5039 
     34 N          22.8355  -28.3332  -39.4520 N.am      5 UNK        -0.4663 
     35 CA         22.8232  -29.6954  -38.8976 C.3       5 UNK         0.0242 
     36 CB         21.7128  -29.7833  -37.8376 C.3       5 UNK        -0.1982 
     37 C          24.1593  -30.2315  -38.3390 C.2       5 UNK         0.5017 
     38 O          24.2539  -31.4251  -38.0517 O.2       5 UNK        -0.5012 
     39 N          25.1668  -29.3610  -38.1970 N.am      6 UNK        -0.4439 
     40 CA         26.5512  -29.7246  -37.8912 C.3       6 UNK         0.0297 
     41 CB         27.3090  -28.4670  -37.4353 C.3       6 UNK        -0.2006 
     42 C          27.2838  -30.3908  -39.0750 C.2       6 UNK         0.4892 
     43 O          28.2642  -31.0977  -38.8368 O.2       6 UNK        -0.5089 
     44 N          26.8219  -30.1497  -40.3110 N.am      7 UNK        -0.4243 
     45 CA         27.4081  -30.6778  -41.5469 C.3       7 UNK         0.0196 
     46 CB         28.1613  -29.5521  -42.2759 C.3       7 UNK        -0.2007 
     47 C          26.3472  -31.3038  -42.4647 C.2       7 UNK         0.5020 
     48 O          26.6036  -32.3571  -43.0494 O.2       7 UNK        -0.5147 
     49 N          25.1819  -30.6563  -42.5802 N.am      8 UNK        -0.4734 
     50 CA         24.0064  -31.1492  -43.2994 C.3       8 UNK         0.0238 
     51 CB         23.2156  -29.9321  -43.8215 C.3       8 UNK        -0.1912 
     52 C          23.1356  -32.0265  -42.3802 C.2       8 UNK         0.5038 
     53 O          23.4879  -32.2466  -41.2192 O.2       8 UNK        -0.5046 
     54 N          21.9918  -32.4809  -42.9085 N.am      9 UNK        -0.4200 
     55 CA         20.9563  -33.2416  -42.1860 C.3       9 UNK         0.0839 
     56 C          21.4336  -34.6606  -41.7443 C.2       9 UNK         0.5513 
     57 N          20.7480  -35.3101  -40.8120 N.am      9 UNK        -0.7519 
     58 O          22.3904  -35.2137  -42.2840 O.2       9 UNK        -0.4960 
     59 C59        20.2930  -32.4058  -41.0462 C.3       10 UNK        -0.0876 
     60 S60        19.5824  -30.8374  -41.6602 S.3       10 UNK        -0.2414 
     61 C61        17.8059  -31.2104  -41.5435 C.3       10 UNK         0.0169 
     62 H62        15.9836  -23.3954  -45.2649 H         1 UNK         0.0903 
     63 H63        14.5799  -23.5390  -46.3273 H         1 UNK         0.0903 
     64 H64        14.8685  -24.7512  -45.0798 H         1 UNK         0.0903 
     65 H65        15.9029  -26.6220  -45.7735 H         1 UNK         0.3096 
     66 H66        16.7614  -26.9397  -48.4722 H         1 UNK         0.1121 
     67 H67        17.1960  -29.2606  -47.8964 H         1 UNK         0.0849 
     68 H68        17.2989  -28.9070  -46.1949 H         1 UNK         0.0849 
     69 H69        13.9184  -30.4380  -45.3875 H         1 UNK         0.0865 
     70 H70        15.4348  -31.0996  -45.9415 H         1 UNK         0.0865 
     71 H71        16.5459  -31.6119  -43.9207 H         1 UNK         0.1346 
     72 H72        17.2263  -28.6218  -40.9307 H         1 UNK         0.1412 
     73 H73        14.7995  -27.7173  -44.3484 H         1 UNK         0.1426 
     74 H74        15.9684  -26.5118  -41.0344 H         1 UNK         0.0716 
     75 H75        14.8572  -26.2206  -42.3460 H         1 UNK         0.0716 
     76 H76        18.1474  -25.6025  -40.7854 H         1 UNK         0.0695 
     77 H77        18.9748  -24.5229  -41.8696 H         1 UNK         0.0695 
     78 H78        19.1071  -27.5674  -41.8778 H         1 UNK         0.0983 
     79 H79        19.6145  -27.5923  -43.9759 H         1 UNK         0.3095 
     80 H80        20.7484  -25.2547  -46.4046 H         1 UNK         0.0454 
     81 H81        21.1367  -28.2297  -45.6925 H         1 UNK         0.0851 
     82 H82        22.4417  -27.0506  -45.7177 H         1 UNK         0.0851 
     83 H83        21.5923  -27.4386  -47.1968 H         1 UNK         0.0851 
     84 H84        18.4052  -26.3539  -45.4699 H         1 UNK         0.2976 
     85 H85        22.0662  -26.5043  -42.7155 H         1 UNK         0.3116 
     86 H86        23.1693  -25.8002  -40.1152 H         1 UNK         0.0646 
     87 H87        24.5033  -26.5257  -42.7840 H         1 UNK         0.0847 
     88 H88        25.3238  -25.8693  -41.3755 H         1 UNK         0.0847 
     89 H89        24.1312  -24.8968  -42.2208 H         1 UNK         0.0847 
     90 H90        22.0773  -27.7267  -39.1561 H         1 UNK         0.3040 
     91 H91        22.5512  -30.3580  -39.7196 H         1 UNK         0.1015 
     92 H92        21.9014  -29.1089  -37.0015 H         1 UNK         0.0786 
     93 H93        21.6339  -30.7933  -37.4325 H         1 UNK         0.0786 
     94 H94        20.7400  -29.5323  -38.2616 H         1 UNK         0.0786 
     95 H95        24.9905  -28.4009  -38.4547 H         1 UNK         0.3172 
     96 H96        26.5445  -30.4371  -37.0636 H         1 UNK         0.0595 
     97 H97        27.3468  -27.7102  -38.2201 H         1 UNK         0.0839 
     98 H98        28.3386  -28.7084  -37.1672 H         1 UNK         0.0839 
     99 H99        26.8446  -28.0190  -36.5566 H         1 UNK         0.0839 
    100 H100       25.9925  -29.5717  -40.4142 H         1 UNK         0.2998 
    101 H101       28.1237  -31.4689  -41.3124 H         1 UNK         0.0822 
    102 H102       28.9759  -29.1628  -41.6651 H         1 UNK         0.0787 
    103 H103       28.5981  -29.9131  -43.2081 H         1 UNK         0.0787 
    104 H104       27.5009  -28.7197  -42.5231 H         1 UNK         0.0787 
    105 H105       25.0274  -29.8156  -42.0274 H         1 UNK         0.3055 
    106 H106       24.3267  -31.7572  -44.1485 H         1 UNK         0.1106 
    107 H107       22.4118  -30.2365  -44.4921 H         1 UNK         0.0828 
    108 H108       22.7617  -29.3663  -43.0071 H         1 UNK         0.0828 
    109 H109       23.8571  -29.2525  -44.3830 H         1 UNK         0.0828 
    110 H110       21.7878  -32.2842  -43.8767 H         1 UNK         0.2931 
    111 H111       20.1839  -33.4376  -42.9305 H         1 UNK         0.0412 
    112 H112       19.9381  -34.9036  -40.3721 H         1 UNK         0.3472 
    113 H113       21.0470  -36.2358  -40.5463 H         1 UNK         0.3472 
    114 H114       21.0171  -32.1776  -40.2633 H         1 UNK         0.0970 
    115 H115       19.5025  -32.9727  -40.5539 H         1 UNK         0.0970 
    116 H116       17.5009  -31.1906  -40.4962 H         1 UNK         0.0612 
    117 H117       17.6251  -32.2255  -41.9011 H         1 UNK         0.0612 
@<TRIPOS>BOND
     1    1    2 1    
     2    1   62 1    
     3    1   63 1    
     4    1   64 1    
     5    2    3 2    
     6    2    4 am   BACKBONE|DICT|INTERRES
     7    4    5 1    
     8    4   65 1    
     9    5    6 1    
    10    5   25 1    
    11    5   66 1    
    12    6    7 1    
    13    6   67 1    
    14    6   68 1    
    15    7    8 1    
    16    8    9 1    
    17    8   69 1    
    18    8   70 1    
    19    9   10 ar   
    20    9   14 ar   
    21   10   11 ar   
    22   10   71 1    
    23   11   12 ar   
    24   11   61 1    
    25   12   13 ar   
    26   12   72 1    
    27   13   14 ar   
    28   13   15 1    
    29   14   73 1    
    30   15   16 1    
    31   15   74 1    
    32   15   75 1    
    33   16   17 1    
    34   17   18 1    
    35   17   76 1    
    36   17   77 1    
    37   18   19 1    
    38   18   27 1    
    39   18   78 1    
    40   19   20 am   BACKBONE|DICT|INTERRES
    41   19   79 1    
    42   20   21 2    
    43   20   22 1    
    44   22   23 1    
    45   22   24 1    
    46   22   80 1    
    47   23   81 1    
    48   23   82 1    
    49   23   83 1    
    50   24   25 am   BACKBONE|DICT|INTERRES
    51   24   84 1    
    52   25   26 2    
    53   27   28 2    
    54   27   29 am   BACKBONE|DICT|INTERRES
    55   29   30 1    
    56   29   85 1    
    57   30   31 1    
    58   30   32 1    
    59   30   86 1    
    60   31   87 1    
    61   31   88 1    
    62   31   89 1    
    63   32   33 2    
    64   32   34 am   BACKBONE|DICT|INTERRES
    65   34   35 1    
    66   34   90 1    
    67   35   36 1    
    68   35   37 1    
    69   35   91 1    
    70   36   92 1    
    71   36   93 1    
    72   36   94 1    
    73   37   38 2    
    74   37   39 am   BACKBONE|DICT|INTERRES
    75   39   40 1    
    76   39   95 1    
    77   40   41 1    
    78   40   42 1    
    79   40   96 1    
    80   41   97 1    
    81   41   98 1    
    82   41   99 1    
    83   42   43 2    
    84   42   44 am   BACKBONE|DICT|INTERRES
    85   44   45 1    
    86   44  100 1    
    87   45   46 1    
    88   45   47 1    
    89   45  101 1    
    90   46  102 1    
    91   46  103 1    
    92   46  104 1    
    93   47   48 2    
    94   47   49 am   BACKBONE|DICT|INTERRES
    95   49   50 1    
    96   49  105 1    
    97   50   51 1    
    98   50   52 1    
    99   50  106 1    
   100   51  107 1    
   101   51  108 1    
   102   51  109 1    
   103   52   53 2    
   104   52   54 am   BACKBONE|DICT|INTERRES
   105   54   55 1    
   106   54  110 1    
   107   55   56 1    
   108   55   59 1    
   109   55  111 1    
   110   56   57 am   BACKBONE|DICT|INTERRES
   111   56   58 2    
   112   57  112 1    
   113   57  113 1    
   114   59   60 1    
   115   59  114 1    
   116   59  115 1    
   117   60   61 1    
   118   61  116 1    
   119   61  117 1    
@<TRIPOS>SUBSTRUCTURE
     1 UNK         1 GROUP             0       ****    0 ROOT    
