@<TRIPOS>MOLECULE
3R8
117   119    1
SMALL
USER_CHARGES


@<TRIPOS>ATOM
      1 CA         18.6007  -26.2256  -39.0985 C.3       0 UNK        -0.2013 
      2 C          18.2685  -26.2010  -40.5830 C.2       0 UNK         0.4866 
      3 O          19.0371  -26.7380  -41.3739 O.2       0 UNK        -0.5176 
      4 N          17.1342  -25.5823  -40.9444 N.am      1 UNK        -0.4884 
      5 CA         16.5629  -25.3916  -42.2886 C.3       1 UNK         0.0853 
      6 C6         15.7352  -26.5938  -42.8362 C.3       10 UNK        -0.0849 
      7 S7         16.6199  -28.1805  -43.0133 S.3       10 UNK        -0.2776 
      8 C8         16.5730  -28.4631  -44.8174 C.3       10 UNK         0.0316 
      9 C9         17.6067  -29.4926  -45.2661 C.ar      10 UNK        -0.0863 
     10 C10        17.7802  -30.6844  -44.5562 C.ar      10 UNK        -0.1009 
     11 C11        18.7727  -31.5967  -44.9190 C.ar      10 UNK        -0.0712 
     12 C12        19.5690  -31.3341  -46.0383 C.ar      10 UNK        -0.0894 
     13 C13        19.3798  -30.1688  -46.7908 C.ar      10 UNK        -0.0745 
     14 C14        18.3957  -29.2536  -46.3965 C.ar      10 UNK        -0.0972 
     15 C15        20.2131  -29.9354  -48.0502 C.3       10 UNK         0.0209 
     16 S16        20.8693  -28.2398  -48.2139 S.3       10 UNK        -0.2568 
     17 C17        22.1203  -28.2084  -46.8886 C.3       10 UNK        -0.0983 
     18 CA         22.5110  -26.7613  -46.4627 C.3       3 UNK         0.0876 
     19 N          21.3710  -25.9262  -46.0543 N.am      3 UNK        -0.4424 
     20 C          20.4235  -26.2107  -45.1490 C.2       2 UNK         0.4918 
     21 O          20.3782  -27.2435  -44.4787 O.2       2 UNK        -0.4875 
     22 CA         19.3162  -25.1550  -45.0030 C.3       2 UNK         0.0481 
     23 CB         18.5438  -24.9636  -46.3266 C.3       2 UNK        -0.1831 
     24 N          18.3914  -25.5489  -43.9429 N.am      2 UNK        -0.4498 
     25 C          17.5213  -24.7498  -43.3182 C.2       1 UNK         0.5027 
     26 O          17.4360  -23.5395  -43.5375 O.2       1 UNK        -0.4969 
     27 C          23.6375  -26.7773  -45.4074 C.2       3 UNK         0.5005 
     28 O          23.4364  -26.3926  -44.2540 O.2       3 UNK        -0.5279 
     29 N          24.8199  -27.2663  -45.8120 N.am      4 UNK        -0.4463 
     30 CA         25.9589  -27.5233  -44.9183 C.3       4 UNK         0.0283 
     31 CB         27.2066  -27.8370  -45.7594 C.3       4 UNK        -0.1875 
     32 C          25.6882  -28.6598  -43.9121 C.2       4 UNK         0.4949 
     33 O          26.3291  -28.7138  -42.8631 O.2       4 UNK        -0.5039 
     34 N          24.7217  -29.5279  -44.2408 N.am      5 UNK        -0.4663 
     35 CA         24.2274  -30.6244  -43.4098 C.3       5 UNK         0.0242 
     36 CB         23.4414  -31.5968  -44.3044 C.3       5 UNK        -0.1982 
     37 C          23.3681  -30.1743  -42.2121 C.2       5 UNK         0.5017 
     38 O          23.0207  -31.0273  -41.3964 O.2       5 UNK        -0.5012 
     39 N          23.0512  -28.8728  -42.1005 N.am      6 UNK        -0.4439 
     40 CA         22.2259  -28.2538  -41.0513 C.3       6 UNK         0.0297 
     41 CB         22.2565  -26.7269  -41.2193 C.3       6 UNK        -0.2006 
     42 C          22.6004  -28.6194  -39.6032 C.2       6 UNK         0.4892 
     43 O          21.7126  -28.6936  -38.7540 O.2       6 UNK        -0.5089 
     44 N          23.8925  -28.8742  -39.3516 N.am      7 UNK        -0.4243 
     45 CA         24.4181  -29.3464  -38.0673 C.3       7 UNK         0.0196 
     46 CB         25.9542  -29.3417  -38.1219 C.3       7 UNK        -0.2007 
     47 C          23.8992  -30.7384  -37.6539 C.2       7 UNK         0.5020 
     48 O          23.8372  -31.0197  -36.4568 O.2       7 UNK        -0.5147 
     49 N          23.5383  -31.5757  -38.6351 N.am      8 UNK        -0.4734 
     50 CA         22.9320  -32.8914  -38.4326 C.3       8 UNK         0.0238 
     51 CB         23.6058  -33.9105  -39.3671 C.3       8 UNK        -0.1912 
     52 C          21.4182  -32.8482  -38.6885 C.2       8 UNK         0.5038 
     53 O          20.6662  -33.4610  -37.9294 O.2       8 UNK        -0.5046 
     54 N          21.0006  -32.1438  -39.7494 N.am      9 UNK        -0.4200 
     55 CA         19.5970  -32.0185  -40.1715 C.3       9 UNK         0.0839 
     56 C          18.7078  -31.1648  -39.2236 C.2       9 UNK         0.5513 
     57 N          19.2522  -30.2365  -38.4472 N.am      9 UNK        -0.7519 
     58 O          17.4964  -31.3631  -39.1829 O.2       9 UNK        -0.4960 
     59 C59        19.4733  -31.5262  -41.6361 C.3       10 UNK        -0.0876 
     60 S60        20.2627  -32.6617  -42.8314 S.3       10 UNK        -0.2414 
     61 C61        18.9742  -32.8663  -44.1026 C.3       10 UNK         0.0169 
     62 H62        18.8211  -27.2455  -38.7836 H         1 UNK         0.0903 
     63 H63        19.4815  -25.6149  -38.9022 H         1 UNK         0.0903 
     64 H64        17.7801  -25.8514  -38.4869 H         1 UNK         0.0903 
     65 H65        16.5875  -25.1547  -40.2097 H         1 UNK         0.3096 
     66 H66        15.8183  -24.6106  -42.1219 H         1 UNK         0.1121 
     67 H67        14.9004  -26.7783  -42.1585 H         1 UNK         0.0849 
     68 H68        15.2701  -26.3268  -43.7869 H         1 UNK         0.0849 
     69 H69        15.5772  -28.8024  -45.1048 H         1 UNK         0.0865 
     70 H70        16.7425  -27.5157  -45.3301 H         1 UNK         0.0865 
     71 H71        17.1535  -30.8890  -43.7000 H         1 UNK         0.1346 
     72 H72        20.3296  -32.0465  -46.3274 H         1 UNK         0.1412 
     73 H73        18.2528  -28.3482  -46.9692 H         1 UNK         0.1426 
     74 H74        19.5870  -30.1477  -48.9176 H         1 UNK         0.0716 
     75 H75        21.0486  -30.6357  -48.0968 H         1 UNK         0.0716 
     76 H76        21.7516  -28.7784  -46.0341 H         1 UNK         0.0695 
     77 H77        22.9892  -28.7537  -47.2600 H         1 UNK         0.0695 
     78 H78        22.9291  -26.2622  -47.3386 H         1 UNK         0.0983 
     79 H79        21.3200  -25.0318  -46.5191 H         1 UNK         0.3095 
     80 H80        19.7919  -24.2144  -44.7188 H         1 UNK         0.0454 
     81 H81        19.1991  -24.6235  -47.1286 H         1 UNK         0.0851 
     82 H82        18.0823  -25.8933  -46.6591 H         1 UNK         0.0851 
     83 H83        17.7557  -24.2172  -46.2292 H         1 UNK         0.0851 
     84 H84        18.4995  -26.5043  -43.6099 H         1 UNK         0.2976 
     85 H85        24.9351  -27.5372  -46.7790 H         1 UNK         0.3116 
     86 H86        26.1524  -26.6151  -44.3432 H         1 UNK         0.0646 
     87 H87        28.0748  -28.0045  -45.1202 H         1 UNK         0.0847 
     88 H88        27.4545  -27.0118  -46.4272 H         1 UNK         0.0847 
     89 H89        27.0725  -28.7336  -46.3658 H         1 UNK         0.0847 
     90 H90        24.2613  -29.4002  -45.1290 H         1 UNK         0.3040 
     91 H91        25.0897  -31.1553  -43.0004 H         1 UNK         0.1015 
     92 H92        24.0413  -31.9412  -45.1469 H         1 UNK         0.0786 
     93 H93        22.5330  -31.1388  -44.6991 H         1 UNK         0.0786 
     94 H94        23.1413  -32.4829  -43.7435 H         1 UNK         0.0786 
     95 H95        23.3623  -28.2477  -42.8338 H         1 UNK         0.3172 
     96 H96        21.2002  -28.5899  -41.2117 H         1 UNK         0.0595 
     97 H97        21.7910  -26.4281  -42.1585 H         1 UNK         0.0839 
     98 H98        23.2738  -26.3346  -41.2049 H         1 UNK         0.0839 
     99 H99        21.6996  -26.2317  -40.4225 H         1 UNK         0.0839 
    100 H100       24.5508  -28.7908  -40.1132 H         1 UNK         0.2998 
    101 H101       24.0985  -28.6394  -37.2988 H         1 UNK         0.0822 
    102 H102       26.3418  -28.3433  -38.3260 H         1 UNK         0.0787 
    103 H103       26.3797  -29.6644  -37.1705 H         1 UNK         0.0787 
    104 H104       26.3324  -30.0142  -38.8932 H         1 UNK         0.0787 
    105 H105       23.5778  -31.2469  -39.5961 H         1 UNK         0.3055 
    106 H106       23.0843  -33.2249  -37.4035 H         1 UNK         0.1106 
    107 H107       23.4877  -33.6399  -40.4175 H         1 UNK         0.0828 
    108 H108       24.6731  -33.9901  -39.1606 H         1 UNK         0.0828 
    109 H109       23.1751  -34.9040  -39.2358 H         1 UNK         0.0828 
    110 H110       21.6901  -31.7012  -40.3514 H         1 UNK         0.2931 
    111 H111       19.1750  -33.0253  -40.1422 H         1 UNK         0.0412 
    112 H112       18.6572  -29.7106  -37.8285 H         1 UNK         0.3472 
    113 H113       20.2342  -29.9930  -38.5207 H         1 UNK         0.3472 
    114 H114       19.9167  -30.5361  -41.7526 H         1 UNK         0.0970 
    115 H115       18.4204  -31.4168  -41.8953 H         1 UNK         0.0970 
    116 H116       18.0402  -33.1742  -43.6299 H         1 UNK         0.0612 
    117 H117       19.2637  -33.6840  -44.7641 H         1 UNK         0.0612 
@<TRIPOS>BOND
     1    1    2 1    
     2    1   62 1    
     3    1   63 1    
     4    1   64 1    
     5    2    3 2    
     6    2    4 am   BACKBONE|DICT|INTERRES
     7    4    5 1    
     8    4   65 1    
     9    5    6 1    
    10    5   25 1    
    11    5   66 1    
    12    6    7 1    
    13    6   67 1    
    14    6   68 1    
    15    7    8 1    
    16    8    9 1    
    17    8   69 1    
    18    8   70 1    
    19    9   10 ar   
    20    9   14 ar   
    21   10   11 ar   
    22   10   71 1    
    23   11   12 ar   
    24   11   61 1    
    25   12   13 ar   
    26   12   72 1    
    27   13   14 ar   
    28   13   15 1    
    29   14   73 1    
    30   15   16 1    
    31   15   74 1    
    32   15   75 1    
    33   16   17 1    
    34   17   18 1    
    35   17   76 1    
    36   17   77 1    
    37   18   19 1    
    38   18   27 1    
    39   18   78 1    
    40   19   20 am   BACKBONE|DICT|INTERRES
    41   19   79 1    
    42   20   21 2    
    43   20   22 1    
    44   22   23 1    
    45   22   24 1    
    46   22   80 1    
    47   23   81 1    
    48   23   82 1    
    49   23   83 1    
    50   24   25 am   BACKBONE|DICT|INTERRES
    51   24   84 1    
    52   25   26 2    
    53   27   28 2    
    54   27   29 am   BACKBONE|DICT|INTERRES
    55   29   30 1    
    56   29   85 1    
    57   30   31 1    
    58   30   32 1    
    59   30   86 1    
    60   31   87 1    
    61   31   88 1    
    62   31   89 1    
    63   32   33 2    
    64   32   34 am   BACKBONE|DICT|INTERRES
    65   34   35 1    
    66   34   90 1    
    67   35   36 1    
    68   35   37 1    
    69   35   91 1    
    70   36   92 1    
    71   36   93 1    
    72   36   94 1    
    73   37   38 2    
    74   37   39 am   BACKBONE|DICT|INTERRES
    75   39   40 1    
    76   39   95 1    
    77   40   41 1    
    78   40   42 1    
    79   40   96 1    
    80   41   97 1    
    81   41   98 1    
    82   41   99 1    
    83   42   43 2    
    84   42   44 am   BACKBONE|DICT|INTERRES
    85   44   45 1    
    86   44  100 1    
    87   45   46 1    
    88   45   47 1    
    89   45  101 1    
    90   46  102 1    
    91   46  103 1    
    92   46  104 1    
    93   47   48 2    
    94   47   49 am   BACKBONE|DICT|INTERRES
    95   49   50 1    
    96   49  105 1    
    97   50   51 1    
    98   50   52 1    
    99   50  106 1    
   100   51  107 1    
   101   51  108 1    
   102   51  109 1    
   103   52   53 2    
   104   52   54 am   BACKBONE|DICT|INTERRES
   105   54   55 1    
   106   54  110 1    
   107   55   56 1    
   108   55   59 1    
   109   55  111 1    
   110   56   57 am   BACKBONE|DICT|INTERRES
   111   56   58 2    
   112   57  112 1    
   113   57  113 1    
   114   59   60 1    
   115   59  114 1    
   116   59  115 1    
   117   60   61 1    
   118   61  116 1    
   119   61  117 1    
@<TRIPOS>SUBSTRUCTURE
     1 UNK         1 GROUP             0       ****    0 ROOT    
