@<TRIPOS>MOLECULE
3R8
117   119    1
SMALL
USER_CHARGES


@<TRIPOS>ATOM
      1 CA         19.5477  -28.8865  -42.3836 C.3       0 UNK        -0.2013 
      2 C          19.5181  -27.4849  -42.9594 C.2       0 UNK         0.4866 
      3 O          20.5769  -26.9534  -43.2986 O.2       0 UNK        -0.5176 
      4 N          18.3250  -26.8889  -43.0660 N.am      1 UNK        -0.4884 
      5 CA         18.0664  -25.5026  -43.4625 C.3       1 UNK         0.0853 
      6 C6         16.5913  -25.0962  -43.1859 C.3       10 UNK        -0.0849 
      7 S7         15.2778  -25.9371  -44.1470 S.3       10 UNK        -0.2776 
      8 C8         15.0401  -27.5372  -43.2901 C.3       10 UNK         0.0316 
      9 C9         15.8296  -28.7132  -43.8766 C.ar      10 UNK        -0.0863 
     10 C10        16.0860  -29.8294  -43.0703 C.ar      10 UNK        -0.1009 
     11 C11        16.7733  -30.9380  -43.5779 C.ar      10 UNK        -0.0712 
     12 C12        17.2099  -30.9276  -44.9051 C.ar      10 UNK        -0.0894 
     13 C13        16.9552  -29.8286  -45.7282 C.ar      10 UNK        -0.0745 
     14 C14        16.2620  -28.7305  -45.2109 C.ar      10 UNK        -0.0972 
     15 C15        17.3937  -29.8451  -47.1877 C.3       10 UNK         0.0209 
     16 S16        18.6479  -28.5799  -47.5647 S.3       10 UNK        -0.2568 
     17 C17        20.0620  -29.1637  -46.5760 C.3       10 UNK        -0.0983 
     18 CA         21.2810  -28.2106  -46.6636 C.3       3 UNK         0.0876 
     19 N          20.9703  -26.8664  -46.1660 N.am      3 UNK        -0.4424 
     20 C          21.0604  -25.7309  -46.8694 C.2       2 UNK         0.4918 
     21 O          21.4774  -25.6760  -48.0274 O.2       2 UNK        -0.4875 
     22 CA         20.6322  -24.4277  -46.1553 C.3       2 UNK         0.0481 
     23 CB         19.9663  -23.4198  -47.1159 C.3       2 UNK        -0.1831 
     24 N          19.8102  -24.6478  -44.9552 N.am      2 UNK        -0.4498 
     25 C          18.5806  -25.1862  -44.8883 C.2       1 UNK         0.5027 
     26 O          17.9091  -25.4805  -45.8767 O.2       1 UNK        -0.4969 
     27 C          22.4723  -28.8119  -45.8957 C.2       3 UNK         0.5005 
     28 O          23.2759  -29.5242  -46.5001 O.2       3 UNK        -0.5279 
     29 N          22.5673  -28.5274  -44.5892 N.am      4 UNK        -0.4463 
     30 CA         23.6028  -29.0392  -43.6868 C.3       4 UNK         0.0283 
     31 CB         23.0880  -30.3078  -42.9854 C.3       4 UNK        -0.1875 
     32 C          24.0770  -27.9814  -42.6738 C.2       4 UNK         0.4949 
     33 O          25.1908  -28.1113  -42.1633 O.2       4 UNK        -0.5039 
     34 N          23.2628  -26.9407  -42.4281 N.am      5 UNK        -0.4663 
     35 CA         23.5375  -25.7667  -41.5942 C.3       5 UNK         0.0242 
     36 CB         24.6019  -24.8655  -42.2612 C.3       5 UNK        -0.1982 
     37 C          23.8604  -26.1443  -40.1375 C.2       5 UNK         0.5017 
     38 O          22.9371  -26.4204  -39.3711 O.2       5 UNK        -0.5012 
     39 N          25.1519  -26.1369  -39.7822 N.am      6 UNK        -0.4439 
     40 CA         25.6597  -26.5005  -38.4587 C.3       6 UNK         0.0297 
     41 CB         27.1033  -25.9912  -38.3154 C.3       6 UNK        -0.2006 
     42 C          25.5919  -28.0110  -38.1684 C.2       6 UNK         0.4892 
     43 O          25.5396  -28.3863  -36.9960 O.2       6 UNK        -0.5089 
     44 N          25.6062  -28.8469  -39.2161 N.am      7 UNK        -0.4243 
     45 CA         25.4648  -30.2982  -39.1043 C.3       7 UNK         0.0196 
     46 CB         26.2027  -30.9708  -40.2733 C.3       7 UNK        -0.2007 
     47 C          23.9808  -30.6952  -39.0825 C.2       7 UNK         0.5020 
     48 O          23.1504  -30.0193  -39.6928 O.2       7 UNK        -0.5147 
     49 N          23.6753  -31.7985  -38.3917 N.am      8 UNK        -0.4734 
     50 CA         22.3334  -32.3802  -38.3282 C.3       8 UNK         0.0238 
     51 CB         22.2092  -33.2083  -37.0381 C.3       8 UNK        -0.1912 
     52 C          22.0525  -33.2607  -39.5564 C.2       8 UNK         0.5038 
     53 O          22.9821  -33.8548  -40.1099 O.2       8 UNK        -0.5046 
     54 N          20.7716  -33.3578  -39.9291 N.am      9 UNK        -0.4200 
     55 CA         20.2705  -34.2570  -40.9789 C.3       9 UNK         0.0839 
     56 C          20.3468  -35.7490  -40.5554 C.2       9 UNK         0.5513 
     57 N          20.5945  -36.6484  -41.4975 N.am      9 UNK        -0.7519 
     58 O          20.1409  -36.0997  -39.3950 O.2       9 UNK        -0.4960 
     59 C59        18.8272  -33.8828  -41.4040 C.3       10 UNK        -0.0876 
     60 S60        18.7514  -32.2171  -42.1357 S.3       10 UNK        -0.2414 
     61 C61        17.0284  -32.1632  -42.7111 C.3       10 UNK         0.0169 
     62 H62        19.8055  -29.6085  -43.1569 H         1 UNK         0.0903 
     63 H63        20.2921  -28.9493  -41.5904 H         1 UNK         0.0903 
     64 H64        18.5874  -29.1674  -41.9546 H         1 UNK         0.0903 
     65 H65        17.4949  -27.4330  -42.8785 H         1 UNK         0.3096 
     66 H66        18.6633  -24.8916  -42.7812 H         1 UNK         0.1121 
     67 H67        16.3717  -25.2248  -42.1248 H         1 UNK         0.0849 
     68 H68        16.4797  -24.0254  -43.3656 H         1 UNK         0.0849 
     69 H69        15.2645  -27.4166  -42.2292 H         1 UNK         0.0865 
     70 H70        13.9808  -27.7912  -43.3460 H         1 UNK         0.0865 
     71 H71        15.7413  -29.8418  -42.0450 H         1 UNK         0.1346 
     72 H72        17.7394  -31.7850  -45.2978 H         1 UNK         0.1412 
     73 H73        16.0651  -27.8912  -45.8634 H         1 UNK         0.1426 
     74 H74        16.5218  -29.6709  -47.8194 H         1 UNK         0.0716 
     75 H75        17.7827  -30.8251  -47.4686 H         1 UNK         0.0716 
     76 H76        19.7366  -29.2772  -45.5413 H         1 UNK         0.0695 
     77 H77        20.3279  -30.1622  -46.9290 H         1 UNK         0.0695 
     78 H78        21.5846  -28.1549  -47.7114 H         1 UNK         0.0983 
     79 H79        20.6294  -26.8018  -45.2136 H         1 UNK         0.3095 
     80 H80        21.5563  -23.9717  -45.7974 H         1 UNK         0.0454 
     81 H81        20.6513  -23.1279  -47.9127 H         1 UNK         0.0851 
     82 H82        19.0789  -23.8375  -47.5921 H         1 UNK         0.0851 
     83 H83        19.6717  -22.5088  -46.5954 H         1 UNK         0.0851 
     84 H84        20.2929  -24.4893  -44.0808 H         1 UNK         0.2976 
     85 H85        21.8629  -27.9290  -44.1708 H         1 UNK         0.3116 
     86 H86        24.4846  -29.3099  -44.2714 H         1 UNK         0.0646 
     87 H87        22.2403  -30.0958  -42.3351 H         1 UNK         0.0847 
     88 H88        23.8627  -30.7555  -42.3649 H         1 UNK         0.0847 
     89 H89        22.7773  -31.0649  -43.7053 H         1 UNK         0.0847 
     90 H90        22.3219  -26.9564  -42.8104 H         1 UNK         0.3040 
     91 H91        22.6080  -25.1957  -41.5554 H         1 UNK         0.1015 
     92 H92        24.2521  -24.5052  -43.2288 H         1 UNK         0.0786 
     93 H93        25.5455  -25.3850  -42.4304 H         1 UNK         0.0786 
     94 H94        24.8112  -23.9856  -41.6510 H         1 UNK         0.0786 
     95 H95        25.8362  -25.9295  -40.4957 H         1 UNK         0.3172 
     96 H96        25.0463  -25.9951  -37.7096 H         1 UNK         0.0595 
     97 H97        27.1585  -24.9098  -38.4420 H         1 UNK         0.0839 
     98 H98        27.7693  -26.4512  -39.0466 H         1 UNK         0.0839 
     99 H99        27.5005  -26.2198  -37.3252 H         1 UNK         0.0839 
    100 H100       25.5642  -28.4615  -40.1542 H         1 UNK         0.2998 
    101 H101       25.9276  -30.6361  -38.1741 H         1 UNK         0.0822 
    102 H102       25.8511  -30.6090  -41.2386 H         1 UNK         0.0787 
    103 H103       27.2749  -30.7809  -40.2212 H         1 UNK         0.0787 
    104 H104       26.0637  -32.0528  -40.2578 H         1 UNK         0.0787 
    105 H105       24.4189  -32.3325  -37.9648 H         1 UNK         0.3055 
    106 H106       21.5968  -31.5734  -38.2972 H         1 UNK         0.1106 
    107 H107       22.3807  -32.5944  -36.1536 H         1 UNK         0.0828 
    108 H108       21.2112  -33.6387  -36.9432 H         1 UNK         0.0828 
    109 H109       22.9212  -34.0346  -37.0174 H         1 UNK         0.0828 
    110 H110       20.0676  -32.8543  -39.4109 H         1 UNK         0.2931 
    111 H111       20.9186  -34.1285  -41.8490 H         1 UNK         0.0412 
    112 H112       20.6325  -37.6244  -41.2465 H         1 UNK         0.3472 
    113 H113       20.7563  -36.3711  -42.4537 H         1 UNK         0.3472 
    114 H114       18.1438  -33.9337  -40.5542 H         1 UNK         0.0970 
    115 H115       18.4527  -34.5927  -42.1443 H         1 UNK         0.0970 
    116 H116       16.8076  -33.0642  -43.2854 H         1 UNK         0.0612 
    117 H117       16.3607  -32.1727  -41.8482 H         1 UNK         0.0612 
@<TRIPOS>BOND
     1    1    2 1    
     2    1   62 1    
     3    1   63 1    
     4    1   64 1    
     5    2    3 2    
     6    2    4 am   BACKBONE|DICT|INTERRES
     7    4    5 1    
     8    4   65 1    
     9    5    6 1    
    10    5   25 1    
    11    5   66 1    
    12    6    7 1    
    13    6   67 1    
    14    6   68 1    
    15    7    8 1    
    16    8    9 1    
    17    8   69 1    
    18    8   70 1    
    19    9   10 ar   
    20    9   14 ar   
    21   10   11 ar   
    22   10   71 1    
    23   11   12 ar   
    24   11   61 1    
    25   12   13 ar   
    26   12   72 1    
    27   13   14 ar   
    28   13   15 1    
    29   14   73 1    
    30   15   16 1    
    31   15   74 1    
    32   15   75 1    
    33   16   17 1    
    34   17   18 1    
    35   17   76 1    
    36   17   77 1    
    37   18   19 1    
    38   18   27 1    
    39   18   78 1    
    40   19   20 am   BACKBONE|DICT|INTERRES
    41   19   79 1    
    42   20   21 2    
    43   20   22 1    
    44   22   23 1    
    45   22   24 1    
    46   22   80 1    
    47   23   81 1    
    48   23   82 1    
    49   23   83 1    
    50   24   25 am   BACKBONE|DICT|INTERRES
    51   24   84 1    
    52   25   26 2    
    53   27   28 2    
    54   27   29 am   BACKBONE|DICT|INTERRES
    55   29   30 1    
    56   29   85 1    
    57   30   31 1    
    58   30   32 1    
    59   30   86 1    
    60   31   87 1    
    61   31   88 1    
    62   31   89 1    
    63   32   33 2    
    64   32   34 am   BACKBONE|DICT|INTERRES
    65   34   35 1    
    66   34   90 1    
    67   35   36 1    
    68   35   37 1    
    69   35   91 1    
    70   36   92 1    
    71   36   93 1    
    72   36   94 1    
    73   37   38 2    
    74   37   39 am   BACKBONE|DICT|INTERRES
    75   39   40 1    
    76   39   95 1    
    77   40   41 1    
    78   40   42 1    
    79   40   96 1    
    80   41   97 1    
    81   41   98 1    
    82   41   99 1    
    83   42   43 2    
    84   42   44 am   BACKBONE|DICT|INTERRES
    85   44   45 1    
    86   44  100 1    
    87   45   46 1    
    88   45   47 1    
    89   45  101 1    
    90   46  102 1    
    91   46  103 1    
    92   46  104 1    
    93   47   48 2    
    94   47   49 am   BACKBONE|DICT|INTERRES
    95   49   50 1    
    96   49  105 1    
    97   50   51 1    
    98   50   52 1    
    99   50  106 1    
   100   51  107 1    
   101   51  108 1    
   102   51  109 1    
   103   52   53 2    
   104   52   54 am   BACKBONE|DICT|INTERRES
   105   54   55 1    
   106   54  110 1    
   107   55   56 1    
   108   55   59 1    
   109   55  111 1    
   110   56   57 am   BACKBONE|DICT|INTERRES
   111   56   58 2    
   112   57  112 1    
   113   57  113 1    
   114   59   60 1    
   115   59  114 1    
   116   59  115 1    
   117   60   61 1    
   118   61  116 1    
   119   61  117 1    
@<TRIPOS>SUBSTRUCTURE
     1 UNK         1 GROUP             0       ****    0 ROOT    
