@<TRIPOS>MOLECULE
3R8
117   119    1
SMALL
USER_CHARGES


@<TRIPOS>ATOM
      1 CA         16.8955  -25.2826  -41.6114 C.3       0 UNK        -0.2013 
      2 C          16.8805  -26.6495  -42.2907 C.2       0 UNK         0.4866 
      3 O          17.1158  -27.6511  -41.6226 O.2       0 UNK        -0.5176 
      4 N          16.6116  -26.7529  -43.6005 N.am      1 UNK        -0.4884 
      5 CA         16.2832  -25.6661  -44.5392 C.3       1 UNK         0.0853 
      6 C6         15.7029  -26.2097  -45.8684 C.3       10 UNK        -0.0849 
      7 S7         14.2851  -27.3273  -45.6020 S.3       10 UNK        -0.2776 
      8 C8         14.8058  -28.8220  -46.5069 C.3       10 UNK         0.0316 
      9 C9         16.0451  -29.4946  -45.9227 C.ar      10 UNK        -0.0863 
     10 C10        16.0265  -30.0151  -44.6227 C.ar      10 UNK        -0.1009 
     11 C11        17.1291  -30.7138  -44.1168 C.ar      10 UNK        -0.0712 
     12 C12        18.2356  -30.9180  -44.9435 C.ar      10 UNK        -0.0894 
     13 C13        18.2956  -30.3588  -46.2208 C.ar      10 UNK        -0.0745 
     14 C14        17.1945  -29.6484  -46.7076 C.ar      10 UNK        -0.0972 
     15 C15        19.5427  -30.5540  -47.0754 C.3       10 UNK         0.0209 
     16 S16        20.7495  -29.1976  -46.8845 S.3       10 UNK        -0.2568 
     17 C17        21.3332  -29.4198  -45.1633 C.3       10 UNK        -0.0983 
     18 CA         21.7709  -28.1112  -44.4573 C.3       3 UNK         0.0876 
     19 N          20.8690  -26.9934  -44.7567 N.am      3 UNK        -0.4424 
     20 C          21.1002  -25.6948  -44.5128 C.2       2 UNK         0.4918 
     21 O          22.0983  -25.2730  -43.9292 O.2       2 UNK        -0.4875 
     22 CA         20.0003  -24.7188  -44.9487 C.3       2 UNK         0.0481 
     23 CB         20.2144  -24.2865  -46.4120 C.3       2 UNK        -0.1831 
     24 N          18.6905  -25.3450  -44.7620 N.am      2 UNK        -0.4498 
     25 C          17.4925  -24.7565  -44.8364 C.2       1 UNK         0.5027 
     26 O          17.3165  -23.5678  -45.1033 O.2       1 UNK        -0.4969 
     27 C          21.9695  -28.3700  -42.9447 C.2       3 UNK         0.5005 
     28 O          22.7894  -29.2142  -42.5854 O.2       3 UNK        -0.5279 
     29 N          21.2483  -27.6504  -42.0710 N.am      4 UNK        -0.4463 
     30 CA         21.4015  -27.6887  -40.6130 C.3       4 UNK         0.0283 
     31 CB         20.3857  -26.7385  -39.9615 C.3       4 UNK        -0.1875 
     32 C          22.8304  -27.3566  -40.1421 C.2       4 UNK         0.4949 
     33 O          23.2991  -27.9391  -39.1644 O.2       4 UNK        -0.5039 
     34 N          23.5138  -26.4735  -40.8846 N.am      5 UNK        -0.4663 
     35 CA         24.9243  -26.1310  -40.6913 C.3       5 UNK         0.0242 
     36 CB         25.2542  -24.8883  -41.5333 C.3       5 UNK        -0.1982 
     37 C          25.8929  -27.2808  -41.0295 C.2       5 UNK         0.5017 
     38 O          27.0060  -27.2958  -40.5034 O.2       5 UNK        -0.5012 
     39 N          25.4642  -28.2315  -41.8724 N.am      6 UNK        -0.4439 
     40 CA         26.2203  -29.4236  -42.2536 C.3       6 UNK         0.0297 
     41 CB         25.9257  -29.7681  -43.7263 C.3       6 UNK        -0.2006 
     42 C          25.8865  -30.5751  -41.2912 C.2       6 UNK         0.4892 
     43 O          25.3319  -31.5929  -41.7087 O.2       6 UNK        -0.5089 
     44 N          26.2227  -30.3699  -40.0092 N.am      7 UNK        -0.4243 
     45 CA         26.0793  -31.3085  -38.8901 C.3       7 UNK         0.0196 
     46 CB         27.1022  -32.4570  -39.0276 C.3       7 UNK        -0.2007 
     47 C          24.6359  -31.8135  -38.6876 C.2       7 UNK         0.5020 
     48 O          24.4310  -33.0132  -38.4967 O.2       7 UNK        -0.5147 
     49 N          23.6696  -30.8824  -38.7212 N.am      8 UNK        -0.4734 
     50 CA         22.2293  -31.1014  -38.5438 C.3       8 UNK         0.0238 
     51 CB         21.9175  -31.5862  -37.1102 C.3       8 UNK        -0.1912 
     52 C          21.6297  -32.0107  -39.6338 C.2       8 UNK         0.5038 
     53 O          21.1180  -33.0867  -39.3162 O.2       8 UNK        -0.5046 
     54 N          21.6946  -31.5527  -40.8934 N.am      9 UNK        -0.4200 
     55 CA         21.1387  -32.2328  -42.0780 C.3       9 UNK         0.0839 
     56 C          21.9268  -33.5145  -42.4840 C.2       9 UNK         0.5513 
     57 N          23.2334  -33.5801  -42.2610 N.am      9 UNK        -0.7519 
     58 O          21.3594  -34.4588  -43.0283 O.2       9 UNK        -0.4960 
     59 C59        19.5957  -32.4628  -41.9977 C.3       10 UNK        -0.0876 
     60 S60        18.6403  -30.9229  -41.7509 S.3       10 UNK        -0.2414 
     61 C61        17.1069  -31.2633  -42.6916 C.3       10 UNK         0.0169 
     62 H62        16.0087  -24.7002  -41.8572 H         1 UNK         0.0903 
     63 H63        16.9149  -25.4008  -40.5280 H         1 UNK         0.0903 
     64 H64        17.7820  -24.7173  -41.8963 H         1 UNK         0.0903 
     65 H65        16.5661  -27.6812  -44.0004 H         1 UNK         0.3096 
     66 H66        15.5140  -25.0418  -44.0805 H         1 UNK         0.1121 
     67 H67        16.4735  -26.7276  -46.4429 H         1 UNK         0.0849 
     68 H68        15.3627  -25.3857  -46.4990 H         1 UNK         0.0849 
     69 H69        13.9836  -29.5388  -46.4947 H         1 UNK         0.0865 
     70 H70        14.9608  -28.5620  -47.5554 H         1 UNK         0.0865 
     71 H71        15.1442  -29.8857  -44.0102 H         1 UNK         0.1346 
     72 H72        19.0733  -31.4944  -44.5836 H         1 UNK         0.1412 
     73 H73        17.2254  -29.2406  -47.7090 H         1 UNK         0.1426 
     74 H74        20.0264  -31.5016  -46.8324 H         1 UNK         0.0716 
     75 H75        19.2584  -30.6224  -48.1265 H         1 UNK         0.0716 
     76 H76        22.1567  -30.1365  -45.1735 H         1 UNK         0.0695 
     77 H77        20.5458  -29.8832  -44.5782 H         1 UNK         0.0695 
     78 H78        22.7521  -27.8367  -44.8508 H         1 UNK         0.0983 
     79 H79        20.0739  -27.2457  -45.3253 H         1 UNK         0.3095 
     80 H80        20.0574  -23.8396  -44.3038 H         1 UNK         0.0454 
     81 H81        19.5070  -23.5135  -46.7113 H         1 UNK         0.0851 
     82 H82        20.1052  -25.1246  -47.1013 H         1 UNK         0.0851 
     83 H83        21.2145  -23.8746  -46.5542 H         1 UNK         0.0851 
     84 H84        18.6976  -26.3113  -44.4685 H         1 UNK         0.2976 
     85 H85        20.5849  -26.9870  -42.4398 H         1 UNK         0.3116 
     86 H86        21.1669  -28.7039  -40.2950 H         1 UNK         0.0646 
     87 H87        19.3627  -27.0340  -40.1932 H         1 UNK         0.0847 
     88 H88        20.4826  -26.7497  -38.8749 H         1 UNK         0.0847 
     89 H89        20.5232  -25.7077  -40.2904 H         1 UNK         0.0847 
     90 H90        23.0477  -26.0490  -41.6760 H         1 UNK         0.3040 
     91 H91        25.0714  -25.8836  -39.6375 H         1 UNK         0.1015 
     92 H92        25.0988  -25.0691  -42.5980 H         1 UNK         0.0786 
     93 H93        26.2954  -24.5904  -41.4007 H         1 UNK         0.0786 
     94 H94        24.6366  -24.0377  -41.2442 H         1 UNK         0.0786 
     95 H95        24.4938  -28.2228  -42.1678 H         1 UNK         0.3172 
     96 H96        27.2914  -29.2264  -42.1729 H         1 UNK         0.0595 
     97 H97        24.8793  -30.0279  -43.8867 H         1 UNK         0.0839 
     98 H98        26.5216  -30.6224  -44.0496 H         1 UNK         0.0839 
     99 H99        26.1694  -28.9351  -44.3856 H         1 UNK         0.0839 
    100 H100       26.6415  -29.4758  -39.7831 H         1 UNK         0.2998 
    101 H101       26.3319  -30.7508  -37.9869 H         1 UNK         0.0822 
    102 H102       27.0876  -33.1030  -38.1489 H         1 UNK         0.0787 
    103 H103       26.8912  -33.0828  -39.8957 H         1 UNK         0.0787 
    104 H104       28.1178  -32.0744  -39.1290 H         1 UNK         0.0787 
    105 H105       23.9328  -29.9180  -38.8995 H         1 UNK         0.3055 
    106 H106       21.7482  -30.1302  -38.6503 H         1 UNK         0.1106 
    107 H107       22.3108  -30.8959  -36.3641 H         1 UNK         0.0828 
    108 H108       20.8408  -31.6558  -36.9506 H         1 UNK         0.0828 
    109 H109       22.3367  -32.5724  -36.9088 H         1 UNK         0.0828 
    110 H110       22.1892  -30.6918  -41.0927 H         1 UNK         0.2931 
    111 H111       21.3060  -31.5452  -42.9066 H         1 UNK         0.0412 
    112 H112       23.7502  -32.7941  -41.8787 H         1 UNK         0.3472 
    113 H113       23.7324  -34.4122  -42.5307 H         1 UNK         0.3472 
    114 H114       19.3476  -33.1533  -41.1909 H         1 UNK         0.0970 
    115 H115       19.2419  -32.9518  -42.9058 H         1 UNK         0.0970 
    116 H116       16.9097  -32.3357  -42.7165 H         1 UNK         0.0612 
    117 H117       16.2811  -30.8141  -42.1377 H         1 UNK         0.0612 
@<TRIPOS>BOND
     1    1    2 1    
     2    1   62 1    
     3    1   63 1    
     4    1   64 1    
     5    2    3 2    
     6    2    4 am   BACKBONE|DICT|INTERRES
     7    4    5 1    
     8    4   65 1    
     9    5    6 1    
    10    5   25 1    
    11    5   66 1    
    12    6    7 1    
    13    6   67 1    
    14    6   68 1    
    15    7    8 1    
    16    8    9 1    
    17    8   69 1    
    18    8   70 1    
    19    9   10 ar   
    20    9   14 ar   
    21   10   11 ar   
    22   10   71 1    
    23   11   12 ar   
    24   11   61 1    
    25   12   13 ar   
    26   12   72 1    
    27   13   14 ar   
    28   13   15 1    
    29   14   73 1    
    30   15   16 1    
    31   15   74 1    
    32   15   75 1    
    33   16   17 1    
    34   17   18 1    
    35   17   76 1    
    36   17   77 1    
    37   18   19 1    
    38   18   27 1    
    39   18   78 1    
    40   19   20 am   BACKBONE|DICT|INTERRES
    41   19   79 1    
    42   20   21 2    
    43   20   22 1    
    44   22   23 1    
    45   22   24 1    
    46   22   80 1    
    47   23   81 1    
    48   23   82 1    
    49   23   83 1    
    50   24   25 am   BACKBONE|DICT|INTERRES
    51   24   84 1    
    52   25   26 2    
    53   27   28 2    
    54   27   29 am   BACKBONE|DICT|INTERRES
    55   29   30 1    
    56   29   85 1    
    57   30   31 1    
    58   30   32 1    
    59   30   86 1    
    60   31   87 1    
    61   31   88 1    
    62   31   89 1    
    63   32   33 2    
    64   32   34 am   BACKBONE|DICT|INTERRES
    65   34   35 1    
    66   34   90 1    
    67   35   36 1    
    68   35   37 1    
    69   35   91 1    
    70   36   92 1    
    71   36   93 1    
    72   36   94 1    
    73   37   38 2    
    74   37   39 am   BACKBONE|DICT|INTERRES
    75   39   40 1    
    76   39   95 1    
    77   40   41 1    
    78   40   42 1    
    79   40   96 1    
    80   41   97 1    
    81   41   98 1    
    82   41   99 1    
    83   42   43 2    
    84   42   44 am   BACKBONE|DICT|INTERRES
    85   44   45 1    
    86   44  100 1    
    87   45   46 1    
    88   45   47 1    
    89   45  101 1    
    90   46  102 1    
    91   46  103 1    
    92   46  104 1    
    93   47   48 2    
    94   47   49 am   BACKBONE|DICT|INTERRES
    95   49   50 1    
    96   49  105 1    
    97   50   51 1    
    98   50   52 1    
    99   50  106 1    
   100   51  107 1    
   101   51  108 1    
   102   51  109 1    
   103   52   53 2    
   104   52   54 am   BACKBONE|DICT|INTERRES
   105   54   55 1    
   106   54  110 1    
   107   55   56 1    
   108   55   59 1    
   109   55  111 1    
   110   56   57 am   BACKBONE|DICT|INTERRES
   111   56   58 2    
   112   57  112 1    
   113   57  113 1    
   114   59   60 1    
   115   59  114 1    
   116   59  115 1    
   117   60   61 1    
   118   61  116 1    
   119   61  117 1    
@<TRIPOS>SUBSTRUCTURE
     1 UNK         1 GROUP             0       ****    0 ROOT    
