@<TRIPOS>MOLECULE
3R8
117   119    1
SMALL
USER_CHARGES


@<TRIPOS>ATOM
      1 CA         18.8846  -21.5008  -44.2810 C.3       0 UNK        -0.2013 
      2 C          18.3629  -22.5868  -45.2099 C.2       0 UNK         0.4866 
      3 O          18.3161  -22.3847  -46.4234 O.2       0 UNK        -0.5176 
      4 N          17.9728  -23.7368  -44.6476 N.am      1 UNK        -0.4884 
      5 CA         17.4893  -24.9092  -45.3808 C.3       1 UNK         0.0853 
      6 C6         16.6587  -25.8710  -44.4963 C.3       10 UNK        -0.0849 
      7 S7         17.5295  -26.5525  -43.0427 S.3       10 UNK        -0.2776 
      8 C8         16.3860  -27.9032  -42.5941 C.3       10 UNK         0.0316 
      9 C9         16.8871  -29.2790  -43.0219 C.ar      10 UNK        -0.0863 
     10 C10        16.8588  -30.3368  -42.1076 C.ar      10 UNK        -0.1009 
     11 C11        17.3369  -31.6024  -42.4570 C.ar      10 UNK        -0.0712 
     12 C12        17.8051  -31.8176  -43.7555 C.ar      10 UNK        -0.0894 
     13 C13        17.8441  -30.7711  -44.6832 C.ar      10 UNK        -0.0745 
     14 C14        17.3697  -29.5094  -44.3151 C.ar      10 UNK        -0.0972 
     15 C15        18.4236  -31.0013  -46.0746 C.3       10 UNK         0.0209 
     16 S16        19.9048  -29.9825  -46.4101 S.3       10 UNK        -0.2568 
     17 C17        20.9832  -30.3636  -44.9784 C.3       10 UNK        -0.0983 
     18 CA         21.4935  -29.1435  -44.1509 C.3       3 UNK         0.0876 
     19 N          20.8313  -27.8760  -44.4803 N.am      3 UNK        -0.4424 
     20 C          21.2894  -26.6657  -44.1367 C.2       2 UNK         0.4918 
     21 O          22.2619  -26.5059  -43.3992 O.2       2 UNK        -0.4875 
     22 CA         20.5593  -25.4373  -44.7070 C.3       2 UNK         0.0481 
     23 CB         21.5557  -24.3055  -45.0248 C.3       2 UNK        -0.1831 
     24 N          19.8277  -25.7834  -45.9310 N.am      2 UNK        -0.4498 
     25 C          18.5307  -25.6501  -46.2625 C.2       1 UNK         0.5027 
     26 O          18.1274  -26.1228  -47.3240 O.2       1 UNK        -0.4969 
     27 C          21.5189  -29.4340  -42.6311 C.2       3 UNK         0.5005 
     28 O          22.4611  -30.0751  -42.1577 O.2       3 UNK        -0.5279 
     29 N          20.5145  -28.9412  -41.8882 N.am      4 UNK        -0.4463 
     30 CA         20.4849  -28.9762  -40.4214 C.3       4 UNK         0.0283 
     31 CB         19.0496  -28.8189  -39.9023 C.3       4 UNK        -0.1875 
     32 C          21.3877  -27.9133  -39.7792 C.2       4 UNK         0.4949 
     33 O          21.9579  -28.1794  -38.7232 O.2       4 UNK        -0.5039 
     34 N          21.5356  -26.7451  -40.4219 N.am      5 UNK        -0.4663 
     35 CA         22.4532  -25.6830  -39.9866 C.3       5 UNK         0.0242 
     36 CB         22.1270  -24.3709  -40.7176 C.3       5 UNK        -0.1982 
     37 C          23.9256  -26.0828  -40.1866 C.2       5 UNK         0.5017 
     38 O          24.7692  -25.7390  -39.3591 O.2       5 UNK        -0.5012 
     39 N          24.1861  -26.8627  -41.2452 N.am      6 UNK        -0.4439 
     40 CA         25.4441  -27.5705  -41.4972 C.3       6 UNK         0.0297 
     41 CB         25.4624  -28.0337  -42.9636 C.3       6 UNK        -0.2006 
     42 C          25.6824  -28.7694  -40.5524 C.2       6 UNK         0.4892 
     43 O          26.7847  -29.3182  -40.5625 O.2       6 UNK        -0.5089 
     44 N          24.6598  -29.1563  -39.7714 N.am      7 UNK        -0.4243 
     45 CA         24.6212  -30.2620  -38.8066 C.3       7 UNK         0.0196 
     46 CB         25.5921  -30.0021  -37.6348 C.3       7 UNK        -0.2007 
     47 C          24.8107  -31.6472  -39.4528 C.2       7 UNK         0.5020 
     48 O          25.3752  -32.5426  -38.8215 O.2       7 UNK        -0.5147 
     49 N          24.3365  -31.8023  -40.6951 N.am      8 UNK        -0.4734 
     50 CA         24.4670  -33.0293  -41.4814 C.3       8 UNK         0.0238 
     51 CB         25.1268  -32.6872  -42.8285 C.3       8 UNK        -0.1912 
     52 C          23.1126  -33.7115  -41.7112 C.2       8 UNK         0.5038 
     53 O          23.0420  -34.9392  -41.6496 O.2       8 UNK        -0.5046 
     54 N          22.0772  -32.9133  -42.0067 N.am      9 UNK        -0.4200 
     55 CA         20.7567  -33.3562  -42.4886 C.3       9 UNK         0.0839 
     56 C          20.7824  -34.1343  -43.8445 C.2       9 UNK         0.5513 
     57 N          21.8230  -34.0052  -44.6592 N.am      9 UNK        -0.7519 
     58 O          19.8322  -34.8308  -44.1902 O.2       9 UNK        -0.4960 
     59 C59        19.8767  -34.0191  -41.3873 C.3       10 UNK        -0.0876 
     60 S60        18.8933  -32.7844  -40.4662 S.3       10 UNK        -0.2414 
     61 C61        17.3390  -32.7284  -41.4285 C.3       10 UNK         0.0169 
     62 H62        18.2512  -20.6164  -44.3449 H         1 UNK         0.0903 
     63 H63        18.9068  -21.8285  -43.2417 H         1 UNK         0.0903 
     64 H64        19.8968  -21.2164  -44.5671 H         1 UNK         0.0903 
     65 H65        18.0305  -23.8512  -43.6454 H         1 UNK         0.3096 
     66 H66        16.7748  -24.5080  -46.1043 H         1 UNK         0.1121 
     67 H67        16.2629  -26.6880  -45.1021 H         1 UNK         0.0849 
     68 H68        15.7795  -25.3406  -44.1266 H         1 UNK         0.0849 
     69 H69        16.2462  -27.8718  -41.5126 H         1 UNK         0.0865 
     70 H70        15.3994  -27.7310  -43.0263 H         1 UNK         0.0865 
     71 H71        16.4748  -30.1739  -41.1099 H         1 UNK         0.1346 
     72 H72        18.1576  -32.7990  -44.0374 H         1 UNK         0.1412 
     73 H73        17.3993  -28.7053  -45.0360 H         1 UNK         0.1426 
     74 H74        17.6615  -30.7740  -46.8211 H         1 UNK         0.0716 
     75 H75        18.6866  -32.0512  -46.2141 H         1 UNK         0.0716 
     76 H76        20.4479  -31.0643  -44.3490 H         1 UNK         0.0695 
     77 H77        21.8380  -30.9297  -45.3518 H         1 UNK         0.0695 
     78 H78        22.5392  -29.0004  -44.4325 H         1 UNK         0.0983 
     79 H79        20.0292  -27.9481  -45.0903 H         1 UNK         0.3095 
     80 H80        19.8936  -25.1113  -43.9133 H         1 UNK         0.0454 
     81 H81        22.0278  -23.9276  -44.1179 H         1 UNK         0.0851 
     82 H82        21.0709  -23.4603  -45.5103 H         1 UNK         0.0851 
     83 H83        22.3525  -24.6475  -45.6864 H         1 UNK         0.0851 
     84 H84        20.4015  -26.2557  -46.6155 H         1 UNK         0.2976 
     85 H85        19.7552  -28.4659  -42.3565 H         1 UNK         0.3116 
     86 H86        20.8492  -29.9517  -40.0903 H         1 UNK         0.0646 
     87 H87        18.5345  -27.9758  -40.3625 H         1 UNK         0.0847 
     88 H88        18.4761  -29.7232  -40.0864 H         1 UNK         0.0847 
     89 H89        19.0339  -28.6613  -38.8227 H         1 UNK         0.0847 
     90 H90        21.0655  -26.6090  -41.3048 H         1 UNK         0.3040 
     91 H91        22.2998  -25.5205  -38.9171 H         1 UNK         0.1015 
     92 H92        22.7486  -23.5562  -40.3438 H         1 UNK         0.0786 
     93 H93        21.0873  -24.0793  -40.5682 H         1 UNK         0.0786 
     94 H94        22.3055  -24.4454  -41.7893 H         1 UNK         0.0786 
     95 H95        23.4401  -26.9990  -41.9219 H         1 UNK         0.3172 
     96 H96        26.2656  -26.8669  -41.3483 H         1 UNK         0.0595 
     97 H97        24.6882  -28.7752  -43.1609 H         1 UNK         0.0839 
     98 H98        26.4200  -28.4906  -43.2167 H         1 UNK         0.0839 
     99 H99        25.3107  -27.1987  -43.6482 H         1 UNK         0.0839 
    100 H100       23.8003  -28.6265  -39.8345 H         1 UNK         0.2998 
    101 H101       23.6113  -30.2684  -38.3948 H         1 UNK         0.0822 
    102 H102       25.4598  -30.7420  -36.8445 H         1 UNK         0.0787 
    103 H103       25.4211  -29.0217  -37.1900 H         1 UNK         0.0787 
    104 H104       26.6338  -30.0499  -37.9533 H         1 UNK         0.0787 
    105 H105       23.8485  -31.0254  -41.1327 H         1 UNK         0.3055 
    106 H106       25.1080  -33.7507  -40.9692 H         1 UNK         0.1106 
    107 H107       26.1263  -32.2771  -42.6819 H         1 UNK         0.0828 
    108 H108       25.2309  -33.5763  -43.4521 H         1 UNK         0.0828 
    109 H109       24.5480  -31.9540  -43.3919 H         1 UNK         0.0828 
    110 H110       22.2320  -31.9094  -42.0216 H         1 UNK         0.2931 
    111 H111       20.2620  -32.4271  -42.7489 H         1 UNK         0.0412 
    112 H112       21.8216  -34.5017  -45.5364 H         1 UNK         0.3472 
    113 H113       22.6116  -33.4348  -44.4051 H         1 UNK         0.3472 
    114 H114       19.1877  -34.7626  -41.7893 H         1 UNK         0.0970 
    115 H115       20.4952  -34.5698  -40.6777 H         1 UNK         0.0970 
    116 H116       16.5116  -32.5847  -40.7320 H         1 UNK         0.0612 
    117 H117       17.1534  -33.6869  -41.9148 H         1 UNK         0.0612 
@<TRIPOS>BOND
     1    1    2 1    
     2    1   62 1    
     3    1   63 1    
     4    1   64 1    
     5    2    3 2    
     6    2    4 am   BACKBONE|DICT|INTERRES
     7    4    5 1    
     8    4   65 1    
     9    5    6 1    
    10    5   25 1    
    11    5   66 1    
    12    6    7 1    
    13    6   67 1    
    14    6   68 1    
    15    7    8 1    
    16    8    9 1    
    17    8   69 1    
    18    8   70 1    
    19    9   10 ar   
    20    9   14 ar   
    21   10   11 ar   
    22   10   71 1    
    23   11   12 ar   
    24   11   61 1    
    25   12   13 ar   
    26   12   72 1    
    27   13   14 ar   
    28   13   15 1    
    29   14   73 1    
    30   15   16 1    
    31   15   74 1    
    32   15   75 1    
    33   16   17 1    
    34   17   18 1    
    35   17   76 1    
    36   17   77 1    
    37   18   19 1    
    38   18   27 1    
    39   18   78 1    
    40   19   20 am   BACKBONE|DICT|INTERRES
    41   19   79 1    
    42   20   21 2    
    43   20   22 1    
    44   22   23 1    
    45   22   24 1    
    46   22   80 1    
    47   23   81 1    
    48   23   82 1    
    49   23   83 1    
    50   24   25 am   BACKBONE|DICT|INTERRES
    51   24   84 1    
    52   25   26 2    
    53   27   28 2    
    54   27   29 am   BACKBONE|DICT|INTERRES
    55   29   30 1    
    56   29   85 1    
    57   30   31 1    
    58   30   32 1    
    59   30   86 1    
    60   31   87 1    
    61   31   88 1    
    62   31   89 1    
    63   32   33 2    
    64   32   34 am   BACKBONE|DICT|INTERRES
    65   34   35 1    
    66   34   90 1    
    67   35   36 1    
    68   35   37 1    
    69   35   91 1    
    70   36   92 1    
    71   36   93 1    
    72   36   94 1    
    73   37   38 2    
    74   37   39 am   BACKBONE|DICT|INTERRES
    75   39   40 1    
    76   39   95 1    
    77   40   41 1    
    78   40   42 1    
    79   40   96 1    
    80   41   97 1    
    81   41   98 1    
    82   41   99 1    
    83   42   43 2    
    84   42   44 am   BACKBONE|DICT|INTERRES
    85   44   45 1    
    86   44  100 1    
    87   45   46 1    
    88   45   47 1    
    89   45  101 1    
    90   46  102 1    
    91   46  103 1    
    92   46  104 1    
    93   47   48 2    
    94   47   49 am   BACKBONE|DICT|INTERRES
    95   49   50 1    
    96   49  105 1    
    97   50   51 1    
    98   50   52 1    
    99   50  106 1    
   100   51  107 1    
   101   51  108 1    
   102   51  109 1    
   103   52   53 2    
   104   52   54 am   BACKBONE|DICT|INTERRES
   105   54   55 1    
   106   54  110 1    
   107   55   56 1    
   108   55   59 1    
   109   55  111 1    
   110   56   57 am   BACKBONE|DICT|INTERRES
   111   56   58 2    
   112   57  112 1    
   113   57  113 1    
   114   59   60 1    
   115   59  114 1    
   116   59  115 1    
   117   60   61 1    
   118   61  116 1    
   119   61  117 1    
@<TRIPOS>SUBSTRUCTURE
     1 UNK         1 GROUP             0       ****    0 ROOT    
