@<TRIPOS>MOLECULE
3R8
117   119    1
SMALL
USER_CHARGES


@<TRIPOS>ATOM
      1 CA         18.5403  -20.9028  -42.1215 C.3       0 UNK        -0.2013 
      2 C          17.9602  -22.0318  -42.9602 C.2       0 UNK         0.4866 
      3 O          17.0392  -21.8000  -43.7445 O.2       0 UNK        -0.5176 
      4 N          18.4885  -23.2505  -42.7973 N.am      1 UNK        -0.4884 
      5 CA         18.1243  -24.4309  -43.5890 C.3       1 UNK         0.0853 
      6 C6         18.3414  -25.7399  -42.7796 C.3       10 UNK        -0.0849 
      7 S7         17.0895  -27.0030  -43.1878 S.3       10 UNK        -0.2776 
      8 C8         17.7004  -28.4471  -42.2483 C.3       10 UNK         0.0316 
      9 C9         18.4456  -29.4995  -43.0731 C.ar      10 UNK        -0.0863 
     10 C10        18.5145  -30.8057  -42.5790 C.ar      10 UNK        -0.1009 
     11 C11        19.1997  -31.8045  -43.2769 C.ar      10 UNK        -0.0712 
     12 C12        19.8200  -31.4937  -44.4905 C.ar      10 UNK        -0.0894 
     13 C13        19.7495  -30.1981  -45.0087 C.ar      10 UNK        -0.0745 
     14 C14        19.0662  -29.2080  -44.2946 C.ar      10 UNK        -0.0972 
     15 C15        20.3688  -29.8756  -46.3629 C.3       10 UNK         0.0209 
     16 S16        22.1842  -29.7025  -46.3298 S.3       10 UNK        -0.2568 
     17 C17        22.4967  -28.4861  -45.0064 C.3       10 UNK        -0.0983 
     18 CA         22.4246  -27.0010  -45.4575 C.3       3 UNK         0.0876 
     19 N          21.0611  -26.6229  -45.8429 N.am      3 UNK        -0.4424 
     20 C          20.6894  -26.0519  -46.9952 C.2       2 UNK         0.4918 
     21 O          21.4550  -25.8372  -47.9343 O.2       2 UNK        -0.4875 
     22 CA         19.2133  -25.6089  -47.1068 C.3       2 UNK         0.0481 
     23 CB         18.3948  -26.6123  -47.9351 C.3       2 UNK        -0.1831 
     24 N          18.5460  -25.3885  -45.8148 N.am      2 UNK        -0.4498 
     25 C          18.8952  -24.4464  -44.9274 C.2       1 UNK         0.5027 
     26 O          19.8239  -23.6579  -45.1218 O.2       1 UNK        -0.4969 
     27 C          22.9345  -26.0503  -44.3445 C.2       3 UNK         0.5005 
     28 O          23.7972  -26.4419  -43.5569 O.2       3 UNK        -0.5279 
     29 N          22.3656  -24.8349  -44.2534 N.am      4 UNK        -0.4463 
     30 CA         22.5072  -23.8165  -43.2002 C.3       4 UNK         0.0283 
     31 CB         23.9716  -23.3966  -42.9663 C.3       4 UNK        -0.1875 
     32 C          21.8095  -24.2149  -41.8885 C.2       4 UNK         0.4949 
     33 O          21.0063  -23.4397  -41.3698 O.2       4 UNK        -0.5039 
     34 N          22.0812  -25.4284  -41.4082 N.am      5 UNK        -0.4663 
     35 CA         21.4531  -26.0674  -40.2556 C.3       5 UNK         0.0242 
     36 CB         22.3371  -25.8426  -39.0133 C.3       5 UNK        -0.1982 
     37 C          21.2525  -27.5568  -40.5757 C.2       5 UNK         0.5017 
     38 O          21.4297  -27.9629  -41.7257 O.2       5 UNK        -0.5012 
     39 N          20.8895  -28.3549  -39.5638 N.am      6 UNK        -0.4439 
     40 CA         20.8242  -29.8145  -39.6532 C.3       6 UNK         0.0297 
     41 CB         19.9727  -30.3621  -38.4945 C.3       6 UNK        -0.2006 
     42 C          22.2460  -30.4022  -39.6591 C.2       6 UNK         0.4892 
     43 O          22.8039  -30.6766  -38.5939 O.2       6 UNK        -0.5089 
     44 N          22.8254  -30.5274  -40.8586 N.am      7 UNK        -0.4243 
     45 CA         24.1892  -30.9939  -41.1138 C.3       7 UNK         0.0196 
     46 CB         24.6011  -30.5495  -42.5288 C.3       7 UNK        -0.2007 
     47 C          24.3312  -32.5133  -40.9056 C.2       7 UNK         0.5020 
     48 O          24.4829  -33.2597  -41.8749 O.2       7 UNK        -0.5147 
     49 N          24.2485  -32.9412  -39.6385 N.am      8 UNK        -0.4734 
     50 CA         24.2940  -34.3135  -39.1082 C.3       8 UNK         0.0238 
     51 CB         25.6087  -35.0316  -39.4728 C.3       8 UNK        -0.1912 
     52 C          23.0645  -35.1615  -39.4778 C.2       8 UNK         0.5038 
     53 O          22.4494  -35.7435  -38.5829 O.2       8 UNK        -0.5046 
     54 N          22.7141  -35.1795  -40.7687 N.am      9 UNK        -0.4200 
     55 CA         21.5252  -35.8157  -41.3556 C.3       9 UNK         0.0839 
     56 C          21.5165  -37.3691  -41.2089 C.2       9 UNK         0.5513 
     57 N          20.3770  -38.0249  -41.3891 N.am      9 UNK        -0.7519 
     58 O          22.5479  -38.0018  -40.9890 O.2       9 UNK        -0.4960 
     59 C59        20.2052  -35.1231  -40.9000 C.3       10 UNK        -0.0876 
     60 S60        20.2229  -33.3214  -41.2037 S.3       10 UNK        -0.2414 
     61 C61        19.2421  -33.2231  -42.7301 C.3       10 UNK         0.0169 
     62 H62        17.7551  -20.4307  -41.5316 H         1 UNK         0.0903 
     63 H63        19.3104  -21.2579  -41.4368 H         1 UNK         0.0903 
     64 H64        18.9842  -20.1461  -42.7677 H         1 UNK         0.0903 
     65 H65        19.2962  -23.3543  -42.1872 H         1 UNK         0.3096 
     66 H66        17.0630  -24.3432  -43.8349 H         1 UNK         0.1121 
     67 H67        19.3469  -26.1468  -42.9086 H         1 UNK         0.0849 
     68 H68        18.2412  -25.5409  -41.7109 H         1 UNK         0.0849 
     69 H69        18.3435  -28.1165  -41.4321 H         1 UNK         0.0865 
     70 H70        16.8341  -28.9149  -41.7779 H         1 UNK         0.0865 
     71 H71        18.0385  -31.0508  -41.6390 H         1 UNK         0.1346 
     72 H72        20.3457  -32.2611  -45.0421 H         1 UNK         0.1412 
     73 H73        19.0133  -28.2117  -44.7020 H         1 UNK         0.1426 
     74 H74        19.9355  -28.9677  -46.7767 H         1 UNK         0.0716 
     75 H75        20.1130  -30.6677  -47.0680 H         1 UNK         0.0716 
     76 H76        23.4984  -28.7160  -44.6417 H         1 UNK         0.0695 
     77 H77        21.8306  -28.6753  -44.1659 H         1 UNK         0.0695 
     78 H78        23.1040  -26.8700  -46.3024 H         1 UNK         0.0983 
     79 H79        20.3625  -26.7427  -45.1271 H         1 UNK         0.3095 
     80 H80        19.2121  -24.6575  -47.6429 H         1 UNK         0.0454 
     81 H81        18.8977  -26.8534  -48.8729 H         1 UNK         0.0851 
     82 H82        17.4180  -26.2030  -48.1929 H         1 UNK         0.0851 
     83 H83        18.2297  -27.5475  -47.4009 H         1 UNK         0.0851 
     84 H84        17.7732  -26.0009  -45.5891 H         1 UNK         0.2976 
     85 H85        21.6468  -24.6058  -44.9319 H         1 UNK         0.3116 
     86 H86        21.9814  -22.9376  -43.5769 H         1 UNK         0.0646 
     87 H87        24.5666  -24.1953  -42.5231 H         1 UNK         0.0847 
     88 H88        24.0233  -22.5459  -42.2858 H         1 UNK         0.0847 
     89 H89        24.4519  -23.0967  -43.8974 H         1 UNK         0.0847 
     90 H90        22.6920  -26.0295  -41.9577 H         1 UNK         0.3040 
     91 H91        20.4651  -25.6345  -40.0843 H         1 UNK         0.1015 
     92 H92        23.3018  -26.3425  -39.1115 H         1 UNK         0.0786 
     93 H93        21.8612  -26.2169  -38.1066 H         1 UNK         0.0786 
     94 H94        22.5285  -24.7812  -38.8537 H         1 UNK         0.0786 
     95 H95        20.7848  -27.9558  -38.6422 H         1 UNK         0.3172 
     96 H96        20.3334  -30.0939  -40.5869 H         1 UNK         0.0595 
     97 H97        20.3830  -30.0903  -37.5211 H         1 UNK         0.0839 
     98 H98        19.9222  -31.4511  -38.5341 H         1 UNK         0.0839 
     99 H99        18.9496  -29.9895  -38.5448 H         1 UNK         0.0839 
    100 H100       22.2940  -30.2300  -41.6666 H         1 UNK         0.2998 
    101 H101       24.8605  -30.5037  -40.4054 H         1 UNK         0.0822 
    102 H102       24.5885  -29.4628  -42.6173 H         1 UNK         0.0787 
    103 H103       25.6129  -30.8812  -42.7653 H         1 UNK         0.0787 
    104 H104       23.9355  -30.9572  -43.2912 H         1 UNK         0.0787 
    105 H105       24.0073  -32.2284  -38.9544 H         1 UNK         0.3055 
    106 H106       24.2766  -34.2058  -38.0221 H         1 UNK         0.1106 
    107 H107       25.6636  -36.0066  -38.9869 H         1 UNK         0.0828 
    108 H108       25.7022  -35.2025  -40.5455 H         1 UNK         0.0828 
    109 H109       26.4768  -34.4584  -39.1477 H         1 UNK         0.0828 
    110 H110       23.2986  -34.6487  -41.4082 H         1 UNK         0.2931 
    111 H111       21.6242  -35.6452  -42.4281 H         1 UNK         0.0412 
    112 H112       19.5187  -37.5428  -41.6033 H         1 UNK         0.3472 
    113 H113       20.3783  -39.0307  -41.3152 H         1 UNK         0.3472 
    114 H114       19.3403  -35.5501  -41.4086 H         1 UNK         0.0970 
    115 H115       20.0372  -35.2891  -39.8347 H         1 UNK         0.0970 
    116 H116       18.2251  -33.5632  -42.5296 H         1 UNK         0.0612 
    117 H117       19.6623  -33.9079  -43.4684 H         1 UNK         0.0612 
@<TRIPOS>BOND
     1    1    2 1    
     2    1   62 1    
     3    1   63 1    
     4    1   64 1    
     5    2    3 2    
     6    2    4 am   BACKBONE|DICT|INTERRES
     7    4    5 1    
     8    4   65 1    
     9    5    6 1    
    10    5   25 1    
    11    5   66 1    
    12    6    7 1    
    13    6   67 1    
    14    6   68 1    
    15    7    8 1    
    16    8    9 1    
    17    8   69 1    
    18    8   70 1    
    19    9   10 ar   
    20    9   14 ar   
    21   10   11 ar   
    22   10   71 1    
    23   11   12 ar   
    24   11   61 1    
    25   12   13 ar   
    26   12   72 1    
    27   13   14 ar   
    28   13   15 1    
    29   14   73 1    
    30   15   16 1    
    31   15   74 1    
    32   15   75 1    
    33   16   17 1    
    34   17   18 1    
    35   17   76 1    
    36   17   77 1    
    37   18   19 1    
    38   18   27 1    
    39   18   78 1    
    40   19   20 am   BACKBONE|DICT|INTERRES
    41   19   79 1    
    42   20   21 2    
    43   20   22 1    
    44   22   23 1    
    45   22   24 1    
    46   22   80 1    
    47   23   81 1    
    48   23   82 1    
    49   23   83 1    
    50   24   25 am   BACKBONE|DICT|INTERRES
    51   24   84 1    
    52   25   26 2    
    53   27   28 2    
    54   27   29 am   BACKBONE|DICT|INTERRES
    55   29   30 1    
    56   29   85 1    
    57   30   31 1    
    58   30   32 1    
    59   30   86 1    
    60   31   87 1    
    61   31   88 1    
    62   31   89 1    
    63   32   33 2    
    64   32   34 am   BACKBONE|DICT|INTERRES
    65   34   35 1    
    66   34   90 1    
    67   35   36 1    
    68   35   37 1    
    69   35   91 1    
    70   36   92 1    
    71   36   93 1    
    72   36   94 1    
    73   37   38 2    
    74   37   39 am   BACKBONE|DICT|INTERRES
    75   39   40 1    
    76   39   95 1    
    77   40   41 1    
    78   40   42 1    
    79   40   96 1    
    80   41   97 1    
    81   41   98 1    
    82   41   99 1    
    83   42   43 2    
    84   42   44 am   BACKBONE|DICT|INTERRES
    85   44   45 1    
    86   44  100 1    
    87   45   46 1    
    88   45   47 1    
    89   45  101 1    
    90   46  102 1    
    91   46  103 1    
    92   46  104 1    
    93   47   48 2    
    94   47   49 am   BACKBONE|DICT|INTERRES
    95   49   50 1    
    96   49  105 1    
    97   50   51 1    
    98   50   52 1    
    99   50  106 1    
   100   51  107 1    
   101   51  108 1    
   102   51  109 1    
   103   52   53 2    
   104   52   54 am   BACKBONE|DICT|INTERRES
   105   54   55 1    
   106   54  110 1    
   107   55   56 1    
   108   55   59 1    
   109   55  111 1    
   110   56   57 am   BACKBONE|DICT|INTERRES
   111   56   58 2    
   112   57  112 1    
   113   57  113 1    
   114   59   60 1    
   115   59  114 1    
   116   59  115 1    
   117   60   61 1    
   118   61  116 1    
   119   61  117 1    
@<TRIPOS>SUBSTRUCTURE
     1 UNK         1 GROUP             0       ****    0 ROOT    
