@<TRIPOS>MOLECULE
3R8
117   119    1
SMALL
USER_CHARGES


@<TRIPOS>ATOM
      1 CA         19.5856  -26.6888  -41.1925 C.3       0 UNK        -0.2013 
      2 C          19.0923  -26.2091  -42.5493 C.2       0 UNK         0.4866 
      3 O          19.7281  -26.5070  -43.5617 O.2       0 UNK        -0.5176 
      4 N          17.9711  -25.4686  -42.5725 N.am      1 UNK        -0.4884 
      5 CA         17.3043  -24.9287  -43.7701 C.3       1 UNK         0.0853 
      6 C6         16.6510  -26.0513  -44.6309 C.3       10 UNK        -0.0849 
      7 S7         15.2203  -26.8946  -43.8646 S.3       10 UNK        -0.2776 
      8 C8         15.9212  -28.1679  -42.7496 C.3       10 UNK         0.0316 
      9 C9         16.9597  -29.1272  -43.3360 C.ar      10 UNK        -0.0863 
     10 C10        17.7730  -29.8332  -42.4442 C.ar      10 UNK        -0.1009 
     11 C11        18.7827  -30.6809  -42.9059 C.ar      10 UNK        -0.0712 
     12 C12        19.0027  -30.7937  -44.2826 C.ar      10 UNK        -0.0894 
     13 C13        18.1835  -30.1165  -45.1904 C.ar      10 UNK        -0.0745 
     14 C14        17.1377  -29.3219  -44.7118 C.ar      10 UNK        -0.0972 
     15 C15        18.4402  -30.2261  -46.6881 C.3       10 UNK         0.0209 
     16 S16        18.9418  -28.6338  -47.4272 S.3       10 UNK        -0.2568 
     17 C17        20.4856  -28.2706  -46.5236 C.3       10 UNK        -0.0983 
     18 CA         21.0936  -26.8919  -46.8916 C.3       3 UNK         0.0876 
     19 N          20.1363  -25.7945  -46.7140 N.am      3 UNK        -0.4424 
     20 C          20.2957  -24.5358  -47.1534 C.2       2 UNK         0.4918 
     21 O          21.2773  -24.1573  -47.7930 O.2       2 UNK        -0.4875 
     22 CA         19.1694  -23.5256  -46.8494 C.3       2 UNK         0.0481 
     23 CB         18.4562  -23.1104  -48.1470 C.3       2 UNK        -0.1831 
     24 N          18.1786  -24.0691  -45.9178 N.am      2 UNK        -0.4498 
     25 C          18.2697  -24.0212  -44.5810 C.2       1 UNK         0.5027 
     26 O          19.0917  -23.3187  -43.9869 O.2       1 UNK        -0.4969 
     27 C          22.3847  -26.6456  -46.0861 C.2       3 UNK         0.5005 
     28 O          23.4732  -26.9508  -46.5752 O.2       3 UNK        -0.5279 
     29 N          22.2269  -26.0901  -44.8731 N.am      4 UNK        -0.4463 
     30 CA         23.2701  -25.7138  -43.9109 C.3       4 UNK         0.0283 
     31 CB         24.2007  -24.6281  -44.4916 C.3       4 UNK        -0.1875 
     32 C          24.0415  -26.9168  -43.3340 C.2       4 UNK         0.4949 
     33 O          25.1639  -26.7525  -42.8549 O.2       4 UNK        -0.5039 
     34 N          23.4142  -28.1011  -43.3566 N.am      5 UNK        -0.4663 
     35 CA         23.9581  -29.3496  -42.8112 C.3       5 UNK         0.0242 
     36 CB         23.3808  -30.5278  -43.6106 C.3       5 UNK        -0.1982 
     37 C          23.7192  -29.5018  -41.2937 C.2       5 UNK         0.5017 
     38 O          24.2322  -30.4501  -40.6956 O.2       5 UNK        -0.5012 
     39 N          22.9719  -28.5556  -40.7033 N.am      6 UNK        -0.4439 
     40 CA         22.7133  -28.3702  -39.2713 C.3       6 UNK         0.0297 
     41 CB         24.0145  -27.9357  -38.5572 C.3       6 UNK        -0.2006 
     42 C          22.0221  -29.5811  -38.6127 C.2       6 UNK         0.4892 
     43 O          21.2794  -30.3011  -39.2810 O.2       6 UNK        -0.5089 
     44 N          22.2598  -29.7719  -37.3077 N.am      7 UNK        -0.4243 
     45 CA         21.7321  -30.8849  -36.5138 C.3       7 UNK         0.0196 
     46 CB         21.9321  -30.5775  -35.0207 C.3       7 UNK        -0.2007 
     47 C          22.3593  -32.2441  -36.8724 C.2       7 UNK         0.5020 
     48 O          21.7398  -33.2750  -36.6095 O.2       7 UNK        -0.5147 
     49 N          23.5666  -32.2297  -37.4577 N.am      8 UNK        -0.4734 
     50 CA         24.2565  -33.4177  -37.9659 C.3       8 UNK         0.0238 
     51 CB         25.7151  -33.0671  -38.3043 C.3       8 UNK        -0.1912 
     52 C          23.5344  -34.0143  -39.1838 C.2       8 UNK         0.5038 
     53 O          23.2835  -35.2197  -39.2082 O.2       8 UNK        -0.5046 
     54 N          23.1857  -33.1469  -40.1440 N.am      9 UNK        -0.4200 
     55 CA         22.3976  -33.4617  -41.3427 C.3       9 UNK         0.0839 
     56 C          23.0696  -34.4732  -42.3222 C.2       9 UNK         0.5513 
     57 N          24.3948  -34.5502  -42.3592 N.am      9 UNK        -0.7519 
     58 O          22.3992  -35.1819  -43.0681 O.2       9 UNK        -0.4960 
     59 C59        20.9146  -33.7750  -40.9907 C.3       10 UNK        -0.0876 
     60 S60        19.7510  -33.2192  -42.2811 S.3       10 UNK        -0.2414 
     61 C61        19.6520  -31.4371  -41.9091 C.3       10 UNK         0.0169 
     62 H62        20.5149  -26.1828  -40.9337 H         1 UNK         0.0903 
     63 H63        18.8592  -26.4956  -40.4035 H         1 UNK         0.0903 
     64 H64        19.7748  -27.7620  -41.2213 H         1 UNK         0.0903 
     65 H65        17.5306  -25.2231  -41.6972 H         1 UNK         0.3096 
     66 H66        16.5111  -24.2673  -43.4178 H         1 UNK         0.1121 
     67 H67        17.4074  -26.7675  -44.9459 H         1 UNK         0.0849 
     68 H68        16.2329  -25.6424  -45.5512 H         1 UNK         0.0849 
     69 H69        16.3512  -27.6556  -41.8884 H         1 UNK         0.0865 
     70 H70        15.0944  -28.7629  -42.3597 H         1 UNK         0.0865 
     71 H71        17.6267  -29.7118  -41.3794 H         1 UNK         0.1346 
     72 H72        19.8079  -31.4180  -44.6449 H         1 UNK         0.1412 
     73 H73        16.5008  -28.8159  -45.4232 H         1 UNK         0.1426 
     74 H74        17.5313  -30.5736  -47.1811 H         1 UNK         0.0716 
     75 H75        19.2083  -30.9719  -46.8988 H         1 UNK         0.0716 
     76 H76        21.1984  -29.0702  -46.7347 H         1 UNK         0.0695 
     77 H77        20.2765  -28.3198  -45.4537 H         1 UNK         0.0695 
     78 H78        21.3713  -26.9148  -47.9477 H         1 UNK         0.0983 
     79 H79        19.3138  -26.0214  -46.1770 H         1 UNK         0.3095 
     80 H80        19.6311  -22.6360  -46.4164 H         1 UNK         0.0454 
     81 H81        17.6803  -22.3695  -47.9539 H         1 UNK         0.0851 
     82 H82        17.9920  -23.9621  -48.6457 H         1 UNK         0.0851 
     83 H83        19.1579  -22.6637  -48.8528 H         1 UNK         0.0851 
     84 H84        17.4451  -24.6266  -46.3312 H         1 UNK         0.2976 
     85 H85        21.2709  -25.9787  -44.5379 H         1 UNK         0.3116 
     86 H86        22.7415  -25.2694  -43.0663 H         1 UNK         0.0646 
     87 H87        24.8282  -25.0178  -45.2935 H         1 UNK         0.0847 
     88 H88        24.8667  -24.2318  -43.7242 H         1 UNK         0.0847 
     89 H89        23.6309  -23.7883  -44.8890 H         1 UNK         0.0847 
     90 H90        22.4936  -28.1431  -43.7704 H         1 UNK         0.3040 
     91 H91        25.0409  -29.3518  -42.9561 H         1 UNK         0.1015 
     92 H92        22.3035  -30.6232  -43.4796 H         1 UNK         0.0786 
     93 H93        23.8453  -31.4661  -43.3069 H         1 UNK         0.0786 
     94 H94        23.5755  -30.4121  -44.6772 H         1 UNK         0.0786 
     95 H95        22.5734  -27.8575  -41.3124 H         1 UNK         0.3172 
     96 H96        22.0044  -27.5446  -39.1983 H         1 UNK         0.0595 
     97 H97        24.7358  -28.7517  -38.4940 H         1 UNK         0.0839 
     98 H98        23.8216  -27.5794  -37.5448 H         1 UNK         0.0839 
     99 H99        24.4965  -27.1145  -39.0879 H         1 UNK         0.0839 
    100 H100       22.8686  -29.1236  -36.8297 H         1 UNK         0.2998 
    101 H101       20.6599  -30.9607  -36.7080 H         1 UNK         0.0822 
    102 H102       21.5212  -31.3752  -34.4001 H         1 UNK         0.0787 
    103 H103       22.9880  -30.4784  -34.7659 H         1 UNK         0.0787 
    104 H104       21.4277  -29.6546  -34.7337 H         1 UNK         0.0787 
    105 H105       23.9975  -31.3354  -37.6409 H         1 UNK         0.3055 
    106 H106       24.2592  -34.1748  -37.1781 H         1 UNK         0.1106 
    107 H107       25.7823  -32.2868  -39.0637 H         1 UNK         0.0828 
    108 H108       26.2540  -32.7222  -37.4218 H         1 UNK         0.0828 
    109 H109       26.2468  -33.9401  -38.6854 H         1 UNK         0.0828 
    110 H110       23.4762  -32.1774  -40.0607 H         1 UNK         0.2931 
    111 H111       22.4000  -32.5222  -41.8886 H         1 UNK         0.0412 
    112 H112       24.9577  -33.9708  -41.7574 H         1 UNK         0.3472 
    113 H113       24.8345  -35.1991  -42.9930 H         1 UNK         0.3472 
    114 H114       20.6305  -33.2800  -40.0600 H         1 UNK         0.0970 
    115 H115       20.7743  -34.8421  -40.8099 H         1 UNK         0.0970 
    116 H116       19.2637  -31.3198  -40.8963 H         1 UNK         0.0612 
    117 H117       20.6482  -30.9971  -41.9077 H         1 UNK         0.0612 
@<TRIPOS>BOND
     1    1    2 1    
     2    1   62 1    
     3    1   63 1    
     4    1   64 1    
     5    2    3 2    
     6    2    4 am   BACKBONE|DICT|INTERRES
     7    4    5 1    
     8    4   65 1    
     9    5    6 1    
    10    5   25 1    
    11    5   66 1    
    12    6    7 1    
    13    6   67 1    
    14    6   68 1    
    15    7    8 1    
    16    8    9 1    
    17    8   69 1    
    18    8   70 1    
    19    9   10 ar   
    20    9   14 ar   
    21   10   11 ar   
    22   10   71 1    
    23   11   12 ar   
    24   11   61 1    
    25   12   13 ar   
    26   12   72 1    
    27   13   14 ar   
    28   13   15 1    
    29   14   73 1    
    30   15   16 1    
    31   15   74 1    
    32   15   75 1    
    33   16   17 1    
    34   17   18 1    
    35   17   76 1    
    36   17   77 1    
    37   18   19 1    
    38   18   27 1    
    39   18   78 1    
    40   19   20 am   BACKBONE|DICT|INTERRES
    41   19   79 1    
    42   20   21 2    
    43   20   22 1    
    44   22   23 1    
    45   22   24 1    
    46   22   80 1    
    47   23   81 1    
    48   23   82 1    
    49   23   83 1    
    50   24   25 am   BACKBONE|DICT|INTERRES
    51   24   84 1    
    52   25   26 2    
    53   27   28 2    
    54   27   29 am   BACKBONE|DICT|INTERRES
    55   29   30 1    
    56   29   85 1    
    57   30   31 1    
    58   30   32 1    
    59   30   86 1    
    60   31   87 1    
    61   31   88 1    
    62   31   89 1    
    63   32   33 2    
    64   32   34 am   BACKBONE|DICT|INTERRES
    65   34   35 1    
    66   34   90 1    
    67   35   36 1    
    68   35   37 1    
    69   35   91 1    
    70   36   92 1    
    71   36   93 1    
    72   36   94 1    
    73   37   38 2    
    74   37   39 am   BACKBONE|DICT|INTERRES
    75   39   40 1    
    76   39   95 1    
    77   40   41 1    
    78   40   42 1    
    79   40   96 1    
    80   41   97 1    
    81   41   98 1    
    82   41   99 1    
    83   42   43 2    
    84   42   44 am   BACKBONE|DICT|INTERRES
    85   44   45 1    
    86   44  100 1    
    87   45   46 1    
    88   45   47 1    
    89   45  101 1    
    90   46  102 1    
    91   46  103 1    
    92   46  104 1    
    93   47   48 2    
    94   47   49 am   BACKBONE|DICT|INTERRES
    95   49   50 1    
    96   49  105 1    
    97   50   51 1    
    98   50   52 1    
    99   50  106 1    
   100   51  107 1    
   101   51  108 1    
   102   51  109 1    
   103   52   53 2    
   104   52   54 am   BACKBONE|DICT|INTERRES
   105   54   55 1    
   106   54  110 1    
   107   55   56 1    
   108   55   59 1    
   109   55  111 1    
   110   56   57 am   BACKBONE|DICT|INTERRES
   111   56   58 2    
   112   57  112 1    
   113   57  113 1    
   114   59   60 1    
   115   59  114 1    
   116   59  115 1    
   117   60   61 1    
   118   61  116 1    
   119   61  117 1    
@<TRIPOS>SUBSTRUCTURE
     1 UNK         1 GROUP             0       ****    0 ROOT    
