@<TRIPOS>MOLECULE
3R8
117   119    1
SMALL
USER_CHARGES


@<TRIPOS>ATOM
      1 CA         16.9935  -21.8822  -45.4580 C.3       0 UNK        -0.2013 
      2 C          17.9101  -22.7664  -44.6261 C.2       0 UNK         0.4866 
      3 O          18.2125  -22.4294  -43.4815 O.2       0 UNK        -0.5176 
      4 N          18.3563  -23.8945  -45.1945 N.am      1 UNK        -0.4884 
      5 CA         19.2343  -24.8829  -44.5537 C.3       1 UNK         0.0853 
      6 C6         19.8763  -25.8838  -45.5625 C.3       10 UNK        -0.0849 
      7 S7         18.9907  -26.1484  -47.1460 S.3       10 UNK        -0.2776 
      8 C8         17.7267  -27.4076  -46.7492 C.3       10 UNK         0.0316 
      9 C9         18.2333  -28.7895  -46.3312 C.ar      10 UNK        -0.0863 
     10 C10        19.5623  -29.2048  -46.4948 C.ar      10 UNK        -0.1009 
     11 C11        19.9692  -30.4729  -46.0698 C.ar      10 UNK        -0.0712 
     12 C12        19.0375  -31.3426  -45.4994 C.ar      10 UNK        -0.0894 
     13 C13        17.7100  -30.9459  -45.3285 C.ar      10 UNK        -0.0745 
     14 C14        17.3134  -29.6780  -45.7649 C.ar      10 UNK        -0.0972 
     15 C15        16.7181  -31.8731  -44.6378 C.3       10 UNK         0.0209 
     16 S16        15.9392  -31.0957  -43.1824 S.3       10 UNK        -0.2568 
     17 C17        17.3239  -30.9454  -41.9943 C.3       10 UNK        -0.0983 
     18 CA         18.2967  -29.7576  -42.2605 C.3       3 UNK         0.0876 
     19 N          17.6263  -28.4954  -42.6064 N.am      3 UNK        -0.4424 
     20 C          16.7913  -27.7736  -41.8464 C.2       2 UNK         0.4918 
     21 O          16.3916  -28.1352  -40.7392 O.2       2 UNK        -0.4875 
     22 CA         16.3678  -26.3907  -42.3961 C.3       2 UNK         0.0481 
     23 CB         16.1854  -25.3627  -41.2602 C.3       2 UNK        -0.1831 
     24 N          17.2452  -25.8210  -43.4352 N.am      2 UNK        -0.4498 
     25 C          18.5721  -25.6159  -43.3687 C.2       1 UNK         0.5027 
     26 O          19.2777  -25.9944  -42.4317 O.2       1 UNK        -0.4969 
     27 C          19.3626  -29.6075  -41.1452 C.2       3 UNK         0.5005 
     28 O          19.9180  -30.6145  -40.7013 O.2       3 UNK        -0.5279 
     29 N          19.6510  -28.3666  -40.7273 N.am      4 UNK        -0.4463 
     30 CA         20.5774  -28.0146  -39.6511 C.3       4 UNK         0.0283 
     31 CB         19.9373  -26.8997  -38.8075 C.3       4 UNK        -0.1875 
     32 C          21.9458  -27.5574  -40.1814 C.2       4 UNK         0.4949 
     33 O          22.8859  -27.4593  -39.3925 O.2       4 UNK        -0.5039 
     34 N          22.0387  -27.2806  -41.4896 N.am      5 UNK        -0.4663 
     35 CA         23.2616  -26.8846  -42.1913 C.3       5 UNK         0.0242 
     36 CB         22.9020  -26.5192  -43.6398 C.3       5 UNK        -0.1982 
     37 C          24.3506  -27.9720  -42.1607 C.2       5 UNK         0.5017 
     38 O          24.0381  -29.1549  -41.9992 O.2       5 UNK        -0.5012 
     39 N          25.6099  -27.5414  -42.3280 N.am      6 UNK        -0.4439 
     40 CA         26.8309  -28.3510  -42.2394 C.3       6 UNK         0.0297 
     41 CB         26.9144  -29.3500  -43.4178 C.3       6 UNK        -0.2006 
     42 C          26.9571  -28.9915  -40.8422 C.2       6 UNK         0.4892 
     43 O          26.8922  -28.2667  -39.8481 O.2       6 UNK        -0.5089 
     44 N          27.0985  -30.3205  -40.7808 N.am      7 UNK        -0.4243 
     45 CA         27.0928  -31.1139  -39.5498 C.3       7 UNK         0.0196 
     46 CB         28.1921  -32.1893  -39.6489 C.3       7 UNK        -0.2007 
     47 C          25.6951  -31.7145  -39.2975 C.2       7 UNK         0.5020 
     48 O          25.5957  -32.8872  -38.9350 O.2       7 UNK        -0.5147 
     49 N          24.6460  -30.9061  -39.5187 N.am      8 UNK        -0.4734 
     50 CA         23.2200  -31.2567  -39.5095 C.3       8 UNK         0.0238 
     51 CB         22.7489  -31.6864  -38.1041 C.3       8 UNK        -0.1912 
     52 C          22.9003  -32.2877  -40.6045 C.2       8 UNK         0.5038 
     53 O          22.6187  -33.4494  -40.3023 O.2       8 UNK        -0.5046 
     54 N          23.0068  -31.8400  -41.8622 N.am      9 UNK        -0.4200 
     55 CA         22.8240  -32.6490  -43.0775 C.3       9 UNK         0.0839 
     56 C          21.4186  -33.2882  -43.2870 C.2       9 UNK         0.5513 
     57 N          20.3877  -32.9172  -42.5385 N.am      9 UNK        -0.7519 
     58 O          21.2660  -34.1526  -44.1461 O.2       9 UNK        -0.4960 
     59 C59        23.3230  -31.8979  -44.3411 C.3       10 UNK        -0.0876 
     60 S60        22.3689  -30.3869  -44.7313 S.3       10 UNK        -0.2414 
     61 C61        21.4210  -30.8995  -46.1992 C.3       10 UNK         0.0169 
     62 H62        17.4362  -20.8941  -45.5810 H         1 UNK         0.0903 
     63 H63        16.8136  -22.2987  -46.4489 H         1 UNK         0.0903 
     64 H64        16.0317  -21.7651  -44.9594 H         1 UNK         0.0903 
     65 H65        18.1002  -24.1136  -46.1486 H         1 UNK         0.3096 
     66 H66        20.0526  -24.3160  -44.1026 H         1 UNK         0.1121 
     67 H67        20.8553  -25.4933  -45.8444 H         1 UNK         0.0849 
     68 H68        20.0964  -26.8477  -45.1000 H         1 UNK         0.0849 
     69 H69        17.0726  -27.0088  -45.9742 H         1 UNK         0.0865 
     70 H70        17.0994  -27.5358  -47.6324 H         1 UNK         0.0865 
     71 H71        20.2947  -28.5452  -46.9380 H         1 UNK         0.1346 
     72 H72        19.3549  -32.3198  -45.1636 H         1 UNK         0.1412 
     73 H73        16.2836  -29.3736  -45.6328 H         1 UNK         0.1426 
     74 H74        15.9385  -32.1454  -45.3502 H         1 UNK         0.0716 
     75 H75        17.1956  -32.8049  -44.3306 H         1 UNK         0.0716 
     76 H76        16.8815  -30.8451  -41.0017 H         1 UNK         0.0695 
     77 H77        17.8668  -31.8905  -41.9809 H         1 UNK         0.0695 
     78 H78        18.8912  -30.0101  -43.1360 H         1 UNK         0.0983 
     79 H79        17.8799  -28.1124  -43.5046 H         1 UNK         0.3095 
     80 H80        15.3962  -26.5408  -42.8688 H         1 UNK         0.0454 
     81 H81        15.8623  -24.3963  -41.6470 H         1 UNK         0.0851 
     82 H82        15.4294  -25.6907  -40.5457 H         1 UNK         0.0851 
     83 H83        17.1121  -25.2075  -40.7064 H         1 UNK         0.0851 
     84 H84        16.7715  -25.4672  -44.2545 H         1 UNK         0.2976 
     85 H85        19.2019  -27.5861  -41.1964 H         1 UNK         0.3116 
     86 H86        20.7436  -28.8792  -39.0052 H         1 UNK         0.0646 
     87 H87        20.5807  -26.6222  -37.9714 H         1 UNK         0.0847 
     88 H88        18.9824  -27.2184  -38.3891 H         1 UNK         0.0847 
     89 H89        19.7605  -25.9989  -39.3973 H         1 UNK         0.0847 
     90 H90        21.2042  -27.3707  -42.0503 H         1 UNK         0.3040 
     91 H91        23.6539  -25.9973  -41.6896 H         1 UNK         0.1015 
     92 H92        22.1980  -25.6883  -43.6697 H         1 UNK         0.0786 
     93 H93        22.4559  -27.3624  -44.1686 H         1 UNK         0.0786 
     94 H94        23.7844  -26.2126  -44.2030 H         1 UNK         0.0786 
     95 H95        25.7611  -26.5477  -42.4332 H         1 UNK         0.3172 
     96 H96        27.6693  -27.6594  -42.3338 H         1 UNK         0.0595 
     97 H97        26.1192  -30.0951  -43.3886 H         1 UNK         0.0839 
     98 H98        27.8689  -29.8780  -43.4231 H         1 UNK         0.0839 
     99 H99        26.8368  -28.8308  -44.3731 H         1 UNK         0.0839 
    100 H100       27.1015  -30.8395  -41.6473 H         1 UNK         0.2998 
    101 H101       27.3258  -30.4805  -38.6911 H         1 UNK         0.0822 
    102 H102       29.1704  -31.7406  -39.8222 H         1 UNK         0.0787 
    103 H103       28.2623  -32.7649  -38.7249 H         1 UNK         0.0787 
    104 H104       27.9971  -32.8930  -40.4592 H         1 UNK         0.0787 
    105 H105       24.8468  -29.9732  -39.8577 H         1 UNK         0.3055 
    106 H106       22.6724  -30.3513  -39.7709 H         1 UNK         0.1106 
    107 H107       21.6730  -31.8661  -38.1000 H         1 UNK         0.0828 
    108 H108       23.2312  -32.6051  -37.7697 H         1 UNK         0.0828 
    109 H109       22.9514  -30.9113  -37.3652 H         1 UNK         0.0828 
    110 H110       23.2632  -30.8663  -42.0118 H         1 UNK         0.2931 
    111 H111       23.4944  -33.5011  -42.9500 H         1 UNK         0.0412 
    112 H112       19.5009  -33.3730  -42.6715 H         1 UNK         0.3472 
    113 H113       20.4892  -32.2026  -41.8265 H         1 UNK         0.3472 
    114 H114       23.3425  -32.5681  -45.2018 H         1 UNK         0.0970 
    115 H115       24.3617  -31.5998  -44.1953 H         1 UNK         0.0970 
    116 H116       21.4704  -31.9805  -46.3355 H         1 UNK         0.0612 
    117 H117       21.8708  -30.4565  -47.0889 H         1 UNK         0.0612 
@<TRIPOS>BOND
     1    1    2 1    
     2    1   62 1    
     3    1   63 1    
     4    1   64 1    
     5    2    3 2    
     6    2    4 am   BACKBONE|DICT|INTERRES
     7    4    5 1    
     8    4   65 1    
     9    5    6 1    
    10    5   25 1    
    11    5   66 1    
    12    6    7 1    
    13    6   67 1    
    14    6   68 1    
    15    7    8 1    
    16    8    9 1    
    17    8   69 1    
    18    8   70 1    
    19    9   10 ar   
    20    9   14 ar   
    21   10   11 ar   
    22   10   71 1    
    23   11   12 ar   
    24   11   61 1    
    25   12   13 ar   
    26   12   72 1    
    27   13   14 ar   
    28   13   15 1    
    29   14   73 1    
    30   15   16 1    
    31   15   74 1    
    32   15   75 1    
    33   16   17 1    
    34   17   18 1    
    35   17   76 1    
    36   17   77 1    
    37   18   19 1    
    38   18   27 1    
    39   18   78 1    
    40   19   20 am   BACKBONE|DICT|INTERRES
    41   19   79 1    
    42   20   21 2    
    43   20   22 1    
    44   22   23 1    
    45   22   24 1    
    46   22   80 1    
    47   23   81 1    
    48   23   82 1    
    49   23   83 1    
    50   24   25 am   BACKBONE|DICT|INTERRES
    51   24   84 1    
    52   25   26 2    
    53   27   28 2    
    54   27   29 am   BACKBONE|DICT|INTERRES
    55   29   30 1    
    56   29   85 1    
    57   30   31 1    
    58   30   32 1    
    59   30   86 1    
    60   31   87 1    
    61   31   88 1    
    62   31   89 1    
    63   32   33 2    
    64   32   34 am   BACKBONE|DICT|INTERRES
    65   34   35 1    
    66   34   90 1    
    67   35   36 1    
    68   35   37 1    
    69   35   91 1    
    70   36   92 1    
    71   36   93 1    
    72   36   94 1    
    73   37   38 2    
    74   37   39 am   BACKBONE|DICT|INTERRES
    75   39   40 1    
    76   39   95 1    
    77   40   41 1    
    78   40   42 1    
    79   40   96 1    
    80   41   97 1    
    81   41   98 1    
    82   41   99 1    
    83   42   43 2    
    84   42   44 am   BACKBONE|DICT|INTERRES
    85   44   45 1    
    86   44  100 1    
    87   45   46 1    
    88   45   47 1    
    89   45  101 1    
    90   46  102 1    
    91   46  103 1    
    92   46  104 1    
    93   47   48 2    
    94   47   49 am   BACKBONE|DICT|INTERRES
    95   49   50 1    
    96   49  105 1    
    97   50   51 1    
    98   50   52 1    
    99   50  106 1    
   100   51  107 1    
   101   51  108 1    
   102   51  109 1    
   103   52   53 2    
   104   52   54 am   BACKBONE|DICT|INTERRES
   105   54   55 1    
   106   54  110 1    
   107   55   56 1    
   108   55   59 1    
   109   55  111 1    
   110   56   57 am   BACKBONE|DICT|INTERRES
   111   56   58 2    
   112   57  112 1    
   113   57  113 1    
   114   59   60 1    
   115   59  114 1    
   116   59  115 1    
   117   60   61 1    
   118   61  116 1    
   119   61  117 1    
@<TRIPOS>SUBSTRUCTURE
     1 UNK         1 GROUP             0       ****    0 ROOT    
