@<TRIPOS>MOLECULE
3R8
117   119    1
SMALL
USER_CHARGES


@<TRIPOS>ATOM
      1 CA         15.8086  -24.8183  -48.8797 C.3       0 UNK        -0.2013 
      2 C          16.0706  -24.6924  -47.3865 C.2       0 UNK         0.4866 
      3 O          15.8562  -23.6223  -46.8178 O.2       0 UNK        -0.5176 
      4 N          16.5432  -25.7759  -46.7524 N.am      1 UNK        -0.4884 
      5 CA         16.8495  -25.8806  -45.3155 C.3       1 UNK         0.0853 
      6 C6         15.5995  -25.6421  -44.4200 C.3       10 UNK        -0.0849 
      7 S7         15.6174  -26.5049  -42.8093 S.3       10 UNK        -0.2776 
      8 C8         15.3438  -28.2518  -43.2594 C.3       10 UNK         0.0316 
      9 C9         16.6249  -29.0602  -43.1020 C.ar      10 UNK        -0.0863 
     10 C10        17.0715  -29.4191  -41.8273 C.ar      10 UNK        -0.1009 
     11 C11        18.2683  -30.1210  -41.6514 C.ar      10 UNK        -0.0712 
     12 C12        19.0261  -30.4600  -42.7832 C.ar      10 UNK        -0.0894 
     13 C13        18.5824  -30.1231  -44.0661 C.ar      10 UNK        -0.0745 
     14 C14        17.3706  -29.4435  -44.2183 C.ar      10 UNK        -0.0972 
     15 C15        19.3914  -30.5129  -45.2958 C.3       10 UNK         0.0209 
     16 S16        19.8713  -29.0623  -46.2925 S.3       10 UNK        -0.2568 
     17 C17        21.6001  -28.7432  -45.7813 C.3       10 UNK        -0.0983 
     18 CA         21.7995  -27.5081  -44.8602 C.3       3 UNK         0.0876 
     19 N          21.0335  -26.3592  -45.3447 N.am      3 UNK        -0.4424 
     20 C          21.2927  -25.0643  -45.1291 C.2       2 UNK         0.4918 
     21 O          22.2833  -24.6521  -44.5276 O.2       2 UNK        -0.4875 
     22 CA         20.2507  -24.0616  -45.6653 C.3       2 UNK         0.0481 
     23 CB         20.7335  -23.4381  -46.9843 C.3       2 UNK        -0.1831 
     24 N          18.9285  -24.6672  -45.8728 N.am      2 UNK        -0.4498 
     25 C          18.1120  -25.0874  -44.8929 C.2       1 UNK         0.5027 
     26 O          18.3745  -24.9272  -43.7014 O.2       1 UNK        -0.4969 
     27 C          21.5543  -27.8393  -43.3696 C.2       3 UNK         0.5005 
     28 O          22.1818  -28.7707  -42.8627 O.2       3 UNK        -0.5279 
     29 N          20.6704  -27.0955  -42.6859 N.am      4 UNK        -0.4463 
     30 CA         20.4036  -27.2431  -41.2549 C.3       4 UNK         0.0283 
     31 CB         19.1673  -26.4161  -40.8741 C.3       4 UNK        -0.1875 
     32 C          21.6078  -26.8509  -40.3848 C.2       4 UNK         0.4949 
     33 O          22.3411  -25.9238  -40.7354 O.2       4 UNK        -0.5039 
     34 N          21.7558  -27.5539  -39.2515 N.am      5 UNK        -0.4663 
     35 CA         22.8326  -27.4181  -38.2595 C.3       5 UNK         0.0242 
     36 CB         22.7496  -26.0553  -37.5379 C.3       5 UNK        -0.1982 
     37 C          24.2270  -27.7080  -38.8523 C.2       5 UNK         0.5017 
     38 O          25.1892  -26.9953  -38.5589 O.2       5 UNK        -0.5012 
     39 N          24.3022  -28.7558  -39.6788 N.am      6 UNK        -0.4439 
     40 CA         25.5061  -29.2464  -40.3407 C.3       6 UNK         0.0297 
     41 CB         25.6275  -28.5894  -41.7287 C.3       6 UNK        -0.2006 
     42 C          25.4235  -30.7747  -40.4423 C.2       6 UNK         0.4892 
     43 O          24.3981  -31.3629  -40.0859 O.2       6 UNK        -0.5089 
     44 N          26.4944  -31.3947  -40.9572 N.am      7 UNK        -0.4243 
     45 CA         26.6656  -32.8477  -41.1153 C.3       7 UNK         0.0196 
     46 CB         28.0667  -33.1219  -41.6869 C.3       7 UNK        -0.2007 
     47 C          25.5913  -33.5622  -41.9624 C.2       7 UNK         0.5020 
     48 O          25.4965  -34.7880  -41.9004 O.2       7 UNK        -0.5147 
     49 N          24.7909  -32.7975  -42.7169 N.am      8 UNK        -0.4734 
     50 CA         23.6110  -33.2673  -43.4449 C.3       8 UNK         0.0238 
     51 CB         23.1224  -32.1455  -44.3730 C.3       8 UNK        -0.1912 
     52 C          22.4607  -33.7397  -42.5329 C.2       8 UNK         0.5038 
     53 O          21.6188  -34.5063  -43.0033 O.2       8 UNK        -0.5046 
     54 N          22.4341  -33.2926  -41.2695 N.am      9 UNK        -0.4200 
     55 CA         21.4389  -33.7009  -40.2660 C.3       9 UNK         0.0839 
     56 C          21.9904  -33.8358  -38.8195 C.2       9 UNK         0.5513 
     57 N          23.1604  -33.3055  -38.4870 N.am      9 UNK        -0.7519 
     58 O          21.3501  -34.4667  -37.9819 O.2       9 UNK        -0.4960 
     59 C59        20.1391  -32.8571  -40.3380 C.3       10 UNK        -0.0876 
     60 S60        20.3947  -31.0796  -40.0019 S.3       10 UNK        -0.2414 
     61 C61        18.6918  -30.4567  -40.2175 C.3       10 UNK         0.0169 
     62 H62        16.0483  -25.8129  -49.2553 H         1 UNK         0.0903 
     63 H63        14.7586  -24.6199  -49.0933 H         1 UNK         0.0903 
     64 H64        16.4101  -24.0943  -49.4288 H         1 UNK         0.0903 
     65 H65        16.7007  -26.6205  -47.2868 H         1 UNK         0.3096 
     66 H66        17.1454  -26.9182  -45.1834 H         1 UNK         0.1121 
     67 H67        14.6973  -25.9639  -44.9427 H         1 UNK         0.0849 
     68 H68        15.4616  -24.5747  -44.2382 H         1 UNK         0.0849 
     69 H69        14.5737  -28.6671  -42.6075 H         1 UNK         0.0865 
     70 H70        14.9534  -28.3291  -44.2752 H         1 UNK         0.0865 
     71 H71        16.4897  -29.1296  -40.9624 H         1 UNK         0.1346 
     72 H72        19.9662  -30.9818  -42.6788 H         1 UNK         0.1412 
     73 H73        17.0214  -29.2003  -45.2121 H         1 UNK         0.1426 
     74 H74        18.7800  -31.1699  -45.9157 H         1 UNK         0.0716 
     75 H75        20.2727  -31.0925  -45.0211 H         1 UNK         0.0716 
     76 H76        22.1617  -28.5762  -46.7017 H         1 UNK         0.0695 
     77 H77        22.0405  -29.6422  -45.3511 H         1 UNK         0.0695 
     78 H78        22.8566  -27.2379  -44.9137 H         1 UNK         0.0983 
     79 H79        20.2031  -26.5994  -45.8658 H         1 UNK         0.3095 
     80 H80        20.1485  -23.2638  -44.9267 H         1 UNK         0.0454 
     81 H81        20.8489  -24.1870  -47.7689 H         1 UNK         0.0851 
     82 H82        21.7014  -22.9519  -46.8540 H         1 UNK         0.0851 
     83 H83        20.0382  -22.6789  -47.3427 H         1 UNK         0.0851 
     84 H84        18.6374  -24.8198  -46.8278 H         1 UNK         0.2976 
     85 H85        20.1993  -26.3351  -43.1564 H         1 UNK         0.3116 
     86 H86        20.1884  -28.2938  -41.0755 H         1 UNK         0.0646 
     87 H87        19.3254  -25.3512  -41.0489 H         1 UNK         0.0847 
     88 H88        18.9180  -26.5426  -39.8200 H         1 UNK         0.0847 
     89 H89        18.2957  -26.7234  -41.4513 H         1 UNK         0.0847 
     90 H90        21.0947  -28.2975  -39.0704 H         1 UNK         0.3040 
     91 H91        22.6609  -28.1934  -37.5107 H         1 UNK         0.1015 
     92 H92        22.9706  -25.2252  -38.2095 H         1 UNK         0.0786 
     93 H93        23.4643  -26.0051  -36.7154 H         1 UNK         0.0786 
     94 H94        21.7588  -25.8899  -37.1148 H         1 UNK         0.0786 
     95 H95        23.4816  -29.3302  -39.8279 H         1 UNK         0.3172 
     96 H96        26.3840  -29.0002  -39.7399 H         1 UNK         0.0595 
     97 H97        24.8059  -28.8800  -42.3840 H         1 UNK         0.0839 
     98 H98        26.5573  -28.8687  -42.2248 H         1 UNK         0.0839 
     99 H99        25.6199  -27.5017  -41.6530 H         1 UNK         0.0839 
    100 H100       27.2829  -30.8270  -41.2336 H         1 UNK         0.2998 
    101 H101       26.6134  -33.2857  -40.1163 H         1 UNK         0.0822 
    102 H102       28.8469  -32.7235  -41.0380 H         1 UNK         0.0787 
    103 H103       28.2483  -34.1934  -41.7846 H         1 UNK         0.0787 
    104 H104       28.1914  -32.6792  -42.6760 H         1 UNK         0.0787 
    105 H105       24.9447  -31.8001  -42.7004 H         1 UNK         0.3055 
    106 H106       23.9108  -34.1203  -44.0578 H         1 UNK         0.1106 
    107 H107       22.7871  -31.2782  -43.8030 H         1 UNK         0.0828 
    108 H108       22.2833  -32.4832  -44.9823 H         1 UNK         0.0828 
    109 H109       23.9064  -31.8198  -45.0567 H         1 UNK         0.0828 
    110 H110       23.1490  -32.6466  -40.9532 H         1 UNK         0.2931 
    111 H111       21.1504  -34.7248  -40.5128 H         1 UNK         0.0412 
    112 H112       23.4946  -33.4263  -37.5446 H         1 UNK         0.3472 
    113 H113       23.6626  -32.6871  -39.1179 H         1 UNK         0.3472 
    114 H114       19.3998  -33.2440  -39.6342 H         1 UNK         0.0970 
    115 H115       19.6876  -32.9670  -41.3246 H         1 UNK         0.0970 
    116 H116       17.9891  -31.1781  -39.7984 H         1 UNK         0.0612 
    117 H117       18.5977  -29.5553  -39.6102 H         1 UNK         0.0612 
@<TRIPOS>BOND
     1    1    2 1    
     2    1   62 1    
     3    1   63 1    
     4    1   64 1    
     5    2    3 2    
     6    2    4 am   BACKBONE|DICT|INTERRES
     7    4    5 1    
     8    4   65 1    
     9    5    6 1    
    10    5   25 1    
    11    5   66 1    
    12    6    7 1    
    13    6   67 1    
    14    6   68 1    
    15    7    8 1    
    16    8    9 1    
    17    8   69 1    
    18    8   70 1    
    19    9   10 ar   
    20    9   14 ar   
    21   10   11 ar   
    22   10   71 1    
    23   11   12 ar   
    24   11   61 1    
    25   12   13 ar   
    26   12   72 1    
    27   13   14 ar   
    28   13   15 1    
    29   14   73 1    
    30   15   16 1    
    31   15   74 1    
    32   15   75 1    
    33   16   17 1    
    34   17   18 1    
    35   17   76 1    
    36   17   77 1    
    37   18   19 1    
    38   18   27 1    
    39   18   78 1    
    40   19   20 am   BACKBONE|DICT|INTERRES
    41   19   79 1    
    42   20   21 2    
    43   20   22 1    
    44   22   23 1    
    45   22   24 1    
    46   22   80 1    
    47   23   81 1    
    48   23   82 1    
    49   23   83 1    
    50   24   25 am   BACKBONE|DICT|INTERRES
    51   24   84 1    
    52   25   26 2    
    53   27   28 2    
    54   27   29 am   BACKBONE|DICT|INTERRES
    55   29   30 1    
    56   29   85 1    
    57   30   31 1    
    58   30   32 1    
    59   30   86 1    
    60   31   87 1    
    61   31   88 1    
    62   31   89 1    
    63   32   33 2    
    64   32   34 am   BACKBONE|DICT|INTERRES
    65   34   35 1    
    66   34   90 1    
    67   35   36 1    
    68   35   37 1    
    69   35   91 1    
    70   36   92 1    
    71   36   93 1    
    72   36   94 1    
    73   37   38 2    
    74   37   39 am   BACKBONE|DICT|INTERRES
    75   39   40 1    
    76   39   95 1    
    77   40   41 1    
    78   40   42 1    
    79   40   96 1    
    80   41   97 1    
    81   41   98 1    
    82   41   99 1    
    83   42   43 2    
    84   42   44 am   BACKBONE|DICT|INTERRES
    85   44   45 1    
    86   44  100 1    
    87   45   46 1    
    88   45   47 1    
    89   45  101 1    
    90   46  102 1    
    91   46  103 1    
    92   46  104 1    
    93   47   48 2    
    94   47   49 am   BACKBONE|DICT|INTERRES
    95   49   50 1    
    96   49  105 1    
    97   50   51 1    
    98   50   52 1    
    99   50  106 1    
   100   51  107 1    
   101   51  108 1    
   102   51  109 1    
   103   52   53 2    
   104   52   54 am   BACKBONE|DICT|INTERRES
   105   54   55 1    
   106   54  110 1    
   107   55   56 1    
   108   55   59 1    
   109   55  111 1    
   110   56   57 am   BACKBONE|DICT|INTERRES
   111   56   58 2    
   112   57  112 1    
   113   57  113 1    
   114   59   60 1    
   115   59  114 1    
   116   59  115 1    
   117   60   61 1    
   118   61  116 1    
   119   61  117 1    
@<TRIPOS>SUBSTRUCTURE
     1 UNK         1 GROUP             0       ****    0 ROOT    
