@<TRIPOS>MOLECULE
3R8
117   119    1
SMALL
USER_CHARGES


@<TRIPOS>ATOM
      1 CA         13.6240  -23.8693  -44.1716 C.3       0 UNK        -0.2013 
      2 C          14.6866  -24.7060  -44.8682 C.2       0 UNK         0.4866 
      3 O          15.5263  -24.1575  -45.5819 O.2       0 UNK        -0.5176 
      4 N          14.6552  -26.0309  -44.6689 N.am      1 UNK        -0.4884 
      5 CA         15.6138  -26.9860  -45.2432 C.3       1 UNK         0.0853 
      6 C6         15.0691  -28.4367  -45.1574 C.3       10 UNK        -0.0849 
      7 S7         15.7862  -29.5444  -46.4188 S.3       10 UNK        -0.2776 
      8 C8         16.4222  -30.9268  -45.4125 C.3       10 UNK         0.0316 
      9 C9         17.7006  -30.5759  -44.6609 C.ar      10 UNK        -0.0863 
     10 C10        17.7011  -30.4778  -43.2665 C.ar      10 UNK        -0.1009 
     11 C11        18.8847  -30.2022  -42.5736 C.ar      10 UNK        -0.0712 
     12 C12        20.0742  -30.0149  -43.2860 C.ar      10 UNK        -0.0894 
     13 C13        20.0855  -30.1055  -44.6816 C.ar      10 UNK        -0.0745 
     14 C14        18.8965  -30.3896  -45.3606 C.ar      10 UNK        -0.0972 
     15 C15        21.3785  -29.9313  -45.4663 C.3       10 UNK         0.0209 
     16 S16        21.6574  -28.2020  -45.9641 S.3       10 UNK        -0.2568 
     17 C17        22.5014  -27.5020  -44.5061 C.3       10 UNK        -0.0983 
     18 CA         21.7411  -26.2976  -43.8980 C.3       3 UNK         0.0876 
     19 N          20.4302  -26.6839  -43.3800 N.am      3 UNK        -0.4424 
     20 C          19.4700  -25.8383  -42.9892 C.2       2 UNK         0.4918 
     21 O          19.5499  -24.6105  -43.0657 O.2       2 UNK        -0.4875 
     22 CA         18.2026  -26.4900  -42.4087 C.3       2 UNK         0.0481 
     23 CB         17.7958  -25.8241  -41.0835 C.3       2 UNK        -0.1831 
     24 N          17.0476  -26.5098  -43.3101 N.am      2 UNK        -0.4498 
     25 C          17.0149  -26.8740  -44.6033 C.2       1 UNK         0.5027 
     26 O          18.0064  -27.1245  -45.2866 O.2       1 UNK        -0.4969 
     27 C          22.5888  -25.6447  -42.7895 C.2       3 UNK         0.5005 
     28 O          22.7528  -26.2379  -41.7190 O.2       3 UNK        -0.5279 
     29 N          23.1653  -24.4704  -43.0867 N.am      4 UNK        -0.4463 
     30 CA         24.0300  -23.6942  -42.1857 C.3       4 UNK         0.0283 
     31 CB         24.3247  -22.3269  -42.8240 C.3       4 UNK        -0.1875 
     32 C          25.3445  -24.4002  -41.7988 C.2       4 UNK         0.4949 
     33 O          25.9626  -24.0231  -40.8036 O.2       4 UNK        -0.5039 
     34 N          25.7343  -25.4220  -42.5732 N.am      5 UNK        -0.4663 
     35 CA         26.8661  -26.3117  -42.3071 C.3       5 UNK         0.0242 
     36 CB         27.1567  -27.1279  -43.5783 C.3       5 UNK        -0.1982 
     37 C          26.6596  -27.2535  -41.1030 C.2       5 UNK         0.5017 
     38 O          27.6407  -27.8490  -40.6567 O.2       5 UNK        -0.5012 
     39 N          25.4138  -27.3814  -40.6117 N.am      6 UNK        -0.4439 
     40 CA         24.9789  -28.2523  -39.5115 C.3       6 UNK         0.0297 
     41 CB         25.6174  -27.8248  -38.1722 C.3       6 UNK        -0.2006 
     42 C          25.1987  -29.7399  -39.8449 C.2       6 UNK         0.4892 
     43 O          25.9464  -30.4376  -39.1558 O.2       6 UNK        -0.5089 
     44 N          24.5535  -30.1751  -40.9342 N.am      7 UNK        -0.4243 
     45 CA         24.5720  -31.5451  -41.4507 C.3       7 UNK         0.0196 
     46 CB         24.0129  -31.5199  -42.8853 C.3       7 UNK        -0.2007 
     47 C          23.7763  -32.5306  -40.5705 C.2       7 UNK         0.5020 
     48 O          23.1584  -32.1355  -39.5803 O.2       7 UNK        -0.5147 
     49 N          23.7786  -33.8083  -40.9758 N.am      8 UNK        -0.4734 
     50 CA         23.0055  -34.8861  -40.3441 C.3       8 UNK         0.0238 
     51 CB         23.5247  -36.2416  -40.8522 C.3       8 UNK        -0.1912 
     52 C          21.4822  -34.7772  -40.5619 C.2       8 UNK         0.5038 
     53 O          20.7286  -35.3846  -39.8003 O.2       8 UNK        -0.5046 
     54 N          21.0649  -34.0171  -41.5854 N.am      9 UNK        -0.4200 
     55 CA         19.6664  -33.7046  -41.9379 C.3       9 UNK         0.0839 
     56 C          18.8478  -34.9101  -42.4915 C.2       9 UNK         0.5513 
     57 N          19.4805  -35.9962  -42.9197 N.am      9 UNK        -0.7519 
     58 O          17.6228  -34.8544  -42.5639 O.2       9 UNK        -0.4960 
     59 C59        18.9077  -32.9304  -40.8180 C.3       10 UNK        -0.0876 
     60 S60        19.8015  -31.4399  -40.2547 S.3       10 UNK        -0.2414 
     61 C61        18.8720  -30.0976  -41.0541 C.3       10 UNK         0.0169 
     62 H62        12.9440  -24.4816  -43.5796 H         1 UNK         0.0903 
     63 H63        14.0936  -23.1447  -43.5068 H         1 UNK         0.0903 
     64 H64        13.0343  -23.3237  -44.9078 H         1 UNK         0.0903 
     65 H65        13.9308  -26.4260  -44.0849 H         1 UNK         0.3096 
     66 H66        15.7269  -26.7256  -46.2986 H         1 UNK         0.1121 
     67 H67        13.9918  -28.4394  -45.3317 H         1 UNK         0.0849 
     68 H68        15.2044  -28.8532  -44.1572 H         1 UNK         0.0849 
     69 H69        15.6440  -31.2660  -44.7268 H         1 UNK         0.0865 
     70 H70        16.6262  -31.7711  -46.0727 H         1 UNK         0.0865 
     71 H71        16.7810  -30.6267  -42.7183 H         1 UNK         0.1346 
     72 H72        20.9897  -29.8117  -42.7481 H         1 UNK         0.1412 
     73 H73        18.8990  -30.4642  -46.4395 H         1 UNK         0.1426 
     74 H74        21.3396  -30.5438  -46.3684 H         1 UNK         0.0716 
     75 H75        22.2320  -30.3003  -44.8989 H         1 UNK         0.0716 
     76 H76        23.4973  -27.1976  -44.8342 H         1 UNK         0.0695 
     77 H77        22.6584  -28.2781  -43.7550 H         1 UNK         0.0695 
     78 H78        21.5742  -25.5626  -44.6887 H         1 UNK         0.0983 
     79 H79        20.2419  -27.6750  -43.3518 H         1 UNK         0.3095 
     80 H80        18.4333  -27.5296  -42.1879 H         1 UNK         0.0454 
     81 H81        18.6351  -25.7958  -40.3870 H         1 UNK         0.0851 
     82 H82        17.4637  -24.7960  -41.2341 H         1 UNK         0.0851 
     83 H83        16.9899  -26.3700  -40.5928 H         1 UNK         0.0851 
     84 H84        16.1604  -26.2835  -42.8861 H         1 UNK         0.2976 
     85 H85        22.9840  -24.0582  -43.9915 H         1 UNK         0.3116 
     86 H86        23.4737  -23.5263  -41.2611 H         1 UNK         0.0646 
     87 H87        24.8640  -22.4282  -43.7667 H         1 UNK         0.0847 
     88 H88        24.9380  -21.7116  -42.1639 H         1 UNK         0.0847 
     89 H89        23.4071  -21.7712  -43.0178 H         1 UNK         0.0847 
     90 H90        25.1712  -25.6374  -43.3823 H         1 UNK         0.3040 
     91 H91        27.7388  -25.6933  -42.0850 H         1 UNK         0.1015 
     92 H92        26.3143  -27.7652  -43.8510 H         1 UNK         0.0786 
     93 H93        28.0225  -27.7767  -43.4374 H         1 UNK         0.0786 
     94 H94        27.3775  -26.4791  -44.4262 H         1 UNK         0.0786 
     95 H95        24.6720  -26.8535  -41.0613 H         1 UNK         0.3172 
     96 H96        23.9011  -28.1101  -39.4164 H         1 UNK         0.0595 
     97 H97        25.2131  -28.4115  -37.3464 H         1 UNK         0.0839 
     98 H98        25.4161  -26.7759  -37.9544 H         1 UNK         0.0839 
     99 H99        26.6984  -27.9664  -38.1684 H         1 UNK         0.0839 
    100 H100       23.9507  -29.5241  -41.4139 H         1 UNK         0.2998 
    101 H101       25.6105  -31.8819  -41.4803 H         1 UNK         0.0822 
    102 H102       24.5194  -30.7742  -43.4990 H         1 UNK         0.0787 
    103 H103       24.1444  -32.4804  -43.3845 H         1 UNK         0.0787 
    104 H104       22.9467  -31.2934  -42.8898 H         1 UNK         0.0787 
    105 H105       24.3226  -34.0598  -41.7894 H         1 UNK         0.3055 
    106 H106       23.1753  -34.8367  -39.2659 H         1 UNK         0.1106 
    107 H107       22.9889  -37.0669  -40.3806 H         1 UNK         0.0828 
    108 H108       23.3987  -36.3462  -41.9304 H         1 UNK         0.0828 
    109 H109       24.5821  -36.3737  -40.6221 H         1 UNK         0.0828 
    110 H110       21.7671  -33.5743  -42.1572 H         1 UNK         0.2931 
    111 H111       19.7430  -33.0270  -42.7888 H         1 UNK         0.0412 
    112 H112       20.4850  -36.0539  -42.8745 H         1 UNK         0.3472 
    113 H113       18.9450  -36.7681  -43.2854 H         1 UNK         0.3472 
    114 H114       18.7434  -33.5758  -39.9541 H         1 UNK         0.0970 
    115 H115       17.9138  -32.6366  -41.1594 H         1 UNK         0.0970 
    116 H116       19.3184  -29.1494  -40.7529 H         1 UNK         0.0612 
    117 H117       17.8508  -30.0921  -40.6698 H         1 UNK         0.0612 
@<TRIPOS>BOND
     1    1    2 1    
     2    1   62 1    
     3    1   63 1    
     4    1   64 1    
     5    2    3 2    
     6    2    4 am   BACKBONE|DICT|INTERRES
     7    4    5 1    
     8    4   65 1    
     9    5    6 1    
    10    5   25 1    
    11    5   66 1    
    12    6    7 1    
    13    6   67 1    
    14    6   68 1    
    15    7    8 1    
    16    8    9 1    
    17    8   69 1    
    18    8   70 1    
    19    9   10 ar   
    20    9   14 ar   
    21   10   11 ar   
    22   10   71 1    
    23   11   12 ar   
    24   11   61 1    
    25   12   13 ar   
    26   12   72 1    
    27   13   14 ar   
    28   13   15 1    
    29   14   73 1    
    30   15   16 1    
    31   15   74 1    
    32   15   75 1    
    33   16   17 1    
    34   17   18 1    
    35   17   76 1    
    36   17   77 1    
    37   18   19 1    
    38   18   27 1    
    39   18   78 1    
    40   19   20 am   BACKBONE|DICT|INTERRES
    41   19   79 1    
    42   20   21 2    
    43   20   22 1    
    44   22   23 1    
    45   22   24 1    
    46   22   80 1    
    47   23   81 1    
    48   23   82 1    
    49   23   83 1    
    50   24   25 am   BACKBONE|DICT|INTERRES
    51   24   84 1    
    52   25   26 2    
    53   27   28 2    
    54   27   29 am   BACKBONE|DICT|INTERRES
    55   29   30 1    
    56   29   85 1    
    57   30   31 1    
    58   30   32 1    
    59   30   86 1    
    60   31   87 1    
    61   31   88 1    
    62   31   89 1    
    63   32   33 2    
    64   32   34 am   BACKBONE|DICT|INTERRES
    65   34   35 1    
    66   34   90 1    
    67   35   36 1    
    68   35   37 1    
    69   35   91 1    
    70   36   92 1    
    71   36   93 1    
    72   36   94 1    
    73   37   38 2    
    74   37   39 am   BACKBONE|DICT|INTERRES
    75   39   40 1    
    76   39   95 1    
    77   40   41 1    
    78   40   42 1    
    79   40   96 1    
    80   41   97 1    
    81   41   98 1    
    82   41   99 1    
    83   42   43 2    
    84   42   44 am   BACKBONE|DICT|INTERRES
    85   44   45 1    
    86   44  100 1    
    87   45   46 1    
    88   45   47 1    
    89   45  101 1    
    90   46  102 1    
    91   46  103 1    
    92   46  104 1    
    93   47   48 2    
    94   47   49 am   BACKBONE|DICT|INTERRES
    95   49   50 1    
    96   49  105 1    
    97   50   51 1    
    98   50   52 1    
    99   50  106 1    
   100   51  107 1    
   101   51  108 1    
   102   51  109 1    
   103   52   53 2    
   104   52   54 am   BACKBONE|DICT|INTERRES
   105   54   55 1    
   106   54  110 1    
   107   55   56 1    
   108   55   59 1    
   109   55  111 1    
   110   56   57 am   BACKBONE|DICT|INTERRES
   111   56   58 2    
   112   57  112 1    
   113   57  113 1    
   114   59   60 1    
   115   59  114 1    
   116   59  115 1    
   117   60   61 1    
   118   61  116 1    
   119   61  117 1    
@<TRIPOS>SUBSTRUCTURE
     1 UNK         1 GROUP             0       ****    0 ROOT    
