@<TRIPOS>MOLECULE
3R8
117   119    1
SMALL
USER_CHARGES


@<TRIPOS>ATOM
      1 CA         19.6542  -25.4508  -39.2950 C.3       0 UNK        -0.2013 
      2 C          18.9384  -25.1014  -40.5913 C.2       0 UNK         0.4866 
      3 O          18.3572  -24.0207  -40.6982 O.2       0 UNK        -0.5176 
      4 N          18.9766  -26.0055  -41.5757 N.am      1 UNK        -0.4884 
      5 CA         18.4517  -25.7938  -42.9284 C.3       1 UNK         0.0853 
      6 C6         18.2516  -27.1442  -43.6616 C.3       10 UNK        -0.0849 
      7 S7         16.7114  -27.9967  -43.1816 S.3       10 UNK        -0.2776 
      8 C8         17.3008  -29.6310  -42.6098 C.3       10 UNK         0.0316 
      9 C9         18.2981  -30.3376  -43.5313 C.ar      10 UNK        -0.0863 
     10 C10        19.2332  -31.2023  -42.9583 C.ar      10 UNK        -0.1009 
     11 C11        20.2238  -31.8057  -43.7327 C.ar      10 UNK        -0.0712 
     12 C12        20.2762  -31.5478  -45.1049 C.ar      10 UNK        -0.0894 
     13 C13        19.3355  -30.7024  -45.7021 C.ar      10 UNK        -0.0745 
     14 C14        18.3314  -30.1266  -44.9166 C.ar      10 UNK        -0.0972 
     15 C15        19.4293  -30.3809  -47.1890 C.3       10 UNK         0.0209 
     16 S16        19.7716  -28.6146  -47.5068 S.3       10 UNK        -0.2568 
     17 C17        21.2826  -28.3392  -46.5186 C.3       10 UNK        -0.0983 
     18 CA         21.8460  -26.8941  -46.6243 C.3       3 UNK         0.0876 
     19 N          20.8117  -25.9034  -46.3167 N.am      3 UNK        -0.4424 
     20 C          20.8365  -24.5836  -46.5455 C.2       2 UNK         0.4918 
     21 O          21.7394  -24.0161  -47.1615 O.2       2 UNK        -0.4875 
     22 CA         19.6789  -23.7474  -45.9566 C.3       2 UNK         0.0481 
     23 CB         18.7308  -23.2871  -47.0750 C.3       2 UNK        -0.1831 
     24 N          18.9007  -24.4427  -44.9205 N.am      2 UNK        -0.4498 
     25 C          19.3919  -24.8898  -43.7538 C.2       1 UNK         0.5027 
     26 O          20.5524  -24.6864  -43.3906 O.2       1 UNK        -0.4969 
     27 C          23.0889  -26.7043  -45.7176 C.2       3 UNK         0.5005 
     28 O          23.4313  -27.6018  -44.9475 O.2       3 UNK        -0.5279 
     29 N          23.7247  -25.5256  -45.7913 N.am      4 UNK        -0.4463 
     30 CA         24.9361  -25.1163  -45.0659 C.3       4 UNK         0.0283 
     31 CB         26.1641  -25.8749  -45.6133 C.3       4 UNK        -0.1875 
     32 C          24.8172  -25.2137  -43.5285 C.2       4 UNK         0.4949 
     33 O          25.7895  -25.5746  -42.8638 O.2       4 UNK        -0.5039 
     34 N          23.6273  -24.8944  -42.9949 N.am      5 UNK        -0.4663 
     35 CA         23.2511  -24.9299  -41.5733 C.3       5 UNK         0.0242 
     36 CB         24.1150  -23.9605  -40.7367 C.3       5 UNK        -0.1982 
     37 C          23.1897  -26.3469  -40.9671 C.2       5 UNK         0.5017 
     38 O          23.1987  -26.4722  -39.7408 O.2       5 UNK        -0.5012 
     39 N          23.1106  -27.3876  -41.8103 N.am      6 UNK        -0.4439 
     40 CA         22.9385  -28.7789  -41.3872 C.3       6 UNK         0.0297 
     41 CB         23.2277  -29.7091  -42.5744 C.3       6 UNK        -0.2006 
     42 C          21.5280  -29.0345  -40.8276 C.2       6 UNK         0.4892 
     43 O          20.5774  -28.3454  -41.2076 O.2       6 UNK        -0.5089 
     44 N          21.4217  -30.0340  -39.9456 N.am      7 UNK        -0.4243 
     45 CA         20.1756  -30.4313  -39.2942 C.3       7 UNK         0.0196 
     46 CB         19.9232  -29.5789  -38.0357 C.3       7 UNK        -0.2007 
     47 C          20.1972  -31.9296  -38.9806 C.2       7 UNK         0.5020 
     48 O          19.3935  -32.6817  -39.5299 O.2       7 UNK        -0.5147 
     49 N          21.1266  -32.3468  -38.1121 N.am      8 UNK        -0.4734 
     50 CA         21.2065  -33.6979  -37.5446 C.3       8 UNK         0.0238 
     51 CB         21.8952  -33.6087  -36.1684 C.3       8 UNK        -0.1912 
     52 C          21.8693  -34.7421  -38.4696 C.2       8 UNK         0.5038 
     53 O          22.6802  -35.5402  -37.9949 O.2       8 UNK        -0.5046 
     54 N          21.5160  -34.7383  -39.7616 N.am      9 UNK        -0.4200 
     55 CA         21.9281  -35.7660  -40.7352 C.3       9 UNK         0.0839 
     56 C          21.0394  -37.0450  -40.7344 C.2       9 UNK         0.5513 
     57 N          19.9290  -37.0869  -40.0069 N.am      9 UNK        -0.7519 
     58 O          21.3762  -38.0268  -41.3916 O.2       9 UNK        -0.4960 
     59 C59        22.1370  -35.1882  -42.1595 C.3       10 UNK        -0.0876 
     60 S60        20.6575  -34.4004  -42.8856 S.3       10 UNK        -0.2414 
     61 C61        21.2589  -32.6982  -43.0704 C.3       10 UNK         0.0169 
     62 H62        20.3343  -24.6475  -39.0129 H         1 UNK         0.0903 
     63 H63        20.2399  -26.3648  -39.3882 H         1 UNK         0.0903 
     64 H64        18.9323  -25.5878  -38.4905 H         1 UNK         0.0903 
     65 H65        19.5038  -26.8683  -41.4413 H         1 UNK         0.3096 
     66 H66        17.4918  -25.2773  -42.8540 H         1 UNK         0.1121 
     67 H67        19.1196  -27.7862  -43.4999 H         1 UNK         0.0849 
     68 H68        18.1811  -27.0182  -44.7434 H         1 UNK         0.0849 
     69 H69        17.7523  -29.4848  -41.6275 H         1 UNK         0.0865 
     70 H70        16.4393  -30.2827  -42.4598 H         1 UNK         0.0865 
     71 H71        19.2055  -31.3981  -41.8974 H         1 UNK         0.1346 
     72 H72        21.0574  -31.9957  -45.7037 H         1 UNK         0.1412 
     73 H73        17.6105  -29.4710  -45.3845 H         1 UNK         0.1426 
     74 H74        20.2061  -30.9797  -47.6671 H         1 UNK         0.0716 
     75 H75        18.4906  -30.6524  -47.6737 H         1 UNK         0.0716 
     76 H76        22.0344  -29.0649  -46.8348 H         1 UNK         0.0695 
     77 H77        21.0476  -28.5729  -45.4780 H         1 UNK         0.0695 
     78 H78        22.1721  -26.7332  -47.6540 H         1 UNK         0.0983 
     79 H79        20.0151  -26.2686  -45.8209 H         1 UNK         0.3095 
     80 H80        20.1224  -22.8615  -45.4977 H         1 UNK         0.0454 
     81 H81        17.9556  -22.6231  -46.6921 H         1 UNK         0.0851 
     82 H82        18.2418  -24.1307  -47.5638 H         1 UNK         0.0851 
     83 H83        19.2730  -22.7357  -47.8447 H         1 UNK         0.0851 
     84 H84        17.9368  -24.6429  -45.1493 H         1 UNK         0.2976 
     85 H85        23.3127  -24.8248  -46.4030 H         1 UNK         0.3116 
     86 H86        25.0786  -24.0577  -45.2877 H         1 UNK         0.0646 
     87 H87        26.2487  -25.7675  -46.6946 H         1 UNK         0.0847 
     88 H88        27.0887  -25.4922  -45.1794 H         1 UNK         0.0847 
     89 H89        26.1140  -26.9401  -45.3845 H         1 UNK         0.0847 
     90 H90        22.8707  -24.6499  -43.6227 H         1 UNK         0.3040 
     91 H91        22.2288  -24.5560  -41.5202 H         1 UNK         0.1015 
     92 H92        25.1431  -24.3100  -40.6396 H         1 UNK         0.0786 
     93 H93        23.7154  -23.8533  -39.7275 H         1 UNK         0.0786 
     94 H94        24.1376  -22.9650  -41.1800 H         1 UNK         0.0786 
     95 H95        23.1129  -27.2135  -42.8089 H         1 UNK         0.3172 
     96 H96        23.6705  -28.9830  -40.6028 H         1 UNK         0.0595 
     97 H97        24.1858  -29.4760  -43.0395 H         1 UNK         0.0839 
     98 H98        22.4564  -29.6352  -43.3430 H         1 UNK         0.0839 
     99 H99        23.2769  -30.7484  -42.2522 H         1 UNK         0.0839 
    100 H100       22.2415  -30.5812  -39.7227 H         1 UNK         0.2998 
    101 H101       19.3406  -30.2610  -39.9748 H         1 UNK         0.0822 
    102 H102       19.0357  -29.9217  -37.5020 H         1 UNK         0.0787 
    103 H103       20.7612  -29.6156  -37.3391 H         1 UNK         0.0787 
    104 H104       19.7565  -28.5342  -38.2970 H         1 UNK         0.0787 
    105 H105       21.7631  -31.6664  -37.7225 H         1 UNK         0.3055 
    106 H106       20.1884  -34.0549  -37.3716 H         1 UNK         0.1106 
    107 H107       21.3793  -32.9100  -35.5095 H         1 UNK         0.0828 
    108 H108       21.8971  -34.5765  -35.6647 H         1 UNK         0.0828 
    109 H109       22.9330  -33.2849  -36.2568 H         1 UNK         0.0828 
    110 H110       20.8075  -34.0797  -40.0659 H         1 UNK         0.2931 
    111 H111       22.9128  -36.1250  -40.4295 H         1 UNK         0.0412 
    112 H112       19.6350  -36.2852  -39.4730 H         1 UNK         0.3472 
    113 H113       19.3679  -37.9245  -40.0107 H         1 UNK         0.3472 
    114 H114       22.9564  -34.4687  -42.1306 H         1 UNK         0.0970 
    115 H115       22.4744  -35.9705  -42.8422 H         1 UNK         0.0970 
    116 H116       21.5078  -32.3059  -42.0836 H         1 UNK         0.0612 
    117 H117       22.1820  -32.6980  -43.6523 H         1 UNK         0.0612 
@<TRIPOS>BOND
     1    1    2 1    
     2    1   62 1    
     3    1   63 1    
     4    1   64 1    
     5    2    3 2    
     6    2    4 am   BACKBONE|DICT|INTERRES
     7    4    5 1    
     8    4   65 1    
     9    5    6 1    
    10    5   25 1    
    11    5   66 1    
    12    6    7 1    
    13    6   67 1    
    14    6   68 1    
    15    7    8 1    
    16    8    9 1    
    17    8   69 1    
    18    8   70 1    
    19    9   10 ar   
    20    9   14 ar   
    21   10   11 ar   
    22   10   71 1    
    23   11   12 ar   
    24   11   61 1    
    25   12   13 ar   
    26   12   72 1    
    27   13   14 ar   
    28   13   15 1    
    29   14   73 1    
    30   15   16 1    
    31   15   74 1    
    32   15   75 1    
    33   16   17 1    
    34   17   18 1    
    35   17   76 1    
    36   17   77 1    
    37   18   19 1    
    38   18   27 1    
    39   18   78 1    
    40   19   20 am   BACKBONE|DICT|INTERRES
    41   19   79 1    
    42   20   21 2    
    43   20   22 1    
    44   22   23 1    
    45   22   24 1    
    46   22   80 1    
    47   23   81 1    
    48   23   82 1    
    49   23   83 1    
    50   24   25 am   BACKBONE|DICT|INTERRES
    51   24   84 1    
    52   25   26 2    
    53   27   28 2    
    54   27   29 am   BACKBONE|DICT|INTERRES
    55   29   30 1    
    56   29   85 1    
    57   30   31 1    
    58   30   32 1    
    59   30   86 1    
    60   31   87 1    
    61   31   88 1    
    62   31   89 1    
    63   32   33 2    
    64   32   34 am   BACKBONE|DICT|INTERRES
    65   34   35 1    
    66   34   90 1    
    67   35   36 1    
    68   35   37 1    
    69   35   91 1    
    70   36   92 1    
    71   36   93 1    
    72   36   94 1    
    73   37   38 2    
    74   37   39 am   BACKBONE|DICT|INTERRES
    75   39   40 1    
    76   39   95 1    
    77   40   41 1    
    78   40   42 1    
    79   40   96 1    
    80   41   97 1    
    81   41   98 1    
    82   41   99 1    
    83   42   43 2    
    84   42   44 am   BACKBONE|DICT|INTERRES
    85   44   45 1    
    86   44  100 1    
    87   45   46 1    
    88   45   47 1    
    89   45  101 1    
    90   46  102 1    
    91   46  103 1    
    92   46  104 1    
    93   47   48 2    
    94   47   49 am   BACKBONE|DICT|INTERRES
    95   49   50 1    
    96   49  105 1    
    97   50   51 1    
    98   50   52 1    
    99   50  106 1    
   100   51  107 1    
   101   51  108 1    
   102   51  109 1    
   103   52   53 2    
   104   52   54 am   BACKBONE|DICT|INTERRES
   105   54   55 1    
   106   54  110 1    
   107   55   56 1    
   108   55   59 1    
   109   55  111 1    
   110   56   57 am   BACKBONE|DICT|INTERRES
   111   56   58 2    
   112   57  112 1    
   113   57  113 1    
   114   59   60 1    
   115   59  114 1    
   116   59  115 1    
   117   60   61 1    
   118   61  116 1    
   119   61  117 1    
@<TRIPOS>SUBSTRUCTURE
     1 UNK         1 GROUP             0       ****    0 ROOT    
