@<TRIPOS>MOLECULE
3R8
117   119    1
SMALL
USER_CHARGES


@<TRIPOS>ATOM
      1 CA         13.4394  -23.6192  -44.3519 C.3       0 UNK        -0.2013 
      2 C          14.7284  -24.4253  -44.3014 C.2       0 UNK         0.4866 
      3 O          15.4699  -24.3260  -43.3228 O.2       0 UNK        -0.5176 
      4 N          15.0007  -25.2120  -45.3527 N.am      1 UNK        -0.4884 
      5 CA         16.1611  -26.0969  -45.5552 C.3       1 UNK         0.0853 
      6 C6         16.3331  -27.1860  -44.4632 C.3       10 UNK        -0.0849 
      7 S7         14.9268  -28.3509  -44.3970 S.3       10 UNK        -0.2776 
      8 C8         15.4933  -29.7227  -45.4599 C.3       10 UNK         0.0316 
      9 C9         16.7672  -30.3693  -44.9342 C.ar      10 UNK        -0.0863 
     10 C10        16.7274  -31.2053  -43.8142 C.ar      10 UNK        -0.1009 
     11 C11        17.9039  -31.7619  -43.3031 C.ar      10 UNK        -0.0712 
     12 C12        19.1249  -31.4729  -43.9234 C.ar      10 UNK        -0.0894 
     13 C13        19.1795  -30.6347  -45.0401 C.ar      10 UNK        -0.0745 
     14 C14        17.9921  -30.1073  -45.5547 C.ar      10 UNK        -0.0972 
     15 C15        20.5162  -30.3135  -45.6990 C.3       10 UNK         0.0209 
     16 S16        20.7930  -28.5215  -45.9023 S.3       10 UNK        -0.2568 
     17 C17        21.2371  -27.9990  -44.2136 C.3       10 UNK        -0.0983 
     18 CA         21.5736  -26.4854  -44.1783 C.3       3 UNK         0.0876 
     19 N          20.3797  -25.6541  -44.3530 N.am      3 UNK        -0.4424 
     20 C          20.3935  -24.3833  -44.7755 C.2       2 UNK         0.4918 
     21 O          21.4204  -23.8024  -45.1324 O.2       2 UNK        -0.4875 
     22 CA         19.0498  -23.6204  -44.7808 C.3       2 UNK         0.0481 
     23 CB         18.9867  -22.5476  -45.8887 C.3       2 UNK        -0.1831 
     24 N          17.8560  -24.4764  -44.8183 N.am      2 UNK        -0.4498 
     25 C          17.4786  -25.3266  -45.7839 C.2       1 UNK         0.5027 
     26 O          18.1163  -25.5193  -46.8193 O.2       1 UNK        -0.4969 
     27 C          22.2879  -26.0987  -42.8687 C.2       3 UNK         0.5005 
     28 O          21.6231  -25.8553  -41.8574 O.2       3 UNK        -0.5279 
     29 N          23.6274  -26.0645  -42.9095 N.am      4 UNK        -0.4463 
     30 CA         24.4972  -25.8634  -41.7460 C.3       4 UNK         0.0283 
     31 CB         25.9284  -25.5896  -42.2365 C.3       4 UNK        -0.1875 
     32 C          24.4787  -27.0921  -40.8238 C.2       4 UNK         0.4949 
     33 O          24.1599  -28.1862  -41.2867 O.2       4 UNK        -0.5039 
     34 N          24.8616  -26.9102  -39.5529 N.am      5 UNK        -0.4663 
     35 CA         24.7954  -27.9210  -38.4841 C.3       5 UNK         0.0242 
     36 CB         25.3817  -27.3278  -37.1928 C.3       5 UNK        -0.1982 
     37 C          25.4584  -29.2783  -38.7961 C.2       5 UNK         0.5017 
     38 O          24.9775  -30.3049  -38.3166 O.2       5 UNK        -0.5012 
     39 N          26.5260  -29.2630  -39.6056 N.am      6 UNK        -0.4439 
     40 CA         27.2251  -30.4586  -40.0850 C.3       6 UNK         0.0297 
     41 CB         28.6123  -30.0516  -40.6082 C.3       6 UNK        -0.2006 
     42 C          26.4542  -31.2371  -41.1703 C.2       6 UNK         0.4892 
     43 O          26.6825  -32.4386  -41.3144 O.2       6 UNK        -0.5089 
     44 N          25.5809  -30.5507  -41.9194 N.am      7 UNK        -0.4243 
     45 CA         24.7779  -31.1104  -43.0094 C.3       7 UNK         0.0196 
     46 CB         24.8180  -30.1398  -44.2019 C.3       7 UNK        -0.2007 
     47 C          23.3221  -31.3684  -42.5909 C.2       7 UNK         0.5020 
     48 O          22.6619  -32.1994  -43.2138 O.2       7 UNK        -0.5147 
     49 N          22.8382  -30.6596  -41.5615 N.am      8 UNK        -0.4734 
     50 CA         21.4684  -30.6641  -41.0358 C.3       8 UNK         0.0238 
     51 CB         21.2824  -29.4261  -40.1389 C.3       8 UNK        -0.1912 
     52 C          21.0456  -31.9716  -40.3284 C.2       8 UNK         0.5038 
     53 O          20.4990  -31.9216  -39.2252 O.2       8 UNK        -0.5046 
     54 N          21.2702  -33.1129  -40.9896 N.am      9 UNK        -0.4200 
     55 CA         20.8339  -34.4672  -40.6047 C.3       9 UNK         0.0839 
     56 C          21.4596  -35.0154  -39.2854 C.2       9 UNK         0.5513 
     57 N          22.5567  -34.4542  -38.7917 N.am      9 UNK        -0.7519 
     58 O          20.9672  -35.9865  -38.7163 O.2       9 UNK        -0.4960 
     59 C59        19.2859  -34.6376  -40.6614 C.3       10 UNK        -0.0876 
     60 S60        18.6029  -34.2705  -42.3174 S.3       10 UNK        -0.2414 
     61 C61        17.8627  -32.6269  -42.0499 C.3       10 UNK         0.0169 
     62 H62        13.6609  -22.5539  -44.2933 H         1 UNK         0.0903 
     63 H63        12.8792  -23.7995  -45.2692 H         1 UNK         0.0903 
     64 H64        12.8012  -23.8815  -43.5084 H         1 UNK         0.0903 
     65 H65        14.3449  -25.2144  -46.1223 H         1 UNK         0.3096 
     66 H66        15.9645  -26.6173  -46.4945 H         1 UNK         0.1121 
     67 H67        16.4361  -26.7344  -43.4759 H         1 UNK         0.0849 
     68 H68        17.2597  -27.7379  -44.6143 H         1 UNK         0.0849 
     69 H69        14.7044  -30.4740  -45.5188 H         1 UNK         0.0865 
     70 H70        15.6364  -29.3540  -46.4769 H         1 UNK         0.0865 
     71 H71        15.7806  -31.4017  -43.3294 H         1 UNK         0.1346 
     72 H72        20.0350  -31.9080  -43.5361 H         1 UNK         0.1412 
     73 H73        18.0292  -29.4615  -46.4218 H         1 UNK         0.1426 
     74 H74        20.5374  -30.7829  -46.6832 H         1 UNK         0.0716 
     75 H75        21.3471  -30.7415  -45.1366 H         1 UNK         0.0716 
     76 H76        22.0918  -28.5975  -43.8935 H         1 UNK         0.0695 
     77 H77        20.4202  -28.2388  -43.5301 H         1 UNK         0.0695 
     78 H78        22.2577  -26.2717  -45.0034 H         1 UNK         0.0983 
     79 H79        19.5074  -26.0490  -44.0391 H         1 UNK         0.3095 
     80 H80        19.0049  -23.0997  -43.8233 H         1 UNK         0.0454 
     81 H81        18.0417  -22.0054  -45.8632 H         1 UNK         0.0851 
     82 H82        19.0972  -22.9841  -46.8817 H         1 UNK         0.0851 
     83 H83        19.7822  -21.8111  -45.7688 H         1 UNK         0.0851 
     84 H84        17.2098  -24.3750  -44.0375 H         1 UNK         0.2976 
     85 H85        24.0915  -26.3009  -43.7743 H         1 UNK         0.3116 
     86 H86        24.1375  -24.9977  -41.1860 H         1 UNK         0.0646 
     87 H87        26.3360  -26.4367  -42.7903 H         1 UNK         0.0847 
     88 H88        26.6013  -25.3939  -41.4006 H         1 UNK         0.0847 
     89 H89        25.9647  -24.7153  -42.8868 H         1 UNK         0.0847 
     90 H90        25.1355  -25.9805  -39.2668 H         1 UNK         0.3040 
     91 H91        23.7371  -28.1244  -38.3096 H         1 UNK         0.1015 
     92 H92        26.4301  -27.0527  -37.3150 H         1 UNK         0.0786 
     93 H93        25.3264  -28.0446  -36.3720 H         1 UNK         0.0786 
     94 H94        24.8345  -26.4388  -36.8786 H         1 UNK         0.0786 
     95 H95        26.8491  -28.3695  -39.9477 H         1 UNK         0.3172 
     96 H96        27.3682  -31.1331  -39.2379 H         1 UNK         0.0595 
     97 H97        28.5415  -29.3660  -41.4536 H         1 UNK         0.0839 
     98 H98        29.1738  -30.9247  -40.9443 H         1 UNK         0.0839 
     99 H99        29.2050  -29.5687  -39.8310 H         1 UNK         0.0839 
    100 H100       25.3954  -29.5793  -41.6883 H         1 UNK         0.2998 
    101 H101       25.1968  -32.0650  -43.3350 H         1 UNK         0.0822 
    102 H102       25.8333  -30.0250  -44.5818 H         1 UNK         0.0787 
    103 H103       24.2025  -30.5030  -45.0264 H         1 UNK         0.0787 
    104 H104       24.4506  -29.1499  -43.9300 H         1 UNK         0.0787 
    105 H105       23.4442  -29.9400  -41.1793 H         1 UNK         0.3055 
    106 H106       20.7949  -30.5391  -41.8833 H         1 UNK         0.1106 
    107 H107       20.2540  -29.3461  -39.7840 H         1 UNK         0.0828 
    108 H108       21.9296  -29.4676  -39.2626 H         1 UNK         0.0828 
    109 H109       21.5031  -28.5053  -40.6791 H         1 UNK         0.0828 
    110 H110       21.7501  -33.0383  -41.8837 H         1 UNK         0.2931 
    111 H111       21.2472  -35.1165  -41.3773 H         1 UNK         0.0412 
    112 H112       22.9697  -33.6561  -39.2471 H         1 UNK         0.3472 
    113 H113       22.9620  -34.8206  -37.9447 H         1 UNK         0.3472 
    114 H114       18.7990  -34.0220  -39.9033 H         1 UNK         0.0970 
    115 H115       19.0092  -35.6672  -40.4281 H         1 UNK         0.0970 
    116 H116       18.3846  -32.0969  -41.2547 H         1 UNK         0.0612 
    117 H117       16.8379  -32.7634  -41.7016 H         1 UNK         0.0612 
@<TRIPOS>BOND
     1    1    2 1    
     2    1   62 1    
     3    1   63 1    
     4    1   64 1    
     5    2    3 2    
     6    2    4 am   BACKBONE|DICT|INTERRES
     7    4    5 1    
     8    4   65 1    
     9    5    6 1    
    10    5   25 1    
    11    5   66 1    
    12    6    7 1    
    13    6   67 1    
    14    6   68 1    
    15    7    8 1    
    16    8    9 1    
    17    8   69 1    
    18    8   70 1    
    19    9   10 ar   
    20    9   14 ar   
    21   10   11 ar   
    22   10   71 1    
    23   11   12 ar   
    24   11   61 1    
    25   12   13 ar   
    26   12   72 1    
    27   13   14 ar   
    28   13   15 1    
    29   14   73 1    
    30   15   16 1    
    31   15   74 1    
    32   15   75 1    
    33   16   17 1    
    34   17   18 1    
    35   17   76 1    
    36   17   77 1    
    37   18   19 1    
    38   18   27 1    
    39   18   78 1    
    40   19   20 am   BACKBONE|DICT|INTERRES
    41   19   79 1    
    42   20   21 2    
    43   20   22 1    
    44   22   23 1    
    45   22   24 1    
    46   22   80 1    
    47   23   81 1    
    48   23   82 1    
    49   23   83 1    
    50   24   25 am   BACKBONE|DICT|INTERRES
    51   24   84 1    
    52   25   26 2    
    53   27   28 2    
    54   27   29 am   BACKBONE|DICT|INTERRES
    55   29   30 1    
    56   29   85 1    
    57   30   31 1    
    58   30   32 1    
    59   30   86 1    
    60   31   87 1    
    61   31   88 1    
    62   31   89 1    
    63   32   33 2    
    64   32   34 am   BACKBONE|DICT|INTERRES
    65   34   35 1    
    66   34   90 1    
    67   35   36 1    
    68   35   37 1    
    69   35   91 1    
    70   36   92 1    
    71   36   93 1    
    72   36   94 1    
    73   37   38 2    
    74   37   39 am   BACKBONE|DICT|INTERRES
    75   39   40 1    
    76   39   95 1    
    77   40   41 1    
    78   40   42 1    
    79   40   96 1    
    80   41   97 1    
    81   41   98 1    
    82   41   99 1    
    83   42   43 2    
    84   42   44 am   BACKBONE|DICT|INTERRES
    85   44   45 1    
    86   44  100 1    
    87   45   46 1    
    88   45   47 1    
    89   45  101 1    
    90   46  102 1    
    91   46  103 1    
    92   46  104 1    
    93   47   48 2    
    94   47   49 am   BACKBONE|DICT|INTERRES
    95   49   50 1    
    96   49  105 1    
    97   50   51 1    
    98   50   52 1    
    99   50  106 1    
   100   51  107 1    
   101   51  108 1    
   102   51  109 1    
   103   52   53 2    
   104   52   54 am   BACKBONE|DICT|INTERRES
   105   54   55 1    
   106   54  110 1    
   107   55   56 1    
   108   55   59 1    
   109   55  111 1    
   110   56   57 am   BACKBONE|DICT|INTERRES
   111   56   58 2    
   112   57  112 1    
   113   57  113 1    
   114   59   60 1    
   115   59  114 1    
   116   59  115 1    
   117   60   61 1    
   118   61  116 1    
   119   61  117 1    
@<TRIPOS>SUBSTRUCTURE
     1 UNK         1 GROUP             0       ****    0 ROOT    
