@<TRIPOS>MOLECULE
3R8
117   119    1
SMALL
USER_CHARGES


@<TRIPOS>ATOM
      1 CA         15.6743  -25.4753  -47.5430 C.3       0 UNK        -0.2013 
      2 C          16.7260  -24.6135  -46.8608 C.2       0 UNK         0.4866 
      3 O          16.5863  -23.3913  -46.8220 O.2       0 UNK        -0.5176 
      4 N          17.7751  -25.2414  -46.3127 N.am      1 UNK        -0.4884 
      5 CA         18.8942  -24.5733  -45.6309 C.3       1 UNK         0.0853 
      6 C6         20.2164  -25.3728  -45.8217 C.3       10 UNK        -0.0849 
      7 S7         20.4953  -26.7554  -44.6566 S.3       10 UNK        -0.2776 
      8 C8         19.9506  -28.2168  -45.5920 C.3       10 UNK         0.0316 
      9 C9         19.8992  -29.4059  -44.6479 C.ar      10 UNK        -0.0863 
     10 C10        21.0079  -30.2450  -44.5056 C.ar      10 UNK        -0.1009 
     11 C11        21.0052  -31.2613  -43.5463 C.ar      10 UNK        -0.0712 
     12 C12        19.8954  -31.4177  -42.7109 C.ar      10 UNK        -0.0894 
     13 C13        18.7781  -30.5893  -42.8465 C.ar      10 UNK        -0.0745 
     14 C14        18.7705  -29.6128  -43.8490 C.ar      10 UNK        -0.0972 
     15 C15        17.6007  -30.7483  -41.8888 C.3       10 UNK         0.0209 
     16 S16        16.9685  -29.1661  -41.2283 S.3       10 UNK        -0.2568 
     17 C17        18.4146  -28.4600  -40.3530 C.3       10 UNK        -0.0983 
     18 CA         19.2111  -27.4296  -41.2067 C.3       3 UNK         0.0876 
     19 N          18.3648  -26.4392  -41.8866 N.am      3 UNK        -0.4424 
     20 C          17.6361  -25.4628  -41.3252 C.2       2 UNK         0.4918 
     21 O          17.5420  -25.2885  -40.1097 O.2       2 UNK        -0.4875 
     22 CA         16.8915  -24.5147  -42.2908 C.3       2 UNK         0.0481 
     23 CB         16.8687  -23.0594  -41.7772 C.3       2 UNK        -0.1831 
     24 N          17.3771  -24.5805  -43.6787 N.am      2 UNK        -0.4498 
     25 C          18.5890  -24.2368  -44.1486 C.2       1 UNK         0.5027 
     26 O          19.4750  -23.7455  -43.4465 O.2       1 UNK        -0.4969 
     27 C          20.3873  -26.7679  -40.4512 C.2       3 UNK         0.5005 
     28 O          20.8510  -27.3015  -39.4417 O.2       3 UNK        -0.5279 
     29 N          20.8347  -25.6041  -40.9491 N.am      4 UNK        -0.4463 
     30 CA         21.8904  -24.7839  -40.3561 C.3       4 UNK         0.0283 
     31 CB         21.4051  -23.3260  -40.2973 C.3       4 UNK        -0.1875 
     32 C          23.2104  -24.8671  -41.1368 C.2       4 UNK         0.4949 
     33 O          24.2652  -24.6506  -40.5400 O.2       4 UNK        -0.5039 
     34 N          23.1489  -25.1569  -42.4457 N.am      5 UNK        -0.4663 
     35 CA         24.3245  -25.1969  -43.3247 C.3       5 UNK         0.0242 
     36 CB         23.8809  -25.0139  -44.7844 C.3       5 UNK        -0.1982 
     37 C          25.1607  -26.4793  -43.1779 C.2       5 UNK         0.5017 
     38 O          26.3426  -26.4653  -43.5245 O.2       5 UNK        -0.5012 
     39 N          24.5454  -27.5564  -42.6796 N.am      6 UNK        -0.4439 
     40 CA         25.1584  -28.8591  -42.4492 C.3       6 UNK         0.0297 
     41 CB         25.2453  -29.6419  -43.7730 C.3       6 UNK        -0.2006 
     42 C          24.3341  -29.6106  -41.3978 C.2       6 UNK         0.4892 
     43 O          23.1568  -29.2961  -41.2081 O.2       6 UNK        -0.5089 
     44 N          24.9740  -30.5852  -40.7442 N.am      7 UNK        -0.4243 
     45 CA         24.3809  -31.4612  -39.7331 C.3       7 UNK         0.0196 
     46 CB         25.3175  -31.4989  -38.5121 C.3       7 UNK        -0.2007 
     47 C          24.1803  -32.8744  -40.3024 C.2       7 UNK         0.5020 
     48 O          24.7190  -33.1924  -41.3650 O.2       7 UNK        -0.5147 
     49 N          23.4235  -33.6981  -39.5642 N.am      8 UNK        -0.4734 
     50 CA         23.0169  -35.0702  -39.8929 C.3       8 UNK         0.0238 
     51 CB         24.2346  -36.0094  -40.0685 C.3       8 UNK        -0.1912 
     52 C          22.0083  -35.0913  -41.0568 C.2       8 UNK         0.5038 
     53 O          20.8987  -34.5878  -40.8751 O.2       8 UNK        -0.5046 
     54 N          22.3869  -35.6788  -42.2009 N.am      9 UNK        -0.4200 
     55 CA         21.5378  -35.9160  -43.3865 C.3       9 UNK         0.0839 
     56 C          20.4172  -36.9803  -43.1684 C.2       9 UNK         0.5513 
     57 N          20.4873  -37.8151  -42.1379 N.am      9 UNK        -0.7519 
     58 O          19.4837  -37.0784  -43.9611 O.2       9 UNK        -0.4960 
     59 C59        20.9968  -34.6134  -44.0495 C.3       10 UNK        -0.0876 
     60 S60        22.3159  -33.4810  -44.6055 S.3       10 UNK        -0.2414 
     61 C61        22.2248  -32.1509  -43.3680 C.3       10 UNK         0.0169 
     62 H62        15.9191  -26.5362  -47.4934 H         1 UNK         0.0903 
     63 H63        14.7037  -25.3288  -47.0697 H         1 UNK         0.0903 
     64 H64        15.5862  -25.1972  -48.5929 H         1 UNK         0.0903 
     65 H65        17.8356  -26.2474  -46.3727 H         1 UNK         0.3096 
     66 H66        19.0446  -23.6061  -46.1169 H         1 UNK         0.1121 
     67 H67        20.3042  -25.7345  -46.8476 H         1 UNK         0.0849 
     68 H68        21.0540  -24.6860  -45.6945 H         1 UNK         0.0849 
     69 H69        20.6378  -28.4049  -46.4185 H         1 UNK         0.0865 
     70 H70        18.9676  -28.0432  -46.0306 H         1 UNK         0.0865 
     71 H71        21.8848  -30.0897  -45.1190 H         1 UNK         0.1346 
     72 H72        19.9096  -32.1794  -41.9426 H         1 UNK         0.1412 
     73 H73        17.9136  -28.9619  -43.9546 H         1 UNK         0.1426 
     74 H74        17.8707  -31.3883  -41.0472 H         1 UNK         0.0716 
     75 H75        16.7912  -31.2557  -42.4147 H         1 UNK         0.0716 
     76 H76        19.0669  -29.2745  -40.0327 H         1 UNK         0.0695 
     77 H77        18.0485  -27.9871  -39.4402 H         1 UNK         0.0695 
     78 H78        19.7070  -27.9897  -41.9971 H         1 UNK         0.0983 
     79 H79        18.3707  -26.4918  -42.8942 H         1 UNK         0.3095 
     80 H80        15.8600  -24.8681  -42.3195 H         1 UNK         0.0454 
     81 H81        16.3465  -22.4011  -42.4711 H         1 UNK         0.0851 
     82 H82        17.8739  -22.6637  -41.6296 H         1 UNK         0.0851 
     83 H83        16.3526  -22.9911  -40.8189 H         1 UNK         0.0851 
     84 H84        16.7315  -24.9793  -44.3461 H         1 UNK         0.2976 
     85 H85        20.3678  -25.2209  -41.7616 H         1 UNK         0.3116 
     86 H86        22.0931  -25.1111  -39.3341 H         1 UNK         0.0646 
     87 H87        22.1568  -22.6813  -39.8396 H         1 UNK         0.0847 
     88 H88        20.4958  -23.2356  -39.7026 H         1 UNK         0.0847 
     89 H89        21.1947  -22.9280  -41.2911 H         1 UNK         0.0847 
     90 H90        22.2510  -25.3314  -42.8737 H         1 UNK         0.3040 
     91 H91        24.9753  -24.3580  -43.0665 H         1 UNK         0.1015 
     92 H92        23.3097  -24.0947  -44.9146 H         1 UNK         0.0786 
     93 H93        23.2711  -25.8489  -45.1293 H         1 UNK         0.0786 
     94 H94        24.7451  -24.9522  -45.4472 H         1 UNK         0.0786 
     95 H95        23.5844  -27.4861  -42.3673 H         1 UNK         0.3172 
     96 H96        26.1632  -28.7133  -42.0466 H         1 UNK         0.0595 
     97 H97        24.2775  -29.6934  -44.2719 H         1 UNK         0.0839 
     98 H98        25.5890  -30.6644  -43.6105 H         1 UNK         0.0839 
     99 H99        25.9467  -29.1730  -44.4633 H         1 UNK         0.0839 
    100 H100       25.9138  -30.8233  -41.0288 H         1 UNK         0.2998 
    101 H101       23.4074  -31.0762  -39.4211 H         1 UNK         0.0822 
    102 H102       26.2930  -31.9175  -38.7637 H         1 UNK         0.0787 
    103 H103       25.4776  -30.4995  -38.1068 H         1 UNK         0.0787 
    104 H104       24.8994  -32.1069  -37.7090 H         1 UNK         0.0787 
    105 H105       23.0144  -33.3266  -38.7174 H         1 UNK         0.3055 
    106 H106       22.4630  -35.4342  -39.0256 H         1 UNK         0.1106 
    107 H107       23.9150  -37.0424  -40.2120 H         1 UNK         0.0828 
    108 H108       24.8609  -35.7383  -40.9184 H         1 UNK         0.0828 
    109 H109       24.8668  -35.9951  -39.1807 H         1 UNK         0.0828 
    110 H110       23.3263  -36.0431  -42.2601 H         1 UNK         0.2931 
    111 H111       22.2038  -36.3815  -44.1139 H         1 UNK         0.0412 
    112 H112       21.2549  -37.7666  -41.4879 H         1 UNK         0.3472 
    113 H113       19.7637  -38.5062  -42.0138 H         1 UNK         0.3472 
    114 H114       20.4119  -34.8573  -44.9379 H         1 UNK         0.0970 
    115 H115       20.3061  -34.0990  -43.3827 H         1 UNK         0.0970 
    116 H116       22.2282  -32.5816  -42.3695 H         1 UNK         0.0612 
    117 H117       23.1299  -31.5506  -43.4369 H         1 UNK         0.0612 
@<TRIPOS>BOND
     1    1    2 1    
     2    1   62 1    
     3    1   63 1    
     4    1   64 1    
     5    2    3 2    
     6    2    4 am   BACKBONE|DICT|INTERRES
     7    4    5 1    
     8    4   65 1    
     9    5    6 1    
    10    5   25 1    
    11    5   66 1    
    12    6    7 1    
    13    6   67 1    
    14    6   68 1    
    15    7    8 1    
    16    8    9 1    
    17    8   69 1    
    18    8   70 1    
    19    9   10 ar   
    20    9   14 ar   
    21   10   11 ar   
    22   10   71 1    
    23   11   12 ar   
    24   11   61 1    
    25   12   13 ar   
    26   12   72 1    
    27   13   14 ar   
    28   13   15 1    
    29   14   73 1    
    30   15   16 1    
    31   15   74 1    
    32   15   75 1    
    33   16   17 1    
    34   17   18 1    
    35   17   76 1    
    36   17   77 1    
    37   18   19 1    
    38   18   27 1    
    39   18   78 1    
    40   19   20 am   BACKBONE|DICT|INTERRES
    41   19   79 1    
    42   20   21 2    
    43   20   22 1    
    44   22   23 1    
    45   22   24 1    
    46   22   80 1    
    47   23   81 1    
    48   23   82 1    
    49   23   83 1    
    50   24   25 am   BACKBONE|DICT|INTERRES
    51   24   84 1    
    52   25   26 2    
    53   27   28 2    
    54   27   29 am   BACKBONE|DICT|INTERRES
    55   29   30 1    
    56   29   85 1    
    57   30   31 1    
    58   30   32 1    
    59   30   86 1    
    60   31   87 1    
    61   31   88 1    
    62   31   89 1    
    63   32   33 2    
    64   32   34 am   BACKBONE|DICT|INTERRES
    65   34   35 1    
    66   34   90 1    
    67   35   36 1    
    68   35   37 1    
    69   35   91 1    
    70   36   92 1    
    71   36   93 1    
    72   36   94 1    
    73   37   38 2    
    74   37   39 am   BACKBONE|DICT|INTERRES
    75   39   40 1    
    76   39   95 1    
    77   40   41 1    
    78   40   42 1    
    79   40   96 1    
    80   41   97 1    
    81   41   98 1    
    82   41   99 1    
    83   42   43 2    
    84   42   44 am   BACKBONE|DICT|INTERRES
    85   44   45 1    
    86   44  100 1    
    87   45   46 1    
    88   45   47 1    
    89   45  101 1    
    90   46  102 1    
    91   46  103 1    
    92   46  104 1    
    93   47   48 2    
    94   47   49 am   BACKBONE|DICT|INTERRES
    95   49   50 1    
    96   49  105 1    
    97   50   51 1    
    98   50   52 1    
    99   50  106 1    
   100   51  107 1    
   101   51  108 1    
   102   51  109 1    
   103   52   53 2    
   104   52   54 am   BACKBONE|DICT|INTERRES
   105   54   55 1    
   106   54  110 1    
   107   55   56 1    
   108   55   59 1    
   109   55  111 1    
   110   56   57 am   BACKBONE|DICT|INTERRES
   111   56   58 2    
   112   57  112 1    
   113   57  113 1    
   114   59   60 1    
   115   59  114 1    
   116   59  115 1    
   117   60   61 1    
   118   61  116 1    
   119   61  117 1    
@<TRIPOS>SUBSTRUCTURE
     1 UNK         1 GROUP             0       ****    0 ROOT    
