@<TRIPOS>MOLECULE
3R8
117   119    1
SMALL
USER_CHARGES


@<TRIPOS>ATOM
      1 CA         14.4962  -24.1923  -48.7876 C.3       0 UNK        -0.2013 
      2 C          14.9200  -24.7373  -47.4316 C.2       0 UNK         0.4866 
      3 O          14.3522  -24.3410  -46.4130 O.2       0 UNK        -0.5176 
      4 N          15.9092  -25.6416  -47.4188 N.am      1 UNK        -0.4884 
      5 CA         16.4956  -26.2807  -46.2310 C.3       1 UNK         0.0853 
      6 C6         15.5072  -27.2246  -45.4837 C.3       10 UNK        -0.0849 
      7 S7         14.9646  -28.6000  -46.5562 S.3       10 UNK        -0.2776 
      8 C8         15.2351  -30.0613  -45.4895 C.3       10 UNK         0.0316 
      9 C9         16.6765  -30.3000  -45.0309 C.ar      10 UNK        -0.0863 
     10 C10        16.8912  -31.0494  -43.8693 C.ar      10 UNK        -0.1009 
     11 C11        18.1862  -31.3164  -43.4163 C.ar      10 UNK        -0.0712 
     12 C12        19.2796  -30.8042  -44.1190 C.ar      10 UNK        -0.0894 
     13 C13        19.0853  -30.0600  -45.2859 C.ar      10 UNK        -0.0745 
     14 C14        17.7853  -29.8269  -45.7455 C.ar      10 UNK        -0.0972 
     15 C15        20.2777  -29.5316  -46.0703 C.3       10 UNK         0.0209 
     16 S16        20.5274  -27.7474  -45.8128 S.3       10 UNK        -0.2568 
     17 C17        21.2669  -27.7210  -44.1453 C.3       10 UNK        -0.0983 
     18 CA         21.1380  -26.3329  -43.4700 C.3       3 UNK         0.0876 
     19 N          19.7355  -25.9427  -43.3201 N.am      3 UNK        -0.4424 
     20 C          19.2912  -24.7116  -43.0395 C.2       2 UNK         0.4918 
     21 O          20.0273  -23.7386  -42.8632 O.2       2 UNK        -0.4875 
     22 CA         17.7564  -24.5531  -42.9774 C.3       2 UNK         0.0481 
     23 CB         17.2992  -23.0791  -43.0115 C.3       2 UNK        -0.1831 
     24 N          17.0649  -25.3456  -44.0065 N.am      2 UNK        -0.4498 
     25 C          17.2111  -25.2392  -45.3387 C.2       1 UNK         0.5027 
     26 O          17.9161  -24.3836  -45.8803 O.2       1 UNK        -0.4969 
     27 C          21.8722  -26.3259  -42.1144 C.2       3 UNK         0.5005 
     28 O          21.2412  -26.4782  -41.0637 O.2       3 UNK        -0.5279 
     29 N          23.2029  -26.1807  -42.1685 N.am      4 UNK        -0.4463 
     30 CA         24.0937  -26.3175  -41.0159 C.3       4 UNK         0.0283 
     31 CB         25.4954  -25.8127  -41.3955 C.3       4 UNK        -0.1875 
     32 C          24.1646  -27.7799  -40.5508 C.2       4 UNK         0.4949 
     33 O          24.1691  -28.6843  -41.3886 O.2       4 UNK        -0.5039 
     34 N          24.2807  -27.9807  -39.2316 N.am      5 UNK        -0.4663 
     35 CA         24.3028  -29.2958  -38.5761 C.3       5 UNK         0.0242 
     36 CB         24.3429  -29.0968  -37.0519 C.3       5 UNK        -0.1982 
     37 C          25.4451  -30.2256  -39.0259 C.2       5 UNK         0.5017 
     38 O          25.3092  -31.4449  -38.9211 O.2       5 UNK        -0.5012 
     39 N          26.5351  -29.6329  -39.5327 N.am      6 UNK        -0.4439 
     40 CA         27.6720  -30.3257  -40.1380 C.3       6 UNK         0.0297 
     41 CB         28.8219  -29.3249  -40.3374 C.3       6 UNK        -0.2006 
     42 C          27.3339  -31.0261  -41.4684 C.2       6 UNK         0.4892 
     43 O          28.0262  -31.9821  -41.8204 O.2       6 UNK        -0.5089 
     44 N          26.3005  -30.5534  -42.1840 N.am      7 UNK        -0.4243 
     45 CA         25.8026  -31.1838  -43.4073 C.3       7 UNK         0.0196 
     46 CB         25.0611  -30.1522  -44.2769 C.3       7 UNK        -0.2007 
     47 C          24.9030  -32.3780  -43.0622 C.2       7 UNK         0.5020 
     48 O          25.1870  -33.4958  -43.4929 O.2       7 UNK        -0.5147 
     49 N          23.8555  -32.1209  -42.2707 N.am      8 UNK        -0.4734 
     50 CA         22.8895  -33.0944  -41.7639 C.3       8 UNK         0.0238 
     51 CB         22.0508  -33.6895  -42.9159 C.3       8 UNK        -0.1912 
     52 C          21.9871  -32.4013  -40.7336 C.2       8 UNK         0.5038 
     53 O          21.9571  -31.1698  -40.6919 O.2       8 UNK        -0.5046 
     54 N          21.2650  -33.2139  -39.9477 N.am      9 UNK        -0.4200 
     55 CA         20.2789  -32.8329  -38.9158 C.3       9 UNK         0.0839 
     56 C          20.7506  -31.8114  -37.8365 C.2       9 UNK         0.5513 
     57 N          22.0330  -31.7790  -37.4981 N.am      9 UNK        -0.7519 
     58 O          19.9500  -31.0809  -37.2580 O.2       9 UNK        -0.4960 
     59 C59        18.8405  -32.5938  -39.4700 C.3       10 UNK        -0.0876 
     60 S60        18.6393  -31.2352  -40.6768 S.3       10 UNK        -0.2414 
     61 C61        18.4032  -32.2004  -42.1984 C.3       10 UNK         0.0169 
     62 H62        14.6379  -23.1124  -48.8185 H         1 UNK         0.0903 
     63 H63        15.0696  -24.6330  -49.6030 H         1 UNK         0.0903 
     64 H64        13.4416  -24.4030  -48.9632 H         1 UNK         0.0903 
     65 H65        16.3424  -25.8998  -48.2945 H         1 UNK         0.3096 
     66 H66        17.3100  -26.9019  -46.6068 H         1 UNK         0.1121 
     67 H67        14.6270  -26.6811  -45.1366 H         1 UNK         0.0849 
     68 H68        15.9722  -27.6538  -44.5954 H         1 UNK         0.0849 
     69 H69        14.5830  -29.9673  -44.6194 H         1 UNK         0.0865 
     70 H70        14.8974  -30.9468  -46.0294 H         1 UNK         0.0865 
     71 H71        16.0456  -31.4435  -43.3217 H         1 UNK         0.1346 
     72 H72        20.2818  -30.9955  -43.7620 H         1 UNK         0.1412 
     73 H73        17.6467  -29.2735  -46.6630 H         1 UNK         0.1426 
     74 H74        20.1171  -29.7130  -47.1340 H         1 UNK         0.0716 
     75 H75        21.1898  -30.0690  -45.8049 H         1 UNK         0.0716 
     76 H76        22.3149  -28.0103  -44.2444 H         1 UNK         0.0695 
     77 H77        20.7963  -28.4857  -43.5251 H         1 UNK         0.0695 
     78 H78        21.6175  -25.5892  -44.1109 H         1 UNK         0.0983 
     79 H79        19.0615  -26.6834  -43.4367 H         1 UNK         0.3095 
     80 H80        17.4491  -24.9679  -42.0164 H         1 UNK         0.0454 
     81 H81        16.2138  -22.9986  -42.9563 H         1 UNK         0.0851 
     82 H82        17.6271  -22.5721  -43.9194 H         1 UNK         0.0851 
     83 H83        17.7077  -22.5243  -42.1661 H         1 UNK         0.0851 
     84 H84        16.4528  -26.0680  -43.6543 H         1 UNK         0.2976 
     85 H85        23.6485  -26.0999  -43.0711 H         1 UNK         0.3116 
     86 H86        23.7046  -25.6998  -40.2034 H         1 UNK         0.0646 
     87 H87        25.9348  -26.4038  -42.2004 H         1 UNK         0.0847 
     88 H88        26.1751  -25.8672  -40.5441 H         1 UNK         0.0847 
     89 H89        25.4693  -24.7719  -41.7187 H         1 UNK         0.0847 
     90 H90        24.2880  -27.1761  -38.6205 H         1 UNK         0.3040 
     91 H91        23.3688  -29.7960  -38.8382 H         1 UNK         0.1015 
     92 H92        25.2259  -28.5368  -36.7415 H         1 UNK         0.0786 
     93 H93        24.3683  -30.0549  -36.5308 H         1 UNK         0.0786 
     94 H94        23.4618  -28.5610  -36.6983 H         1 UNK         0.0786 
     95 H95        26.5454  -28.6240  -39.5623 H         1 UNK         0.3172 
     96 H96        28.0057  -31.0949  -39.4383 H         1 UNK         0.0595 
     97 H97        28.5437  -28.5187  -41.0176 H         1 UNK         0.0839 
     98 H98        29.6987  -29.8180  -40.7597 H         1 UNK         0.0839 
     99 H99        29.1296  -28.8778  -39.3919 H         1 UNK         0.0839 
    100 H100       25.7390  -29.7954  -41.8072 H         1 UNK         0.2998 
    101 H101       26.6516  -31.5547  -43.9861 H         1 UNK         0.0822 
    102 H102       25.7061  -29.3102  -44.5282 H         1 UNK         0.0787 
    103 H103       24.7337  -30.6018  -45.2151 H         1 UNK         0.0787 
    104 H104       24.1738  -29.7562  -43.7829 H         1 UNK         0.0787 
    105 H105       23.6973  -31.1757  -41.9339 H         1 UNK         0.3055 
    106 H106       23.4387  -33.8910  -41.2575 H         1 UNK         0.1106 
    107 H107       21.2711  -34.3533  -42.5410 H         1 UNK         0.0828 
    108 H108       21.5650  -32.9109  -43.5027 H         1 UNK         0.0828 
    109 H109       22.6622  -34.2816  -43.5961 H         1 UNK         0.0828 
    110 H110       21.3917  -34.2094  -40.0577 H         1 UNK         0.2931 
    111 H111       20.1871  -33.7457  -38.3257 H         1 UNK         0.0412 
    112 H112       22.3301  -31.1429  -36.7768 H         1 UNK         0.3472 
    113 H113       22.7044  -32.3713  -37.9609 H         1 UNK         0.3472 
    114 H114       18.4832  -33.5204  -39.9211 H         1 UNK         0.0970 
    115 H115       18.1479  -32.4092  -38.6470 H         1 UNK         0.0970 
    116 H116       17.5516  -32.8705  -42.0695 H         1 UNK         0.0612 
    117 H117       19.2724  -32.8386  -42.3571 H         1 UNK         0.0612 
@<TRIPOS>BOND
     1    1    2 1    
     2    1   62 1    
     3    1   63 1    
     4    1   64 1    
     5    2    3 2    
     6    2    4 am   BACKBONE|DICT|INTERRES
     7    4    5 1    
     8    4   65 1    
     9    5    6 1    
    10    5   25 1    
    11    5   66 1    
    12    6    7 1    
    13    6   67 1    
    14    6   68 1    
    15    7    8 1    
    16    8    9 1    
    17    8   69 1    
    18    8   70 1    
    19    9   10 ar   
    20    9   14 ar   
    21   10   11 ar   
    22   10   71 1    
    23   11   12 ar   
    24   11   61 1    
    25   12   13 ar   
    26   12   72 1    
    27   13   14 ar   
    28   13   15 1    
    29   14   73 1    
    30   15   16 1    
    31   15   74 1    
    32   15   75 1    
    33   16   17 1    
    34   17   18 1    
    35   17   76 1    
    36   17   77 1    
    37   18   19 1    
    38   18   27 1    
    39   18   78 1    
    40   19   20 am   BACKBONE|DICT|INTERRES
    41   19   79 1    
    42   20   21 2    
    43   20   22 1    
    44   22   23 1    
    45   22   24 1    
    46   22   80 1    
    47   23   81 1    
    48   23   82 1    
    49   23   83 1    
    50   24   25 am   BACKBONE|DICT|INTERRES
    51   24   84 1    
    52   25   26 2    
    53   27   28 2    
    54   27   29 am   BACKBONE|DICT|INTERRES
    55   29   30 1    
    56   29   85 1    
    57   30   31 1    
    58   30   32 1    
    59   30   86 1    
    60   31   87 1    
    61   31   88 1    
    62   31   89 1    
    63   32   33 2    
    64   32   34 am   BACKBONE|DICT|INTERRES
    65   34   35 1    
    66   34   90 1    
    67   35   36 1    
    68   35   37 1    
    69   35   91 1    
    70   36   92 1    
    71   36   93 1    
    72   36   94 1    
    73   37   38 2    
    74   37   39 am   BACKBONE|DICT|INTERRES
    75   39   40 1    
    76   39   95 1    
    77   40   41 1    
    78   40   42 1    
    79   40   96 1    
    80   41   97 1    
    81   41   98 1    
    82   41   99 1    
    83   42   43 2    
    84   42   44 am   BACKBONE|DICT|INTERRES
    85   44   45 1    
    86   44  100 1    
    87   45   46 1    
    88   45   47 1    
    89   45  101 1    
    90   46  102 1    
    91   46  103 1    
    92   46  104 1    
    93   47   48 2    
    94   47   49 am   BACKBONE|DICT|INTERRES
    95   49   50 1    
    96   49  105 1    
    97   50   51 1    
    98   50   52 1    
    99   50  106 1    
   100   51  107 1    
   101   51  108 1    
   102   51  109 1    
   103   52   53 2    
   104   52   54 am   BACKBONE|DICT|INTERRES
   105   54   55 1    
   106   54  110 1    
   107   55   56 1    
   108   55   59 1    
   109   55  111 1    
   110   56   57 am   BACKBONE|DICT|INTERRES
   111   56   58 2    
   112   57  112 1    
   113   57  113 1    
   114   59   60 1    
   115   59  114 1    
   116   59  115 1    
   117   60   61 1    
   118   61  116 1    
   119   61  117 1    
@<TRIPOS>SUBSTRUCTURE
     1 UNK         1 GROUP             0       ****    0 ROOT    
