@<TRIPOS>MOLECULE
3R8
117   119    1
SMALL
USER_CHARGES


@<TRIPOS>ATOM
      1 CA         16.7242  -23.1338  -47.3073 C.3       0 UNK        -0.2013 
      2 C          17.3727  -24.0858  -46.3139 C.2       0 UNK         0.4866 
      3 O          16.7253  -24.4911  -45.3479 O.2       0 UNK        -0.5176 
      4 N          18.6487  -24.4313  -46.5383 N.am      1 UNK        -0.4884 
      5 CA         19.5033  -25.3526  -45.7679 C.3       1 UNK         0.0853 
      6 C6         18.9324  -26.7886  -45.6271 C.3       10 UNK        -0.0849 
      7 S7         18.6910  -27.6515  -47.2098 S.3       10 UNK        -0.2776 
      8 C8         17.5292  -28.9618  -46.6925 C.3       10 UNK         0.0316 
      9 C9         18.0321  -29.7524  -45.4875 C.ar      10 UNK        -0.0863 
     10 C10        19.2002  -30.5156  -45.5862 C.ar      10 UNK        -0.1009 
     11 C11        19.6700  -31.2368  -44.4859 C.ar      10 UNK        -0.0712 
     12 C12        18.9518  -31.2076  -43.2888 C.ar      10 UNK        -0.0894 
     13 C13        17.7811  -30.4537  -43.1715 C.ar      10 UNK        -0.0745 
     14 C14        17.3292  -29.7221  -44.2757 C.ar      10 UNK        -0.0972 
     15 C15        16.9856  -30.4713  -41.8686 C.3       10 UNK         0.0209 
     16 S16        18.0037  -30.1157  -40.3933 S.3       10 UNK        -0.2568 
     17 C17        18.1734  -28.3033  -40.4761 C.3       10 UNK        -0.0983 
     18 CA         19.4178  -27.8529  -41.2813 C.3       3 UNK         0.0876 
     19 N          19.2658  -26.5148  -41.8586 N.am      3 UNK        -0.4424 
     20 C          19.1054  -25.3321  -41.2480 C.2       2 UNK         0.4918 
     21 O          19.0855  -25.1953  -40.0242 O.2       2 UNK        -0.4875 
     22 CA         18.9206  -24.0893  -42.1481 C.3       2 UNK         0.0481 
     23 CB         19.9402  -22.9839  -41.8087 C.3       2 UNK        -0.1831 
     24 N          18.9004  -24.3858  -43.5902 N.am      2 UNK        -0.4498 
     25 C          19.8942  -24.8398  -44.3676 C.2       1 UNK         0.5027 
     26 O          21.0570  -24.9646  -43.9875 O.2       1 UNK        -0.4969 
     27 C          20.7445  -28.0394  -40.5167 C.2       3 UNK         0.5005 
     28 O          21.5284  -28.9197  -40.8739 O.2       3 UNK        -0.5279 
     29 N          21.0049  -27.1836  -39.5201 N.am      4 UNK        -0.4463 
     30 CA         22.2348  -27.1628  -38.7249 C.3       4 UNK         0.0283 
     31 CB         22.0714  -26.1931  -37.5443 C.3       4 UNK        -0.1875 
     32 C          23.4718  -26.8001  -39.5614 C.2       4 UNK         0.4949 
     33 O          24.5077  -27.4490  -39.4230 O.2       4 UNK        -0.5039 
     34 N          23.3287  -25.8118  -40.4572 N.am      5 UNK        -0.4663 
     35 CA         24.3743  -25.3994  -41.4029 C.3       5 UNK         0.0242 
     36 CB         24.0120  -24.0348  -42.0084 C.3       5 UNK        -0.1982 
     37 C          24.6301  -26.4379  -42.5116 C.2       5 UNK         0.5017 
     38 O          25.7274  -26.4680  -43.0682 O.2       5 UNK        -0.5012 
     39 N          23.6305  -27.2886  -42.7813 N.am      6 UNK        -0.4439 
     40 CA         23.7158  -28.4478  -43.6722 C.3       6 UNK         0.0297 
     41 CB         22.3420  -28.6699  -44.3267 C.3       6 UNK        -0.2006 
     42 C          24.2098  -29.7193  -42.9483 C.2       6 UNK         0.4892 
     43 O          24.2739  -30.7750  -43.5790 O.2       6 UNK        -0.5089 
     44 N          24.5500  -29.6005  -41.6536 N.am      7 UNK        -0.4243 
     45 CA         25.0705  -30.6367  -40.7559 C.3       7 UNK         0.0196 
     46 CB         26.4555  -31.1287  -41.2290 C.3       7 UNK        -0.2007 
     47 C          24.0820  -31.7883  -40.4928 C.2       7 UNK         0.5020 
     48 O          24.5158  -32.9218  -40.2821 O.2       7 UNK        -0.5147 
     49 N          22.7738  -31.4903  -40.5103 N.am      8 UNK        -0.4734 
     50 CA         21.6194  -32.3640  -40.2359 C.3       8 UNK         0.0238 
     51 CB         21.6487  -32.8753  -38.7827 C.3       8 UNK        -0.1912 
     52 C          21.3900  -33.5280  -41.2232 C.2       8 UNK         0.5038 
     53 O          20.2394  -33.9335  -41.3815 O.2       8 UNK        -0.5046 
     54 N          22.4590  -34.0270  -41.8584 N.am      9 UNK        -0.4200 
     55 CA         22.5242  -35.0527  -42.9168 C.3       9 UNK         0.0839 
     56 C          21.8050  -36.4104  -42.6439 C.2       9 UNK         0.5513 
     57 N          21.5231  -36.7670  -41.3969 N.am      9 UNK        -0.7519 
     58 O          21.5450  -37.1797  -43.5660 O.2       9 UNK        -0.4960 
     59 C59        22.3083  -34.4742  -44.3479 C.3       10 UNK        -0.0876 
     60 S60        20.6398  -33.8183  -44.6940 S.3       10 UNK        -0.2414 
     61 C61        20.9614  -32.0331  -44.5716 C.3       10 UNK         0.0169 
     62 H62        16.4017  -22.2249  -46.8001 H         1 UNK         0.0903 
     63 H63        17.4063  -22.8515  -48.1090 H         1 UNK         0.0903 
     64 H64        15.8488  -23.6021  -47.7566 H         1 UNK         0.0903 
     65 H65        19.1081  -24.0290  -47.3443 H         1 UNK         0.3096 
     66 H66        20.4366  -25.4253  -46.3297 H         1 UNK         0.1121 
     67 H67        17.9834  -26.7770  -45.0882 H         1 UNK         0.0849 
     68 H68        19.6052  -27.4119  -45.0349 H         1 UNK         0.0849 
     69 H69        16.5597  -28.5080  -46.4807 H         1 UNK         0.0865 
     70 H70        17.3695  -29.6449  -47.5279 H         1 UNK         0.0865 
     71 H71        19.7493  -30.5351  -46.5178 H         1 UNK         0.1346 
     72 H72        19.3032  -31.7792  -42.4429 H         1 UNK         0.1412 
     73 H73        16.4213  -29.1396  -44.1960 H         1 UNK         0.1426 
     74 H74        16.1472  -29.7743  -41.9089 H         1 UNK         0.0716 
     75 H75        16.5492  -31.4641  -41.7516 H         1 UNK         0.0716 
     76 H76        18.1938  -27.9029  -39.4609 H         1 UNK         0.0695 
     77 H77        17.2662  -27.9011  -40.9298 H         1 UNK         0.0695 
     78 H78        19.4928  -28.5017  -42.1547 H         1 UNK         0.0983 
     79 H79        19.2945  -26.4863  -42.8651 H         1 UNK         0.3095 
     80 H80        17.9282  -23.6998  -41.9177 H         1 UNK         0.0454 
     81 H81        19.7934  -22.1034  -42.4338 H         1 UNK         0.0851 
     82 H82        20.9679  -23.3197  -41.9384 H         1 UNK         0.0851 
     83 H83        19.8364  -22.6635  -40.7713 H         1 UNK         0.0851 
     84 H84        17.9810  -24.3536  -44.0305 H         1 UNK         0.2976 
     85 H85        20.3180  -26.4538  -39.3447 H         1 UNK         0.3116 
     86 H86        22.3888  -28.1670  -38.3236 H         1 UNK         0.0646 
     87 H87        21.2494  -26.4948  -36.8950 H         1 UNK         0.0847 
     88 H88        22.9737  -26.1689  -36.9316 H         1 UNK         0.0847 
     89 H89        21.8766  -25.1734  -37.8791 H         1 UNK         0.0847 
     90 H90        22.4450  -25.3259  -40.5064 H         1 UNK         0.3040 
     91 H91        25.3072  -25.2857  -40.8456 H         1 UNK         0.1015 
     92 H92        23.1136  -24.0910  -42.6217 H         1 UNK         0.0786 
     93 H93        24.8160  -23.6696  -42.6490 H         1 UNK         0.0786 
     94 H94        23.8490  -23.2838  -41.2352 H         1 UNK         0.0786 
     95 H95        22.7749  -27.1925  -42.2541 H         1 UNK         0.3172 
     96 H96        24.4323  -28.2334  -44.4676 H         1 UNK         0.0595 
     97 H97        21.5874  -28.9726  -43.6006 H         1 UNK         0.0839 
     98 H98        22.3958  -29.4506  -45.0855 H         1 UNK         0.0839 
     99 H99        21.9920  -27.7659  -44.8247 H         1 UNK         0.0839 
    100 H100       24.4308  -28.6935  -41.2192 H         1 UNK         0.2998 
    101 H101       25.2123  -30.1480  -39.7909 H         1 UNK         0.0822 
    102 H102       26.9144  -31.7821  -40.4859 H         1 UNK         0.0787 
    103 H103       26.3888  -31.6930  -42.1597 H         1 UNK         0.0787 
    104 H104       27.1388  -30.2948  -41.3896 H         1 UNK         0.0787 
    105 H105       22.5176  -30.5269  -40.7240 H         1 UNK         0.3055 
    106 H106       20.7464  -31.7161  -40.3334 H         1 UNK         0.1106 
    107 H107       20.7418  -33.4347  -38.5490 H         1 UNK         0.0828 
    108 H108       22.4943  -33.5389  -38.5998 H         1 UNK         0.0828 
    109 H109       21.7096  -32.0493  -38.0741 H         1 UNK         0.0828 
    110 H110       23.3568  -33.6640  -41.5520 H         1 UNK         0.2931 
    111 H111       23.5744  -35.3458  -42.8956 H         1 UNK         0.0412 
    112 H112       21.0731  -37.6522  -41.2243 H         1 UNK         0.3472 
    113 H113       21.7228  -36.1419  -40.6326 H         1 UNK         0.3472 
    114 H114       22.5274  -35.2372  -45.0967 H         1 UNK         0.0970 
    115 H115       23.0429  -33.6878  -44.5299 H         1 UNK         0.0970 
    116 H116       21.5541  -31.7203  -45.4323 H         1 UNK         0.0612 
    117 H117       21.5672  -31.8251  -43.6884 H         1 UNK         0.0612 
@<TRIPOS>BOND
     1    1    2 1    
     2    1   62 1    
     3    1   63 1    
     4    1   64 1    
     5    2    3 2    
     6    2    4 am   BACKBONE|DICT|INTERRES
     7    4    5 1    
     8    4   65 1    
     9    5    6 1    
    10    5   25 1    
    11    5   66 1    
    12    6    7 1    
    13    6   67 1    
    14    6   68 1    
    15    7    8 1    
    16    8    9 1    
    17    8   69 1    
    18    8   70 1    
    19    9   10 ar   
    20    9   14 ar   
    21   10   11 ar   
    22   10   71 1    
    23   11   12 ar   
    24   11   61 1    
    25   12   13 ar   
    26   12   72 1    
    27   13   14 ar   
    28   13   15 1    
    29   14   73 1    
    30   15   16 1    
    31   15   74 1    
    32   15   75 1    
    33   16   17 1    
    34   17   18 1    
    35   17   76 1    
    36   17   77 1    
    37   18   19 1    
    38   18   27 1    
    39   18   78 1    
    40   19   20 am   BACKBONE|DICT|INTERRES
    41   19   79 1    
    42   20   21 2    
    43   20   22 1    
    44   22   23 1    
    45   22   24 1    
    46   22   80 1    
    47   23   81 1    
    48   23   82 1    
    49   23   83 1    
    50   24   25 am   BACKBONE|DICT|INTERRES
    51   24   84 1    
    52   25   26 2    
    53   27   28 2    
    54   27   29 am   BACKBONE|DICT|INTERRES
    55   29   30 1    
    56   29   85 1    
    57   30   31 1    
    58   30   32 1    
    59   30   86 1    
    60   31   87 1    
    61   31   88 1    
    62   31   89 1    
    63   32   33 2    
    64   32   34 am   BACKBONE|DICT|INTERRES
    65   34   35 1    
    66   34   90 1    
    67   35   36 1    
    68   35   37 1    
    69   35   91 1    
    70   36   92 1    
    71   36   93 1    
    72   36   94 1    
    73   37   38 2    
    74   37   39 am   BACKBONE|DICT|INTERRES
    75   39   40 1    
    76   39   95 1    
    77   40   41 1    
    78   40   42 1    
    79   40   96 1    
    80   41   97 1    
    81   41   98 1    
    82   41   99 1    
    83   42   43 2    
    84   42   44 am   BACKBONE|DICT|INTERRES
    85   44   45 1    
    86   44  100 1    
    87   45   46 1    
    88   45   47 1    
    89   45  101 1    
    90   46  102 1    
    91   46  103 1    
    92   46  104 1    
    93   47   48 2    
    94   47   49 am   BACKBONE|DICT|INTERRES
    95   49   50 1    
    96   49  105 1    
    97   50   51 1    
    98   50   52 1    
    99   50  106 1    
   100   51  107 1    
   101   51  108 1    
   102   51  109 1    
   103   52   53 2    
   104   52   54 am   BACKBONE|DICT|INTERRES
   105   54   55 1    
   106   54  110 1    
   107   55   56 1    
   108   55   59 1    
   109   55  111 1    
   110   56   57 am   BACKBONE|DICT|INTERRES
   111   56   58 2    
   112   57  112 1    
   113   57  113 1    
   114   59   60 1    
   115   59  114 1    
   116   59  115 1    
   117   60   61 1    
   118   61  116 1    
   119   61  117 1    
@<TRIPOS>SUBSTRUCTURE
     1 UNK         1 GROUP             0       ****    0 ROOT    
