@<TRIPOS>MOLECULE
3R8
117   119    1
SMALL
USER_CHARGES


@<TRIPOS>ATOM
      1 CA         15.4419  -22.3410  -46.9556 C.3       0 UNK        -0.2013 
      2 C          16.2600  -23.4654  -46.3391 C.2       0 UNK         0.4866 
      3 O          15.7675  -24.5874  -46.2222 O.2       0 UNK        -0.5176 
      4 N          17.5002  -23.1710  -45.9241 N.am      1 UNK        -0.4884 
      5 CA         18.4999  -24.0772  -45.3315 C.3       1 UNK         0.0853 
      6 C6         18.8386  -25.2918  -46.2431 C.3       10 UNK        -0.0849 
      7 S7         20.5906  -25.7747  -46.1191 S.3       10 UNK        -0.2776 
      8 C8         20.6357  -27.2925  -47.1205 C.3       10 UNK         0.0316 
      9 C9         20.3298  -28.5319  -46.2916 C.ar      10 UNK        -0.0863 
     10 C10        21.3502  -29.1608  -45.5698 C.ar      10 UNK        -0.1009 
     11 C11        21.0961  -30.3300  -44.8449 C.ar      10 UNK        -0.0712 
     12 C12        19.8035  -30.8642  -44.8427 C.ar      10 UNK        -0.0894 
     13 C13        18.7669  -30.2253  -45.5307 C.ar      10 UNK        -0.0745 
     14 C14        19.0389  -29.0673  -46.2660 C.ar      10 UNK        -0.0972 
     15 C15        17.3463  -30.7666  -45.4510 C.3       10 UNK         0.0209 
     16 S16        16.2732  -29.7033  -44.4279 S.3       10 UNK        -0.2568 
     17 C17        17.0647  -29.8146  -42.7839 C.3       10 UNK        -0.0983 
     18 CA         18.1010  -28.6817  -42.5463 C.3       3 UNK         0.0876 
     19 N          17.5526  -27.3350  -42.7164 N.am      3 UNK        -0.4424 
     20 C          16.7122  -26.6769  -41.9082 C.2       2 UNK         0.4918 
     21 O          16.2486  -27.1462  -40.8685 O.2       2 UNK        -0.4875 
     22 CA         16.2981  -25.2532  -42.3380 C.3       2 UNK         0.0481 
     23 CB         16.5374  -24.2302  -41.2085 C.3       2 UNK        -0.1831 
     24 N          16.8903  -24.7916  -43.6047 N.am      2 UNK        -0.4498 
     25 C          18.1739  -24.5206  -43.8865 C.2       1 UNK         0.5027 
     26 O          19.0864  -24.6293  -43.0670 O.2       1 UNK        -0.4969 
     27 C          18.8944  -28.8309  -41.2327 C.2       3 UNK         0.5005 
     28 O          18.7072  -29.8026  -40.4976 O.2       3 UNK        -0.5279 
     29 N          19.7782  -27.8584  -40.9747 N.am      4 UNK        -0.4463 
     30 CA         20.7307  -27.8482  -39.8632 C.3       4 UNK         0.0283 
     31 CB         20.0343  -27.3865  -38.5671 C.3       4 UNK        -0.1875 
     32 C          21.9625  -26.9997  -40.2218 C.2       4 UNK         0.4949 
     33 O          22.5286  -26.3381  -39.3509 O.2       4 UNK        -0.5039 
     34 N          22.3372  -27.0022  -41.5082 N.am      5 UNK        -0.4663 
     35 CA         23.3843  -26.1433  -42.0689 C.3       5 UNK         0.0242 
     36 CB         22.9203  -25.6614  -43.4522 C.3       5 UNK        -0.1982 
     37 C          24.7541  -26.8325  -42.1831 C.2       5 UNK         0.5017 
     38 O          25.7318  -26.1544  -42.5030 O.2       5 UNK        -0.5012 
     39 N          24.8148  -28.1489  -41.9540 N.am      6 UNK        -0.4439 
     40 CA         26.0126  -28.9728  -42.0999 C.3       6 UNK         0.0297 
     41 CB         26.2021  -29.3537  -43.5845 C.3       6 UNK        -0.2006 
     42 C          25.9074  -30.2034  -41.1874 C.2       6 UNK         0.4892 
     43 O          25.0104  -30.2711  -40.3433 O.2       6 UNK        -0.5089 
     44 N          26.8371  -31.1494  -41.3707 N.am      7 UNK        -0.4243 
     45 CA         26.8505  -32.4573  -40.7136 C.3       7 UNK         0.0196 
     46 CB         28.2124  -33.1243  -40.9726 C.3       7 UNK        -0.2007 
     47 C          25.7036  -33.3633  -41.1989 C.2       7 UNK         0.5020 
     48 O          25.1155  -33.1132  -42.2536 O.2       7 UNK        -0.5147 
     49 N          25.4182  -34.4109  -40.4147 N.am      8 UNK        -0.4734 
     50 CA         24.3644  -35.4261  -40.5814 C.3       8 UNK         0.0238 
     51 CB         24.4755  -36.1691  -41.9282 C.3       8 UNK        -0.1912 
     52 C          22.9385  -34.8960  -40.3454 C.2       8 UNK         0.5038 
     53 O          22.1659  -35.5641  -39.6563 O.2       8 UNK        -0.5046 
     54 N          22.6201  -33.7147  -40.8871 N.am      9 UNK        -0.4200 
     55 CA         21.4053  -32.9487  -40.5808 C.3       9 UNK         0.0839 
     56 C          21.4982  -32.1886  -39.2215 C.2       9 UNK         0.5513 
     57 N          20.5236  -31.3556  -38.8862 N.am      9 UNK        -0.7519 
     58 O          22.4276  -32.3688  -38.4363 O.2       9 UNK        -0.4960 
     59 C59        20.9537  -32.0921  -41.7936 C.3       10 UNK        -0.0876 
     60 S60        22.1093  -30.7624  -42.2866 S.3       10 UNK        -0.2414 
     61 C61        22.2246  -31.0210  -44.0871 C.3       10 UNK         0.0169 
     62 H62        15.1515  -22.6039  -47.9724 H         1 UNK         0.0903 
     63 H63        15.9974  -21.4042  -46.9933 H         1 UNK         0.0903 
     64 H64        14.5352  -22.1749  -46.3745 H         1 UNK         0.0903 
     65 H65        17.8172  -22.2152  -46.0207 H         1 UNK         0.3096 
     66 H66        19.3956  -23.4581  -45.2502 H         1 UNK         0.1121 
     67 H67        18.1949  -26.1484  -46.0339 H         1 UNK         0.0849 
     68 H68        18.6593  -25.0366  -47.2888 H         1 UNK         0.0849 
     69 H69        19.9450  -27.2076  -47.9610 H         1 UNK         0.0865 
     70 H70        21.6296  -27.3890  -47.5601 H         1 UNK         0.0865 
     71 H71        22.3484  -28.7444  -45.5850 H         1 UNK         0.1346 
     72 H72        19.5946  -31.7666  -44.2876 H         1 UNK         0.1412 
     73 H73        18.2402  -28.5792  -46.8080 H         1 UNK         0.1426 
     74 H74        17.3353  -31.7817  -45.0509 H         1 UNK         0.0716 
     75 H75        16.9275  -30.8292  -46.4564 H         1 UNK         0.0716 
     76 H76        16.2825  -29.7770  -42.0240 H         1 UNK         0.0695 
     77 H77        17.5338  -30.7955  -42.6890 H         1 UNK         0.0695 
     78 H78        18.8631  -28.7665  -43.3182 H         1 UNK         0.0983 
     79 H79        17.8590  -26.8476  -43.5442 H         1 UNK         0.3095 
     80 H80        15.2231  -25.2970  -42.5181 H         1 UNK         0.0454 
     81 H81        17.5876  -24.1790  -40.9201 H         1 UNK         0.0851 
     82 H82        16.2203  -23.2303  -41.5039 H         1 UNK         0.0851 
     83 H83        15.9720  -24.4962  -40.3145 H         1 UNK         0.0851 
     84 H84        16.2459  -24.7216  -44.3896 H         1 UNK         0.2976 
     85 H85        19.8247  -27.0644  -41.6009 H         1 UNK         0.3116 
     86 H86        21.1057  -28.8614  -39.7149 H         1 UNK         0.0646 
     87 H87        20.7217  -27.4096  -37.7207 H         1 UNK         0.0847 
     88 H88        19.1941  -28.0330  -38.3141 H         1 UNK         0.0847 
     89 H89        19.6572  -26.3673  -38.6578 H         1 UNK         0.0847 
     90 H90        21.8611  -27.6162  -42.1542 H         1 UNK         0.3040 
     91 H91        23.5207  -25.2636  -41.4357 H         1 UNK         0.1015 
     92 H92        21.9704  -25.1297  -43.3885 H         1 UNK         0.0786 
     93 H93        22.7947  -26.4935  -44.1460 H         1 UNK         0.0786 
     94 H94        23.6434  -24.9750  -43.8947 H         1 UNK         0.0786 
     95 H95        23.9987  -28.6377  -41.6070 H         1 UNK         0.3172 
     96 H96        26.8802  -28.4012  -41.7635 H         1 UNK         0.0595 
     97 H97        27.1606  -29.8444  -43.7543 H         1 UNK         0.0839 
     98 H98        26.1825  -28.4756  -44.2301 H         1 UNK         0.0839 
     99 H99        25.4215  -30.0343  -43.9247 H         1 UNK         0.0839 
    100 H100       27.5184  -31.0129  -42.1024 H         1 UNK         0.2998 
    101 H101       26.7313  -32.2979  -39.6396 H         1 UNK         0.0822 
    102 H102       28.3745  -33.3096  -42.0354 H         1 UNK         0.0787 
    103 H103       29.0335  -32.5048  -40.6106 H         1 UNK         0.0787 
    104 H104       28.2865  -34.0847  -40.4609 H         1 UNK         0.0787 
    105 H105       25.9554  -34.5062  -39.5630 H         1 UNK         0.3055 
    106 H106       24.5472  -36.1620  -39.7961 H         1 UNK         0.1106 
    107 H107       24.2532  -35.5217  -42.7767 H         1 UNK         0.0828 
    108 H108       25.4738  -36.5818  -42.0729 H         1 UNK         0.0828 
    109 H109       23.7718  -37.0015  -41.9686 H         1 UNK         0.0828 
    110 H110       23.3332  -33.2330  -41.4258 H         1 UNK         0.2931 
    111 H111       20.6074  -33.6773  -40.4255 H         1 UNK         0.0412 
    112 H112       19.7844  -31.0956  -39.5324 H         1 UNK         0.3472 
    113 H113       20.5780  -30.8920  -37.9942 H         1 UNK         0.3472 
    114 H114       19.9721  -31.6594  -41.6140 H         1 UNK         0.0970 
    115 H115       20.8062  -32.7671  -42.6364 H         1 UNK         0.0970 
    116 H116       23.1872  -30.6351  -44.4230 H         1 UNK         0.0612 
    117 H117       22.2375  -32.0870  -44.3178 H         1 UNK         0.0612 
@<TRIPOS>BOND
     1    1    2 1    
     2    1   62 1    
     3    1   63 1    
     4    1   64 1    
     5    2    3 2    
     6    2    4 am   BACKBONE|DICT|INTERRES
     7    4    5 1    
     8    4   65 1    
     9    5    6 1    
    10    5   25 1    
    11    5   66 1    
    12    6    7 1    
    13    6   67 1    
    14    6   68 1    
    15    7    8 1    
    16    8    9 1    
    17    8   69 1    
    18    8   70 1    
    19    9   10 ar   
    20    9   14 ar   
    21   10   11 ar   
    22   10   71 1    
    23   11   12 ar   
    24   11   61 1    
    25   12   13 ar   
    26   12   72 1    
    27   13   14 ar   
    28   13   15 1    
    29   14   73 1    
    30   15   16 1    
    31   15   74 1    
    32   15   75 1    
    33   16   17 1    
    34   17   18 1    
    35   17   76 1    
    36   17   77 1    
    37   18   19 1    
    38   18   27 1    
    39   18   78 1    
    40   19   20 am   BACKBONE|DICT|INTERRES
    41   19   79 1    
    42   20   21 2    
    43   20   22 1    
    44   22   23 1    
    45   22   24 1    
    46   22   80 1    
    47   23   81 1    
    48   23   82 1    
    49   23   83 1    
    50   24   25 am   BACKBONE|DICT|INTERRES
    51   24   84 1    
    52   25   26 2    
    53   27   28 2    
    54   27   29 am   BACKBONE|DICT|INTERRES
    55   29   30 1    
    56   29   85 1    
    57   30   31 1    
    58   30   32 1    
    59   30   86 1    
    60   31   87 1    
    61   31   88 1    
    62   31   89 1    
    63   32   33 2    
    64   32   34 am   BACKBONE|DICT|INTERRES
    65   34   35 1    
    66   34   90 1    
    67   35   36 1    
    68   35   37 1    
    69   35   91 1    
    70   36   92 1    
    71   36   93 1    
    72   36   94 1    
    73   37   38 2    
    74   37   39 am   BACKBONE|DICT|INTERRES
    75   39   40 1    
    76   39   95 1    
    77   40   41 1    
    78   40   42 1    
    79   40   96 1    
    80   41   97 1    
    81   41   98 1    
    82   41   99 1    
    83   42   43 2    
    84   42   44 am   BACKBONE|DICT|INTERRES
    85   44   45 1    
    86   44  100 1    
    87   45   46 1    
    88   45   47 1    
    89   45  101 1    
    90   46  102 1    
    91   46  103 1    
    92   46  104 1    
    93   47   48 2    
    94   47   49 am   BACKBONE|DICT|INTERRES
    95   49   50 1    
    96   49  105 1    
    97   50   51 1    
    98   50   52 1    
    99   50  106 1    
   100   51  107 1    
   101   51  108 1    
   102   51  109 1    
   103   52   53 2    
   104   52   54 am   BACKBONE|DICT|INTERRES
   105   54   55 1    
   106   54  110 1    
   107   55   56 1    
   108   55   59 1    
   109   55  111 1    
   110   56   57 am   BACKBONE|DICT|INTERRES
   111   56   58 2    
   112   57  112 1    
   113   57  113 1    
   114   59   60 1    
   115   59  114 1    
   116   59  115 1    
   117   60   61 1    
   118   61  116 1    
   119   61  117 1    
@<TRIPOS>SUBSTRUCTURE
     1 UNK         1 GROUP             0       ****    0 ROOT    
