@<TRIPOS>MOLECULE
3R8
117   119    1
SMALL
USER_CHARGES


@<TRIPOS>ATOM
      1 CA         16.0773  -23.8030  -41.3372 C.3       0 UNK        -0.2013 
      2 C          16.3759  -23.9781  -42.8184 C.2       0 UNK         0.4866 
      3 O          16.2587  -23.0227  -43.5854 O.2       0 UNK        -0.5176 
      4 N          16.7697  -25.1913  -43.2270 N.am      1 UNK        -0.4884 
      5 CA         17.0531  -25.5573  -44.6236 C.3       1 UNK         0.0853 
      6 C6         16.9401  -27.0842  -44.8589 C.3       10 UNK        -0.0849 
      7 S7         15.4252  -27.8687  -44.2019 S.3       10 UNK        -0.2776 
      8 C8         15.4134  -29.4656  -45.0923 C.3       10 UNK         0.0316 
      9 C9         16.7394  -30.2025  -44.9558 C.ar      10 UNK        -0.0863 
     10 C10        16.9899  -31.0349  -43.8614 C.ar      10 UNK        -0.1009 
     11 C11        18.2404  -31.6439  -43.7060 C.ar      10 UNK        -0.0712 
     12 C12        19.2460  -31.3999  -44.6490 C.ar      10 UNK        -0.0894 
     13 C13        19.0045  -30.5763  -45.7529 C.ar      10 UNK        -0.0745 
     14 C14        17.7353  -30.0162  -45.9170 C.ar      10 UNK        -0.0972 
     15 C15        20.1079  -30.2952  -46.7681 C.3       10 UNK         0.0209 
     16 S16        20.2366  -28.5166  -47.1765 S.3       10 UNK        -0.2568 
     17 C17        21.9852  -28.1336  -46.8192 C.3       10 UNK        -0.0983 
     18 CA         22.2179  -27.3930  -45.4790 C.3       3 UNK         0.0876 
     19 N          21.4238  -26.1602  -45.3586 N.am      3 UNK        -0.4424 
     20 C          21.6429  -25.2029  -44.4458 C.2       2 UNK         0.4918 
     21 O          22.5669  -25.2412  -43.6339 O.2       2 UNK        -0.4875 
     22 CA         20.6387  -24.0404  -44.3724 C.3       2 UNK         0.0481 
     23 CB         20.8202  -23.0502  -45.5397 C.3       2 UNK        -0.1831 
     24 N          19.2467  -24.4865  -44.2155 N.am      2 UNK        -0.4498 
     25 C          18.4385  -25.0698  -45.1143 C.2       1 UNK         0.5027 
     26 O          18.7712  -25.2853  -46.2802 O.2       1 UNK        -0.4969 
     27 C          22.0561  -28.3304  -44.2628 C.2       3 UNK         0.5005 
     28 O          22.9825  -29.0781  -43.9509 O.2       3 UNK        -0.5279 
     29 N          20.9144  -28.2260  -43.5649 N.am      4 UNK        -0.4463 
     30 CA         20.6036  -28.8939  -42.2979 C.3       4 UNK         0.0283 
     31 CB         19.2326  -28.4070  -41.8000 C.3       4 UNK        -0.1875 
     32 C          21.6663  -28.6683  -41.2102 C.2       4 UNK         0.4949 
     33 O          22.0405  -29.6125  -40.5107 O.2       4 UNK        -0.5039 
     34 N          22.1451  -27.4202  -41.1154 N.am      5 UNK        -0.4663 
     35 CA         23.1266  -26.9640  -40.1322 C.3       5 UNK         0.0242 
     36 CB         23.0992  -25.4280  -40.0759 C.3       5 UNK        -0.1982 
     37 C          24.5556  -27.4672  -40.3927 C.2       5 UNK         0.5017 
     38 O          25.3709  -27.4284  -39.4709 O.2       5 UNK        -0.5012 
     39 N          24.8464  -27.9622  -41.6054 N.am      6 UNK        -0.4439 
     40 CA         26.1471  -28.5184  -41.9990 C.3       6 UNK         0.0297 
     41 CB         26.3201  -28.3693  -43.5222 C.3       6 UNK        -0.2006 
     42 C          26.3245  -29.9752  -41.5193 C.2       6 UNK         0.4892 
     43 O          26.7658  -30.8283  -42.2905 O.2       6 UNK        -0.5089 
     44 N          25.9485  -30.2307  -40.2567 N.am      7 UNK        -0.4243 
     45 CA         25.9374  -31.5151  -39.5441 C.3       7 UNK         0.0196 
     46 CB         27.3759  -32.0397  -39.3486 C.3       7 UNK        -0.2007 
     47 C          25.0050  -32.5823  -40.1565 C.2       7 UNK         0.5020 
     48 O          25.1367  -33.7594  -39.8173 O.2       7 UNK        -0.5147 
     49 N          24.0796  -32.1744  -41.0362 N.am      8 UNK        -0.4734 
     50 CA         23.1506  -33.0736  -41.7218 C.3       8 UNK         0.0238 
     51 CB         22.6822  -32.4313  -43.0351 C.3       8 UNK        -0.1912 
     52 C          21.9594  -33.4647  -40.8358 C.2       8 UNK         0.5038 
     53 O          21.5627  -34.6307  -40.8512 O.2       8 UNK        -0.5046 
     54 N          21.4267  -32.5024  -40.0730 N.am      9 UNK        -0.4200 
     55 CA         20.3338  -32.7118  -39.1101 C.3       9 UNK         0.0839 
     56 C          20.2411  -31.6344  -37.9937 C.2       9 UNK         0.5513 
     57 N          20.9327  -30.5043  -38.0778 N.am      9 UNK        -0.7519 
     58 O          19.5452  -31.8450  -37.0035 O.2       9 UNK        -0.4960 
     59 C59        18.9597  -33.0005  -39.7805 C.3       10 UNK        -0.0876 
     60 S60        18.4177  -31.6949  -40.9354 S.3       10 UNK        -0.2414 
     61 C61        18.5016  -32.5719  -42.5271 C.3       10 UNK         0.0169 
     62 H62        16.2310  -24.7256  -40.7775 H         1 UNK         0.0903 
     63 H63        16.7239  -23.0361  -40.9114 H         1 UNK         0.0903 
     64 H64        15.0424  -23.4914  -41.1983 H         1 UNK         0.0903 
     65 H65        16.8114  -25.9515  -42.5625 H         1 UNK         0.3096 
     66 H66        16.3099  -25.0680  -45.2575 H         1 UNK         0.1121 
     67 H67        16.9815  -27.2826  -45.9313 H         1 UNK         0.0849 
     68 H68        17.7951  -27.5999  -44.4194 H         1 UNK         0.0849 
     69 H69        14.6021  -30.0840  -44.7055 H         1 UNK         0.0865 
     70 H70        15.1847  -29.2889  -46.1446 H         1 UNK         0.0865 
     71 H71        16.2201  -31.1945  -43.1186 H         1 UNK         0.1346 
     72 H72        20.2185  -31.8530  -44.5260 H         1 UNK         0.1412 
     73 H73        17.5389  -29.3882  -46.7749 H         1 UNK         0.1426 
     74 H74        21.0642  -30.6654  -46.3965 H         1 UNK         0.0716 
     75 H75        19.8964  -30.8514  -47.6821 H         1 UNK         0.0716 
     76 H76        22.5919  -29.0393  -46.8754 H         1 UNK         0.0695 
     77 H77        22.3435  -27.5031  -47.6343 H         1 UNK         0.0695 
     78 H78        23.2669  -27.0874  -45.4701 H         1 UNK         0.0983 
     79 H79        20.6256  -26.0644  -45.9793 H         1 UNK         0.3095 
     80 H80        20.8649  -23.4921  -43.4564 H         1 UNK         0.0454 
     81 H81        20.6666  -23.5189  -46.5117 H         1 UNK         0.0851 
     82 H82        20.1280  -22.2122  -45.4589 H         1 UNK         0.0851 
     83 H83        21.8295  -22.6369  -45.5407 H         1 UNK         0.0851 
     84 H84        18.8650  -24.3735  -43.2865 H         1 UNK         0.2976 
     85 H85        20.2115  -27.6032  -43.9306 H         1 UNK         0.3116 
     86 H86        20.5382  -29.9652  -42.4843 H         1 UNK         0.0646 
     87 H87        19.0200  -28.7880  -40.8002 H         1 UNK         0.0847 
     88 H88        18.4306  -28.7590  -42.4486 H         1 UNK         0.0847 
     89 H89        19.1772  -27.3194  -41.7470 H         1 UNK         0.0847 
     90 H90        21.8191  -26.7282  -41.7759 H         1 UNK         0.3040 
     91 H91        22.8265  -27.3477  -39.1543 H         1 UNK         0.1015 
     92 H92        22.1051  -25.0564  -39.8266 H         1 UNK         0.0786 
     93 H93        23.3963  -24.9838  -41.0267 H         1 UNK         0.0786 
     94 H94        23.7837  -25.0525  -39.3138 H         1 UNK         0.0786 
     95 H95        24.1014  -28.0357  -42.2880 H         1 UNK         0.3172 
     96 H96        26.9356  -27.9310  -41.5239 H         1 UNK         0.0595 
     97 H97        27.3226  -28.6676  -43.8315 H         1 UNK         0.0839 
     98 H98        26.1781  -27.3366  -43.8412 H         1 UNK         0.0839 
     99 H99        25.6140  -28.9918  -44.0723 H         1 UNK         0.0839 
    100 H100       25.6261  -29.4323  -39.7195 H         1 UNK         0.2998 
    101 H101       25.5289  -31.3020  -38.5552 H         1 UNK         0.0822 
    102 H102       28.0163  -31.2831  -38.8953 H         1 UNK         0.0787 
    103 H103       27.3918  -32.9096  -38.6907 H         1 UNK         0.0787 
    104 H104       27.8285  -32.3403  -40.2940 H         1 UNK         0.0787 
    105 H105       24.0120  -31.1887  -41.2485 H         1 UNK         0.3055 
    106 H106       23.6829  -33.9933  -41.9765 H         1 UNK         0.1106 
    107 H107       22.0207  -33.1048  -43.5809 H         1 UNK         0.0828 
    108 H108       22.1416  -31.5033  -42.8601 H         1 UNK         0.0828 
    109 H109       23.5248  -32.2040  -43.6886 H         1 UNK         0.0828 
    110 H110       21.7915  -31.5593  -40.1392 H         1 UNK         0.2931 
    111 H111       20.6017  -33.6165  -38.5603 H         1 UNK         0.0412 
    112 H112       20.8597  -29.8421  -37.3222 H         1 UNK         0.3472 
    113 H113       21.4474  -30.2478  -38.9140 H         1 UNK         0.3472 
    114 H114       18.1838  -33.1328  -39.0243 H         1 UNK         0.0970 
    115 H115       19.0015  -33.9543  -40.3077 H         1 UNK         0.0970 
    116 H116       17.7651  -33.3765  -42.5330 H         1 UNK         0.0612 
    117 H117       19.4804  -33.0440  -42.6216 H         1 UNK         0.0612 
@<TRIPOS>BOND
     1    1    2 1    
     2    1   62 1    
     3    1   63 1    
     4    1   64 1    
     5    2    3 2    
     6    2    4 am   BACKBONE|DICT|INTERRES
     7    4    5 1    
     8    4   65 1    
     9    5    6 1    
    10    5   25 1    
    11    5   66 1    
    12    6    7 1    
    13    6   67 1    
    14    6   68 1    
    15    7    8 1    
    16    8    9 1    
    17    8   69 1    
    18    8   70 1    
    19    9   10 ar   
    20    9   14 ar   
    21   10   11 ar   
    22   10   71 1    
    23   11   12 ar   
    24   11   61 1    
    25   12   13 ar   
    26   12   72 1    
    27   13   14 ar   
    28   13   15 1    
    29   14   73 1    
    30   15   16 1    
    31   15   74 1    
    32   15   75 1    
    33   16   17 1    
    34   17   18 1    
    35   17   76 1    
    36   17   77 1    
    37   18   19 1    
    38   18   27 1    
    39   18   78 1    
    40   19   20 am   BACKBONE|DICT|INTERRES
    41   19   79 1    
    42   20   21 2    
    43   20   22 1    
    44   22   23 1    
    45   22   24 1    
    46   22   80 1    
    47   23   81 1    
    48   23   82 1    
    49   23   83 1    
    50   24   25 am   BACKBONE|DICT|INTERRES
    51   24   84 1    
    52   25   26 2    
    53   27   28 2    
    54   27   29 am   BACKBONE|DICT|INTERRES
    55   29   30 1    
    56   29   85 1    
    57   30   31 1    
    58   30   32 1    
    59   30   86 1    
    60   31   87 1    
    61   31   88 1    
    62   31   89 1    
    63   32   33 2    
    64   32   34 am   BACKBONE|DICT|INTERRES
    65   34   35 1    
    66   34   90 1    
    67   35   36 1    
    68   35   37 1    
    69   35   91 1    
    70   36   92 1    
    71   36   93 1    
    72   36   94 1    
    73   37   38 2    
    74   37   39 am   BACKBONE|DICT|INTERRES
    75   39   40 1    
    76   39   95 1    
    77   40   41 1    
    78   40   42 1    
    79   40   96 1    
    80   41   97 1    
    81   41   98 1    
    82   41   99 1    
    83   42   43 2    
    84   42   44 am   BACKBONE|DICT|INTERRES
    85   44   45 1    
    86   44  100 1    
    87   45   46 1    
    88   45   47 1    
    89   45  101 1    
    90   46  102 1    
    91   46  103 1    
    92   46  104 1    
    93   47   48 2    
    94   47   49 am   BACKBONE|DICT|INTERRES
    95   49   50 1    
    96   49  105 1    
    97   50   51 1    
    98   50   52 1    
    99   50  106 1    
   100   51  107 1    
   101   51  108 1    
   102   51  109 1    
   103   52   53 2    
   104   52   54 am   BACKBONE|DICT|INTERRES
   105   54   55 1    
   106   54  110 1    
   107   55   56 1    
   108   55   59 1    
   109   55  111 1    
   110   56   57 am   BACKBONE|DICT|INTERRES
   111   56   58 2    
   112   57  112 1    
   113   57  113 1    
   114   59   60 1    
   115   59  114 1    
   116   59  115 1    
   117   60   61 1    
   118   61  116 1    
   119   61  117 1    
@<TRIPOS>SUBSTRUCTURE
     1 UNK         1 GROUP             0       ****    0 ROOT    
