@<TRIPOS>MOLECULE
3R8
117   119    1
SMALL
USER_CHARGES


@<TRIPOS>ATOM
      1 CA         15.6276  -21.8685  -45.2640 C.3       0 UNK        -0.2013 
      2 C          16.2765  -23.2223  -45.0201 C.2       0 UNK         0.4866 
      3 O          15.8764  -23.9343  -44.0981 O.2       0 UNK        -0.5176 
      4 N          17.2835  -23.5784  -45.8308 N.am      1 UNK        -0.4884 
      5 CA         18.0648  -24.8257  -45.8079 C.3       1 UNK         0.0853 
      6 C6         17.1867  -26.0993  -45.9526 C.3       10 UNK        -0.0849 
      7 S7         18.1011  -27.5397  -46.6025 S.3       10 UNK        -0.2776 
      8 C8         16.8731  -28.8723  -46.3879 C.3       10 UNK         0.0316 
      9 C9         17.1544  -29.6957  -45.1385 C.ar      10 UNK        -0.0863 
     10 C10        17.7588  -30.9535  -45.2431 C.ar      10 UNK        -0.1009 
     11 C11        18.0384  -31.7022  -44.0960 C.ar      10 UNK        -0.0712 
     12 C12        17.7211  -31.1833  -42.8386 C.ar      10 UNK        -0.0894 
     13 C13        17.1613  -29.9068  -42.7183 C.ar      10 UNK        -0.0745 
     14 C14        16.8366  -29.1904  -43.8746 C.ar      10 UNK        -0.0972 
     15 C15        17.0062  -29.2346  -41.3588 C.3       10 UNK         0.0209 
     16 S16        18.3909  -29.5323  -40.1929 S.3       10 UNK        -0.2568 
     17 C17        19.9924  -29.2464  -41.0543 C.3       10 UNK        -0.0983 
     18 CA         20.0149  -28.5083  -42.4256 C.3       3 UNK         0.0876 
     19 N          19.4172  -27.1701  -42.3805 N.am      3 UNK        -0.4424 
     20 C          19.9471  -26.0736  -41.8208 C.2       2 UNK         0.4918 
     21 O          20.9989  -26.0706  -41.1783 O.2       2 UNK        -0.4875 
     22 CA         19.2017  -24.7487  -42.0879 C.3       2 UNK         0.0481 
     23 CB         20.1252  -23.5208  -41.9460 C.3       2 UNK        -0.1831 
     24 N          18.5060  -24.7145  -43.3849 N.am      2 UNK        -0.4498 
     25 C          19.0296  -24.9135  -44.6053 C.2       1 UNK         0.5027 
     26 O          20.2178  -25.1710  -44.8033 O.2       1 UNK        -0.4969 
     27 C          21.4104  -28.4946  -43.0841 C.2       3 UNK         0.5005 
     28 O          22.3260  -29.1408  -42.5806 O.2       3 UNK        -0.5279 
     29 N          21.5543  -27.7285  -44.1793 N.am      4 UNK        -0.4463 
     30 CA         22.7933  -27.4863  -44.9293 C.3       4 UNK         0.0283 
     31 CB         23.2475  -28.7633  -45.6666 C.3       4 UNK        -0.1875 
     32 C          23.8926  -26.8639  -44.0456 C.2       4 UNK         0.4949 
     33 O          25.0447  -27.2967  -44.0924 O.2       4 UNK        -0.5039 
     34 N          23.4866  -25.8682  -43.2423 N.am      5 UNK        -0.4663 
     35 CA         24.2603  -25.1944  -42.1930 C.3       5 UNK         0.0242 
     36 CB         25.4427  -24.4016  -42.7914 C.3       5 UNK        -0.1982 
     37 C          24.6775  -26.1685  -41.0730 C.2       5 UNK         0.5017 
     38 O          25.8618  -26.2652  -40.7452 O.2       5 UNK        -0.5012 
     39 N          23.6764  -26.8617  -40.5096 N.am      6 UNK        -0.4439 
     40 CA         23.7662  -27.8363  -39.4157 C.3       6 UNK         0.0297 
     41 CB         24.1372  -27.1321  -38.0930 C.3       6 UNK        -0.2006 
     42 C          24.6763  -29.0405  -39.7348 C.2       6 UNK         0.4892 
     43 O          25.5530  -29.3834  -38.9376 O.2       6 UNK        -0.5089 
     44 N          24.4446  -29.6672  -40.8944 N.am      7 UNK        -0.4243 
     45 CA         25.0757  -30.9184  -41.3119 C.3       7 UNK         0.0196 
     46 CB         24.9755  -31.0396  -42.8429 C.3       7 UNK        -0.2007 
     47 C          24.4282  -32.1331  -40.6220 C.2       7 UNK         0.5020 
     48 O          23.4086  -32.0066  -39.9381 O.2       7 UNK        -0.5147 
     49 N          25.0313  -33.3089  -40.8410 N.am      8 UNK        -0.4734 
     50 CA         24.6672  -34.5912  -40.2251 C.3       8 UNK         0.0238 
     51 CB         25.6841  -35.6595  -40.6612 C.3       8 UNK        -0.1912 
     52 C          23.2303  -35.0821  -40.4895 C.2       8 UNK         0.5038 
     53 O          22.7469  -35.9174  -39.7233 O.2       8 UNK        -0.5046 
     54 N          22.5743  -34.5748  -41.5436 N.am      9 UNK        -0.4200 
     55 CA         21.1598  -34.8529  -41.8377 C.3       9 UNK         0.0839 
     56 C          20.1490  -34.1445  -40.8833 C.2       9 UNK         0.5513 
     57 N          20.5608  -33.1714  -40.0769 N.am      9 UNK        -0.7519 
     58 O          18.9732  -34.4987  -40.8673 O.2       9 UNK        -0.4960 
     59 C59        20.8329  -34.6740  -43.3486 C.3       10 UNK        -0.0876 
     60 S60        20.4980  -32.9567  -43.8863 S.3       10 UNK        -0.2414 
     61 C61        18.7038  -33.0637  -44.1970 C.3       10 UNK         0.0169 
     62 H62        14.5619  -21.9931  -45.4539 H         1 UNK         0.0903 
     63 H63        15.7452  -21.2332  -44.3865 H         1 UNK         0.0903 
     64 H64        16.0659  -21.3526  -46.1181 H         1 UNK         0.0903 
     65 H65        17.5730  -22.9224  -46.5444 H         1 UNK         0.3096 
     66 H66        18.6983  -24.7658  -46.6952 H         1 UNK         0.1121 
     67 H67        16.7061  -26.3534  -45.0082 H         1 UNK         0.0849 
     68 H68        16.3728  -25.9021  -46.6524 H         1 UNK         0.0849 
     69 H69        15.8639  -28.4596  -46.3453 H         1 UNK         0.0865 
     70 H70        16.8972  -29.5111  -47.2721 H         1 UNK         0.0865 
     71 H71        18.0198  -31.3477  -46.2160 H         1 UNK         0.1346 
     72 H72        17.9738  -31.7497  -41.9521 H         1 UNK         0.1412 
     73 H73        16.3856  -28.2127  -43.7877 H         1 UNK         0.1426 
     74 H74        16.0847  -29.5934  -40.8991 H         1 UNK         0.0716 
     75 H75        16.8877  -28.1564  -41.4734 H         1 UNK         0.0716 
     76 H76        20.4371  -30.2367  -41.1732 H         1 UNK         0.0695 
     77 H77        20.6398  -28.7228  -40.3501 H         1 UNK         0.0695 
     78 H78        19.4548  -29.0884  -43.1487 H         1 UNK         0.0983 
     79 H79        18.5578  -27.0586  -42.8959 H         1 UNK         0.3095 
     80 H80        18.4283  -24.6749  -41.3224 H         1 UNK         0.0454 
     81 H81        20.5564  -23.4661  -40.9456 H         1 UNK         0.0851 
     82 H82        19.5779  -22.5929  -42.1105 H         1 UNK         0.0851 
     83 H83        20.9524  -23.5516  -42.6557 H         1 UNK         0.0851 
     84 H84        17.5122  -24.4930  -43.3566 H         1 UNK         0.2976 
     85 H85        20.7663  -27.1631  -44.4761 H         1 UNK         0.3116 
     86 H86        22.5521  -26.7385  -45.6863 H         1 UNK         0.0646 
     87 H87        23.5269  -29.5548  -44.9724 H         1 UNK         0.0847 
     88 H88        22.4589  -29.1488  -46.3125 H         1 UNK         0.0847 
     89 H89        24.1145  -28.5634  -46.2972 H         1 UNK         0.0847 
     90 H90        22.5076  -25.6177  -43.2868 H         1 UNK         0.3040 
     91 H91        23.5861  -24.4717  -41.7296 H         1 UNK         0.1015 
     92 H92        25.9445  -23.8141  -42.0216 H         1 UNK         0.0786 
     93 H93        25.1054  -23.7069  -43.5605 H         1 UNK         0.0786 
     94 H94        26.1919  -25.0570  -43.2362 H         1 UNK         0.0786 
     95 H95        22.7342  -26.6856  -40.8546 H         1 UNK         0.3172 
     96 H96        22.7622  -28.2444  -39.2943 H         1 UNK         0.0595 
     97 H97        25.1451  -26.7169  -38.1234 H         1 UNK         0.0839 
     98 H98        24.0989  -27.8299  -37.2556 H         1 UNK         0.0839 
     99 H99        23.4458  -26.3201  -37.8683 H         1 UNK         0.0839 
    100 H100       23.6696  -29.3523  -41.4801 H         1 UNK         0.2998 
    101 H101       26.1307  -30.8863  -41.0319 H         1 UNK         0.0822 
    102 H102       25.5609  -31.8800  -43.2167 H         1 UNK         0.0787 
    103 H103       25.3520  -30.1423  -43.3351 H         1 UNK         0.0787 
    104 H104       23.9449  -31.1909  -43.1668 H         1 UNK         0.0787 
    105 H105       25.8500  -33.3200  -41.4330 H         1 UNK         0.3055 
    106 H106       24.7528  -34.4615  -39.1439 H         1 UNK         0.1106 
    107 H107       26.6988  -35.3869  -40.3704 H         1 UNK         0.0828 
    108 H108       25.4662  -36.6219  -40.1954 H         1 UNK         0.0828 
    109 H109       25.6714  -35.8113  -41.7413 H         1 UNK         0.0828 
    110 H110       23.0260  -33.8707  -42.1075 H         1 UNK         0.2931 
    111 H111       21.0211  -35.9183  -41.6420 H         1 UNK         0.0412 
    112 H112       21.5263  -32.8614  -40.0845 H         1 UNK         0.3472 
    113 H113       19.8965  -32.7250  -39.4657 H         1 UNK         0.3472 
    114 H114       19.9756  -35.2993  -43.6032 H         1 UNK         0.0970 
    115 H115       21.6497  -35.0673  -43.9557 H         1 UNK         0.0970 
    116 H116       18.5346  -33.5059  -45.1799 H         1 UNK         0.0612 
    117 H117       18.2384  -33.7339  -43.4729 H         1 UNK         0.0612 
@<TRIPOS>BOND
     1    1    2 1    
     2    1   62 1    
     3    1   63 1    
     4    1   64 1    
     5    2    3 2    
     6    2    4 am   BACKBONE|DICT|INTERRES
     7    4    5 1    
     8    4   65 1    
     9    5    6 1    
    10    5   25 1    
    11    5   66 1    
    12    6    7 1    
    13    6   67 1    
    14    6   68 1    
    15    7    8 1    
    16    8    9 1    
    17    8   69 1    
    18    8   70 1    
    19    9   10 ar   
    20    9   14 ar   
    21   10   11 ar   
    22   10   71 1    
    23   11   12 ar   
    24   11   61 1    
    25   12   13 ar   
    26   12   72 1    
    27   13   14 ar   
    28   13   15 1    
    29   14   73 1    
    30   15   16 1    
    31   15   74 1    
    32   15   75 1    
    33   16   17 1    
    34   17   18 1    
    35   17   76 1    
    36   17   77 1    
    37   18   19 1    
    38   18   27 1    
    39   18   78 1    
    40   19   20 am   BACKBONE|DICT|INTERRES
    41   19   79 1    
    42   20   21 2    
    43   20   22 1    
    44   22   23 1    
    45   22   24 1    
    46   22   80 1    
    47   23   81 1    
    48   23   82 1    
    49   23   83 1    
    50   24   25 am   BACKBONE|DICT|INTERRES
    51   24   84 1    
    52   25   26 2    
    53   27   28 2    
    54   27   29 am   BACKBONE|DICT|INTERRES
    55   29   30 1    
    56   29   85 1    
    57   30   31 1    
    58   30   32 1    
    59   30   86 1    
    60   31   87 1    
    61   31   88 1    
    62   31   89 1    
    63   32   33 2    
    64   32   34 am   BACKBONE|DICT|INTERRES
    65   34   35 1    
    66   34   90 1    
    67   35   36 1    
    68   35   37 1    
    69   35   91 1    
    70   36   92 1    
    71   36   93 1    
    72   36   94 1    
    73   37   38 2    
    74   37   39 am   BACKBONE|DICT|INTERRES
    75   39   40 1    
    76   39   95 1    
    77   40   41 1    
    78   40   42 1    
    79   40   96 1    
    80   41   97 1    
    81   41   98 1    
    82   41   99 1    
    83   42   43 2    
    84   42   44 am   BACKBONE|DICT|INTERRES
    85   44   45 1    
    86   44  100 1    
    87   45   46 1    
    88   45   47 1    
    89   45  101 1    
    90   46  102 1    
    91   46  103 1    
    92   46  104 1    
    93   47   48 2    
    94   47   49 am   BACKBONE|DICT|INTERRES
    95   49   50 1    
    96   49  105 1    
    97   50   51 1    
    98   50   52 1    
    99   50  106 1    
   100   51  107 1    
   101   51  108 1    
   102   51  109 1    
   103   52   53 2    
   104   52   54 am   BACKBONE|DICT|INTERRES
   105   54   55 1    
   106   54  110 1    
   107   55   56 1    
   108   55   59 1    
   109   55  111 1    
   110   56   57 am   BACKBONE|DICT|INTERRES
   111   56   58 2    
   112   57  112 1    
   113   57  113 1    
   114   59   60 1    
   115   59  114 1    
   116   59  115 1    
   117   60   61 1    
   118   61  116 1    
   119   61  117 1    
@<TRIPOS>SUBSTRUCTURE
     1 UNK         1 GROUP             0       ****    0 ROOT    
