@<TRIPOS>MOLECULE
3R8
117   119    1
SMALL
USER_CHARGES


@<TRIPOS>ATOM
      1 CA         13.6008  -25.2369  -41.1973 C.3       0 UNK        -0.2013 
      2 C          14.8465  -25.4262  -42.0501 C.2       0 UNK         0.4866 
      3 O          15.0543  -24.6776  -43.0057 O.2       0 UNK        -0.5176 
      4 N          15.6713  -26.4271  -41.7191 N.am      1 UNK        -0.4884 
      5 CA         16.9364  -26.7309  -42.3966 C.3       1 UNK         0.0853 
      6 C6         17.4913  -28.1191  -41.9946 C.3       10 UNK        -0.0849 
      7 S7         16.3076  -29.4895  -42.2365 S.3       10 UNK        -0.2776 
      8 C8         16.4652  -29.8556  -44.0185 C.3       10 UNK         0.0316 
      9 C9         17.8934  -30.1279  -44.4825 C.ar      10 UNK        -0.0863 
     10 C10        18.7460  -30.9699  -43.7595 C.ar      10 UNK        -0.1009 
     11 C11        20.0545  -31.2109  -44.1943 C.ar      10 UNK        -0.0712 
     12 C12        20.5052  -30.6030  -45.3699 C.ar      10 UNK        -0.0894 
     13 C13        19.6637  -29.7603  -46.1027 C.ar      10 UNK        -0.0745 
     14 C14        18.3596  -29.5325  -45.6573 C.ar      10 UNK        -0.0972 
     15 C15        20.1578  -29.0866  -47.3744 C.3       10 UNK         0.0209 
     16 S16        20.4484  -27.3066  -47.1246 S.3       10 UNK        -0.2568 
     17 C17        21.9394  -27.3432  -46.0796 C.3       10 UNK        -0.0983 
     18 CA         22.2085  -25.9848  -45.3895 C.3       3 UNK         0.0876 
     19 N          21.1311  -25.6182  -44.4661 N.am      3 UNK        -0.4424 
     20 C          20.9099  -24.3741  -44.0233 C.2       2 UNK         0.4918 
     21 O          21.5628  -23.3983  -44.3976 O.2       2 UNK        -0.4875 
     22 CA         19.7719  -24.1802  -43.0047 C.3       2 UNK         0.0481 
     23 CB         19.1227  -22.7841  -43.1008 C.3       2 UNK        -0.1831 
     24 N          18.7421  -25.2193  -43.1169 N.am      2 UNK        -0.4498 
     25 C          17.9855  -25.6406  -42.0949 C.2       1 UNK         0.5027 
     26 O          18.1036  -25.2240  -40.9393 O.2       1 UNK        -0.4969 
     27 C          23.5532  -26.0499  -44.6437 C.2       3 UNK         0.5005 
     28 O          23.5872  -26.4265  -43.4682 O.2       3 UNK        -0.5279 
     29 N          24.6519  -25.7851  -45.3643 N.am      4 UNK        -0.4463 
     30 CA         26.0337  -25.9761  -44.9054 C.3       4 UNK         0.0283 
     31 CB         26.9695  -25.0821  -45.7403 C.3       4 UNK        -0.1875 
     32 C          26.4404  -27.4655  -44.9470 C.2       4 UNK         0.4949 
     33 O          27.4401  -27.8258  -45.5698 O.2       4 UNK        -0.5039 
     34 N          25.6269  -28.3056  -44.3026 N.am      5 UNK        -0.4663 
     35 CA         25.7274  -29.7607  -44.2611 C.3       5 UNK         0.0242 
     36 CB         25.0704  -30.3668  -45.5183 C.3       5 UNK        -0.1982 
     37 C          25.0866  -30.2435  -42.9545 C.2       5 UNK         0.5017 
     38 O          24.1341  -31.0230  -42.9808 O.2       5 UNK        -0.5012 
     39 N          25.5728  -29.6979  -41.8304 N.am      6 UNK        -0.4439 
     40 CA         25.1425  -29.9077  -40.4379 C.3       6 UNK         0.0297 
     41 CB         25.2639  -31.3891  -40.0264 C.3       6 UNK        -0.2006 
     42 C          23.7433  -29.3658  -40.0859 C.2       6 UNK         0.4892 
     43 O          23.5351  -28.9875  -38.9324 O.2       6 UNK        -0.5089 
     44 N          22.8129  -29.3586  -41.0514 N.am      7 UNK        -0.4243 
     45 CA         21.3940  -28.9762  -40.9814 C.3       7 UNK         0.0196 
     46 CB         21.2102  -27.5088  -40.5494 C.3       7 UNK        -0.2007 
     47 C          20.5454  -29.9364  -40.1288 C.2       7 UNK         0.5020 
     48 O          19.5165  -30.4155  -40.5984 O.2       7 UNK        -0.5147 
     49 N          21.0122  -30.2701  -38.9224 N.am      8 UNK        -0.4734 
     50 CA         20.4354  -31.2832  -38.0365 C.3       8 UNK         0.0238 
     51 CB         20.7655  -30.9085  -36.5793 C.3       8 UNK        -0.1912 
     52 C          20.9178  -32.7007  -38.4114 C.2       8 UNK         0.5038 
     53 O          21.3992  -33.4331  -37.5447 O.2       8 UNK        -0.5046 
     54 N          20.8030  -33.0579  -39.6976 N.am      9 UNK        -0.4200 
     55 CA         21.1866  -34.3698  -40.2458 C.3       9 UNK         0.0839 
     56 C          20.1705  -35.5178  -39.9714 C.2       9 UNK         0.5513 
     57 N          18.9839  -35.2476  -39.4399 N.am      9 UNK        -0.7519 
     58 O          20.4737  -36.6797  -40.2309 O.2       9 UNK        -0.4960 
     59 C59        21.5929  -34.2812  -41.7420 C.3       10 UNK        -0.0876 
     60 S60        20.2738  -33.6556  -42.8422 S.3       10 UNK        -0.2414 
     61 C61        21.0067  -32.0770  -43.3767 C.3       10 UNK         0.0169 
     62 H62        13.6046  -24.2464  -40.7429 H         1 UNK         0.0903 
     63 H63        12.7068  -25.3260  -41.8139 H         1 UNK         0.0903 
     64 H64        13.5369  -25.9760  -40.3988 H         1 UNK         0.0903 
     65 H65        15.4565  -27.0107  -40.9232 H         1 UNK         0.3096 
     66 H66        16.7425  -26.7371  -43.4715 H         1 UNK         0.1121 
     67 H67        17.7662  -28.1236  -40.9378 H         1 UNK         0.0849 
     68 H68        18.4139  -28.3383  -42.5343 H         1 UNK         0.0849 
     69 H69        15.8533  -30.7283  -44.2500 H         1 UNK         0.0865 
     70 H70        16.0319  -29.0239  -44.5760 H         1 UNK         0.0865 
     71 H71        18.3960  -31.4250  -42.8429 H         1 UNK         0.1346 
     72 H72        21.5183  -30.7735  -45.7076 H         1 UNK         0.1412 
     73 H73        17.7122  -28.8798  -46.2275 H         1 UNK         0.1426 
     74 H74        21.0729  -29.5572  -47.7375 H         1 UNK         0.0716 
     75 H75        19.4141  -29.2157  -48.1620 H         1 UNK         0.0716 
     76 H76        22.7779  -27.6310  -46.7173 H         1 UNK         0.0695 
     77 H77        21.8398  -28.1305  -45.3307 H         1 UNK         0.0695 
     78 H78        22.2816  -25.2125  -46.1591 H         1 UNK         0.0983 
     79 H79        20.6055  -26.3828  -44.0728 H         1 UNK         0.3095 
     80 H80        20.2490  -24.2638  -42.0259 H         1 UNK         0.0454 
     81 H81        18.3614  -22.6440  -42.3334 H         1 UNK         0.0851 
     82 H82        18.6514  -22.6286  -44.0717 H         1 UNK         0.0851 
     83 H83        19.8610  -21.9930  -42.9638 H         1 UNK         0.0851 
     84 H84        18.5763  -25.5831  -44.0460 H         1 UNK         0.2976 
     85 H85        24.5414  -25.5264  -46.3349 H         1 UNK         0.3116 
     86 H86        26.1071  -25.6512  -43.8652 H         1 UNK         0.0646 
     87 H87        26.6889  -24.0315  -45.6630 H         1 UNK         0.0847 
     88 H88        28.0006  -25.1650  -45.3940 H         1 UNK         0.0847 
     89 H89        26.9576  -25.3568  -46.7958 H         1 UNK         0.0847 
     90 H90        24.8383  -27.8944  -43.8075 H         1 UNK         0.3040 
     91 H91        26.7785  -30.0569  -44.2360 H         1 UNK         0.1015 
     92 H92        24.0200  -30.0846  -45.5983 H         1 UNK         0.0786 
     93 H93        25.1174  -31.4564  -45.4980 H         1 UNK         0.0786 
     94 H94        25.5747  -30.0387  -46.4273 H         1 UNK         0.0786 
     95 H95        26.3203  -29.0258  -41.9424 H         1 UNK         0.3172 
     96 H96        25.8498  -29.3421  -39.8291 H         1 UNK         0.0595 
     97 H97        24.5578  -32.0236  -40.5632 H         1 UNK         0.0839 
     98 H98        25.0603  -31.5140  -38.9619 H         1 UNK         0.0839 
     99 H99        26.2674  -31.7722  -40.2105 H         1 UNK         0.0839 
    100 H100       23.0996  -29.7869  -41.9267 H         1 UNK         0.2998 
    101 H101       21.0195  -29.0579  -42.0034 H         1 UNK         0.0822 
    102 H102       20.1582  -27.2254  -40.5731 H         1 UNK         0.0787 
    103 H103       21.5663  -27.3300  -39.5348 H         1 UNK         0.0787 
    104 H104       21.7444  -26.8318  -41.2166 H         1 UNK         0.0787 
    105 H105       21.8978  -29.8553  -38.6409 H         1 UNK         0.3055 
    106 H106       19.3482  -31.2772  -38.1436 H         1 UNK         0.1106 
    107 H107       20.3840  -29.9186  -36.3287 H         1 UNK         0.0828 
    108 H108       20.3136  -31.6135  -35.8802 H         1 UNK         0.0828 
    109 H109       21.8409  -30.9092  -36.3966 H         1 UNK         0.0828 
    110 H110       20.3648  -32.4103  -40.3413 H         1 UNK         0.2931 
    111 H111       22.0914  -34.6744  -39.7157 H         1 UNK         0.0412 
    112 H112       18.3389  -36.0016  -39.2618 H         1 UNK         0.3472 
    113 H113       18.7219  -34.2983  -39.2298 H         1 UNK         0.3472 
    114 H114       22.4754  -33.6460  -41.8368 H         1 UNK         0.0970 
    115 H115       21.9086  -35.2593  -42.1100 H         1 UNK         0.0970 
    116 H116       21.9084  -32.2979  -43.9500 H         1 UNK         0.0612 
    117 H117       21.3273  -31.5162  -42.5006 H         1 UNK         0.0612 
@<TRIPOS>BOND
     1    1    2 1    
     2    1   62 1    
     3    1   63 1    
     4    1   64 1    
     5    2    3 2    
     6    2    4 am   BACKBONE|DICT|INTERRES
     7    4    5 1    
     8    4   65 1    
     9    5    6 1    
    10    5   25 1    
    11    5   66 1    
    12    6    7 1    
    13    6   67 1    
    14    6   68 1    
    15    7    8 1    
    16    8    9 1    
    17    8   69 1    
    18    8   70 1    
    19    9   10 ar   
    20    9   14 ar   
    21   10   11 ar   
    22   10   71 1    
    23   11   12 ar   
    24   11   61 1    
    25   12   13 ar   
    26   12   72 1    
    27   13   14 ar   
    28   13   15 1    
    29   14   73 1    
    30   15   16 1    
    31   15   74 1    
    32   15   75 1    
    33   16   17 1    
    34   17   18 1    
    35   17   76 1    
    36   17   77 1    
    37   18   19 1    
    38   18   27 1    
    39   18   78 1    
    40   19   20 am   BACKBONE|DICT|INTERRES
    41   19   79 1    
    42   20   21 2    
    43   20   22 1    
    44   22   23 1    
    45   22   24 1    
    46   22   80 1    
    47   23   81 1    
    48   23   82 1    
    49   23   83 1    
    50   24   25 am   BACKBONE|DICT|INTERRES
    51   24   84 1    
    52   25   26 2    
    53   27   28 2    
    54   27   29 am   BACKBONE|DICT|INTERRES
    55   29   30 1    
    56   29   85 1    
    57   30   31 1    
    58   30   32 1    
    59   30   86 1    
    60   31   87 1    
    61   31   88 1    
    62   31   89 1    
    63   32   33 2    
    64   32   34 am   BACKBONE|DICT|INTERRES
    65   34   35 1    
    66   34   90 1    
    67   35   36 1    
    68   35   37 1    
    69   35   91 1    
    70   36   92 1    
    71   36   93 1    
    72   36   94 1    
    73   37   38 2    
    74   37   39 am   BACKBONE|DICT|INTERRES
    75   39   40 1    
    76   39   95 1    
    77   40   41 1    
    78   40   42 1    
    79   40   96 1    
    80   41   97 1    
    81   41   98 1    
    82   41   99 1    
    83   42   43 2    
    84   42   44 am   BACKBONE|DICT|INTERRES
    85   44   45 1    
    86   44  100 1    
    87   45   46 1    
    88   45   47 1    
    89   45  101 1    
    90   46  102 1    
    91   46  103 1    
    92   46  104 1    
    93   47   48 2    
    94   47   49 am   BACKBONE|DICT|INTERRES
    95   49   50 1    
    96   49  105 1    
    97   50   51 1    
    98   50   52 1    
    99   50  106 1    
   100   51  107 1    
   101   51  108 1    
   102   51  109 1    
   103   52   53 2    
   104   52   54 am   BACKBONE|DICT|INTERRES
   105   54   55 1    
   106   54  110 1    
   107   55   56 1    
   108   55   59 1    
   109   55  111 1    
   110   56   57 am   BACKBONE|DICT|INTERRES
   111   56   58 2    
   112   57  112 1    
   113   57  113 1    
   114   59   60 1    
   115   59  114 1    
   116   59  115 1    
   117   60   61 1    
   118   61  116 1    
   119   61  117 1    
@<TRIPOS>SUBSTRUCTURE
     1 UNK         1 GROUP             0       ****    0 ROOT    
