@<TRIPOS>MOLECULE
3R8
117   119    1
SMALL
USER_CHARGES


@<TRIPOS>ATOM
      1 CA         14.0515  -24.0785  -42.4173 C.3       0 UNK        -0.2013 
      2 C          14.7832  -24.2865  -43.7350 C.2       0 UNK         0.4866 
      3 O          14.6266  -23.4837  -44.6560 O.2       0 UNK        -0.5176 
      4 N          15.5728  -25.3625  -43.8357 N.am      1 UNK        -0.4884 
      5 CA         16.3878  -25.6976  -45.0091 C.3       1 UNK         0.0853 
      6 C6         16.9030  -27.1553  -44.9565 C.3       10 UNK        -0.0849 
      7 S7         15.5688  -28.3935  -44.8103 S.3       10 UNK        -0.2776 
      8 C8         16.4028  -29.9005  -45.4116 C.3       10 UNK         0.0316 
      9 C9         17.7238  -30.1408  -44.6939 C.ar      10 UNK        -0.0863 
     10 C10        17.7392  -30.6166  -43.3799 C.ar      10 UNK        -0.1009 
     11 C11        18.9512  -30.7910  -42.7061 C.ar      10 UNK        -0.0712 
     12 C12        20.1529  -30.4811  -43.3519 C.ar      10 UNK        -0.0894 
     13 C13        20.1504  -30.0133  -44.6694 C.ar      10 UNK        -0.0745 
     14 C14        18.9323  -29.8596  -45.3382 C.ar      10 UNK        -0.0972 
     15 C15        21.4617  -29.6992  -45.3792 C.3       10 UNK         0.0209 
     16 S16        21.5100  -28.0036  -46.0477 S.3       10 UNK        -0.2568 
     17 C17        21.7833  -27.0244  -44.5367 C.3       10 UNK        -0.0983 
     18 CA         21.9937  -25.5238  -44.8608 C.3       3 UNK         0.0876 
     19 N          20.7605  -24.8711  -45.3002 N.am      3 UNK        -0.4424 
     20 C          20.5228  -24.3900  -46.5242 C.2       2 UNK         0.4918 
     21 O          21.3065  -24.5065  -47.4682 O.2       2 UNK        -0.4875 
     22 CA         19.1797  -23.6551  -46.7245 C.3       2 UNK         0.0481 
     23 CB         19.0017  -23.1280  -48.1610 C.3       2 UNK        -0.1831 
     24 N          18.0296  -24.4983  -46.3847 N.am      2 UNK        -0.4498 
     25 C          17.5839  -24.7327  -45.1436 C.2       1 UNK         0.5027 
     26 O          18.1144  -24.2635  -44.1324 O.2       1 UNK        -0.4969 
     27 C          22.5058  -24.7573  -43.6309 C.2       3 UNK         0.5005 
     28 O          21.7043  -24.3444  -42.7883 O.2       3 UNK        -0.5279 
     29 N          23.8310  -24.5773  -43.5501 N.am      4 UNK        -0.4463 
     30 CA         24.5084  -23.8309  -42.4830 C.3       4 UNK         0.0283 
     31 CB         25.8663  -23.3352  -43.0088 C.3       4 UNK        -0.1875 
     32 C          24.7021  -24.6365  -41.1847 C.2       4 UNK         0.4949 
     33 O          25.0305  -24.0436  -40.1565 O.2       4 UNK        -0.5039 
     34 N          24.5178  -25.9589  -41.2470 N.am      5 UNK        -0.4663 
     35 CA         24.6502  -26.8941  -40.1345 C.3       5 UNK         0.0242 
     36 CB         26.1112  -27.3735  -40.0398 C.3       5 UNK        -0.1982 
     37 C          23.6916  -28.0695  -40.3584 C.2       5 UNK         0.5017 
     38 O          23.1551  -28.2207  -41.4594 O.2       5 UNK        -0.5012 
     39 N          23.5114  -28.8896  -39.3138 N.am      6 UNK        -0.4439 
     40 CA         22.6595  -30.0838  -39.3233 C.3       6 UNK         0.0297 
     41 CB         22.5515  -30.6459  -37.8966 C.3       6 UNK        -0.2006 
     42 C          23.1330  -31.1789  -40.2955 C.2       6 UNK         0.4892 
     43 O          22.2943  -31.8943  -40.8408 O.2       6 UNK        -0.5089 
     44 N          24.4550  -31.2807  -40.5043 N.am      7 UNK        -0.4243 
     45 CA         25.1293  -32.2178  -41.4086 C.3       7 UNK         0.0196 
     46 CB         24.8703  -31.8195  -42.8811 C.3       7 UNK        -0.2007 
     47 C          24.7735  -33.6817  -41.0809 C.2       7 UNK         0.5020 
     48 O          25.2597  -34.2076  -40.0793 O.2       7 UNK        -0.5147 
     49 N          23.9359  -34.3065  -41.9175 N.am      8 UNK        -0.4734 
     50 CA         23.4505  -35.6765  -41.7468 C.3       8 UNK         0.0238 
     51 CB         22.9945  -36.2132  -43.1142 C.3       8 UNK        -0.1912 
     52 C          22.3155  -35.8137  -40.7144 C.2       8 UNK         0.5038 
     53 O          22.0756  -36.9321  -40.2560 O.2       8 UNK        -0.5046 
     54 N          21.6193  -34.7155  -40.3868 N.am      9 UNK        -0.4200 
     55 CA         20.4966  -34.7033  -39.4354 C.3       9 UNK         0.0839 
     56 C          20.9648  -34.9199  -37.9715 C.2       9 UNK         0.5513 
     57 N          20.1766  -35.6192  -37.1665 N.am      9 UNK        -0.7519 
     58 O          22.0060  -34.4227  -37.5481 O.2       9 UNK        -0.4960 
     59 C59        19.6403  -33.4148  -39.5463 C.3       10 UNK        -0.0876 
     60 S60        19.0115  -33.1232  -41.2351 S.3       10 UNK        -0.2414 
     61 C61        18.9665  -31.3047  -41.2766 C.3       10 UNK         0.0169 
     62 H62        14.3457  -23.1289  -41.9711 H         1 UNK         0.0903 
     63 H63        12.9750  -24.0578  -42.5849 H         1 UNK         0.0903 
     64 H64        14.2677  -24.8711  -41.7011 H         1 UNK         0.0903 
     65 H65        15.6703  -25.9874  -43.0483 H         1 UNK         0.3096 
     66 H66        15.7576  -25.5848  -45.8946 H         1 UNK         0.1121 
     67 H67        17.5875  -27.2924  -44.1160 H         1 UNK         0.0849 
     68 H68        17.4783  -27.3784  -45.8574 H         1 UNK         0.0849 
     69 H69        15.7440  -30.7574  -45.2635 H         1 UNK         0.0865 
     70 H70        16.5577  -29.8184  -46.4886 H         1 UNK         0.0865 
     71 H71        16.8071  -30.8396  -42.8784 H         1 UNK         0.1346 
     72 H72        21.0902  -30.6117  -42.8277 H         1 UNK         0.1412 
     73 H73        18.9280  -29.4963  -46.3570 H         1 UNK         0.1426 
     74 H74        21.5867  -30.4026  -46.2034 H         1 UNK         0.0716 
     75 H75        22.3150  -29.8488  -44.7153 H         1 UNK         0.0716 
     76 H76        22.6600  -27.4368  -44.0339 H         1 UNK         0.0695 
     77 H77        20.9402  -27.1665  -43.8574 H         1 UNK         0.0695 
     78 H78        22.7547  -25.4399  -45.6401 H         1 UNK         0.0983 
     79 H79        20.0815  -24.6836  -44.5686 H         1 UNK         0.3095 
     80 H80        19.1884  -22.7886  -46.0598 H         1 UNK         0.0454 
     81 H81        19.8164  -22.4562  -48.4350 H         1 UNK         0.0851 
     82 H82        18.0741  -22.5651  -48.2657 H         1 UNK         0.0851 
     83 H83        18.9879  -23.9380  -48.8913 H         1 UNK         0.0851 
     84 H84        17.5717  -24.9553  -47.1608 H         1 UNK         0.2976 
     85 H85        24.4227  -24.9550  -44.2774 H         1 UNK         0.3116 
     86 H86        23.9047  -22.9557  -42.2327 H         1 UNK         0.0646 
     87 H87        26.3832  -22.7390  -42.2554 H         1 UNK         0.0847 
     88 H88        26.5247  -24.1633  -43.2743 H         1 UNK         0.0847 
     89 H89        25.7462  -22.7037  -43.8893 H         1 UNK         0.0847 
     90 H90        24.1698  -26.3733  -42.1020 H         1 UNK         0.3040 
     91 H91        24.3627  -26.3974  -39.2048 H         1 UNK         0.1015 
     92 H92        26.2537  -28.0545  -39.2001 H         1 UNK         0.0786 
     93 H93        26.7935  -26.5363  -39.8908 H         1 UNK         0.0786 
     94 H94        26.4211  -27.8985  -40.9445 H         1 UNK         0.0786 
     95 H95        23.9907  -28.6841  -38.4485 H         1 UNK         0.3172 
     96 H96        21.6630  -29.7731  -39.6430 H         1 UNK         0.0595 
     97 H97        22.1113  -29.9188  -37.2140 H         1 UNK         0.0839 
     98 H98        23.5256  -30.9348  -37.5000 H         1 UNK         0.0839 
     99 H99        21.9195  -31.5341  -37.8707 H         1 UNK         0.0839 
    100 H100       25.0594  -30.6663  -39.9786 H         1 UNK         0.2998 
    101 H101       26.1999  -32.1157  -41.2243 H         1 UNK         0.0822 
    102 H102       25.3790  -32.4969  -43.5684 H         1 UNK         0.0787 
    103 H103       23.8096  -31.8205  -43.1347 H         1 UNK         0.0787 
    104 H104       25.2488  -30.8172  -43.0829 H         1 UNK         0.0787 
    105 H105       23.5570  -33.7795  -42.6914 H         1 UNK         0.3055 
    106 H106       24.2787  -36.2970  -41.3964 H         1 UNK         0.1106 
    107 H107       23.8073  -36.1940  -43.8404 H         1 UNK         0.0828 
    108 H108       22.6584  -37.2482  -43.0354 H         1 UNK         0.0828 
    109 H109       22.1653  -35.6322  -43.5201 H         1 UNK         0.0828 
    110 H110       21.8966  -33.8117  -40.7585 H         1 UNK         0.2931 
    111 H111       19.8494  -35.5417  -39.7026 H         1 UNK         0.0412 
    112 H112       20.4542  -35.7571  -36.2069 H         1 UNK         0.3472 
    113 H113       19.3156  -36.0239  -37.5013 H         1 UNK         0.3472 
    114 H114       18.7810  -33.4691  -38.8753 H         1 UNK         0.0970 
    115 H115       20.2229  -32.5525  -39.2210 H         1 UNK         0.0970 
    116 H116       19.8293  -30.8923  -40.7546 H         1 UNK         0.0612 
    117 H117       18.0858  -30.9544  -40.7364 H         1 UNK         0.0612 
@<TRIPOS>BOND
     1    1    2 1    
     2    1   62 1    
     3    1   63 1    
     4    1   64 1    
     5    2    3 2    
     6    2    4 am   BACKBONE|DICT|INTERRES
     7    4    5 1    
     8    4   65 1    
     9    5    6 1    
    10    5   25 1    
    11    5   66 1    
    12    6    7 1    
    13    6   67 1    
    14    6   68 1    
    15    7    8 1    
    16    8    9 1    
    17    8   69 1    
    18    8   70 1    
    19    9   10 ar   
    20    9   14 ar   
    21   10   11 ar   
    22   10   71 1    
    23   11   12 ar   
    24   11   61 1    
    25   12   13 ar   
    26   12   72 1    
    27   13   14 ar   
    28   13   15 1    
    29   14   73 1    
    30   15   16 1    
    31   15   74 1    
    32   15   75 1    
    33   16   17 1    
    34   17   18 1    
    35   17   76 1    
    36   17   77 1    
    37   18   19 1    
    38   18   27 1    
    39   18   78 1    
    40   19   20 am   BACKBONE|DICT|INTERRES
    41   19   79 1    
    42   20   21 2    
    43   20   22 1    
    44   22   23 1    
    45   22   24 1    
    46   22   80 1    
    47   23   81 1    
    48   23   82 1    
    49   23   83 1    
    50   24   25 am   BACKBONE|DICT|INTERRES
    51   24   84 1    
    52   25   26 2    
    53   27   28 2    
    54   27   29 am   BACKBONE|DICT|INTERRES
    55   29   30 1    
    56   29   85 1    
    57   30   31 1    
    58   30   32 1    
    59   30   86 1    
    60   31   87 1    
    61   31   88 1    
    62   31   89 1    
    63   32   33 2    
    64   32   34 am   BACKBONE|DICT|INTERRES
    65   34   35 1    
    66   34   90 1    
    67   35   36 1    
    68   35   37 1    
    69   35   91 1    
    70   36   92 1    
    71   36   93 1    
    72   36   94 1    
    73   37   38 2    
    74   37   39 am   BACKBONE|DICT|INTERRES
    75   39   40 1    
    76   39   95 1    
    77   40   41 1    
    78   40   42 1    
    79   40   96 1    
    80   41   97 1    
    81   41   98 1    
    82   41   99 1    
    83   42   43 2    
    84   42   44 am   BACKBONE|DICT|INTERRES
    85   44   45 1    
    86   44  100 1    
    87   45   46 1    
    88   45   47 1    
    89   45  101 1    
    90   46  102 1    
    91   46  103 1    
    92   46  104 1    
    93   47   48 2    
    94   47   49 am   BACKBONE|DICT|INTERRES
    95   49   50 1    
    96   49  105 1    
    97   50   51 1    
    98   50   52 1    
    99   50  106 1    
   100   51  107 1    
   101   51  108 1    
   102   51  109 1    
   103   52   53 2    
   104   52   54 am   BACKBONE|DICT|INTERRES
   105   54   55 1    
   106   54  110 1    
   107   55   56 1    
   108   55   59 1    
   109   55  111 1    
   110   56   57 am   BACKBONE|DICT|INTERRES
   111   56   58 2    
   112   57  112 1    
   113   57  113 1    
   114   59   60 1    
   115   59  114 1    
   116   59  115 1    
   117   60   61 1    
   118   61  116 1    
   119   61  117 1    
@<TRIPOS>SUBSTRUCTURE
     1 UNK         1 GROUP             0       ****    0 ROOT    
