@<TRIPOS>MOLECULE
3R8
117   119    1
SMALL
USER_CHARGES


@<TRIPOS>ATOM
      1 CA         18.2091  -22.0492  -43.8955 C.3       0 UNK        -0.2013 
      2 C          18.7255  -23.2418  -44.6868 C.2       0 UNK         0.4866 
      3 O          19.6633  -23.0953  -45.4716 O.2       0 UNK        -0.5176 
      4 N          18.1153  -24.4168  -44.4900 N.am      1 UNK        -0.4884 
      5 CA         18.5243  -25.6912  -45.0900 C.3       1 UNK         0.0853 
      6 C6         17.3066  -26.6173  -45.3479 C.3       10 UNK        -0.0849 
      7 S7         16.3574  -27.0357  -43.8478 S.3       10 UNK        -0.2776 
      8 C8         15.5672  -28.5923  -44.3670 C.3       10 UNK         0.0316 
      9 C9         16.3902  -29.8135  -43.9800 C.ar      10 UNK        -0.0863 
     10 C10        16.9263  -30.6662  -44.9519 C.ar      10 UNK        -0.1009 
     11 C11        17.5892  -31.8425  -44.5777 C.ar      10 UNK        -0.0712 
     12 C12        17.7485  -32.1398  -43.2197 C.ar      10 UNK        -0.0894 
     13 C13        17.2160  -31.2920  -42.2421 C.ar      10 UNK        -0.0745 
     14 C14        16.5395  -30.1344  -42.6296 C.ar      10 UNK        -0.0972 
     15 C15        17.2967  -31.6603  -40.7690 C.3       10 UNK         0.0209 
     16 S16        18.8855  -31.1995  -40.0226 S.3       10 UNK        -0.2568 
     17 C17        18.7811  -29.3835  -39.8829 C.3       10 UNK        -0.0983 
     18 CA         20.0647  -28.7141  -40.4327 C.3       3 UNK         0.0876 
     19 N          20.0938  -28.6431  -41.9008 N.am      3 UNK        -0.4424 
     20 C          21.2280  -28.5039  -42.6003 C.2       2 UNK         0.4918 
     21 O          22.3426  -28.4836  -42.0810 O.2       2 UNK        -0.4875 
     22 CA         21.1360  -28.3604  -44.1268 C.3       2 UNK         0.0481 
     23 CB         21.1685  -29.7424  -44.7796 C.3       2 UNK        -0.1831 
     24 N          19.9802  -27.6146  -44.6257 N.am      2 UNK        -0.4498 
     25 C          19.6574  -26.3616  -44.2789 C.2       1 UNK         0.5027 
     26 O          20.2279  -25.7495  -43.3719 O.2       1 UNK        -0.4969 
     27 C          20.3271  -27.3455  -39.7683 C.2       3 UNK         0.5005 
     28 O          20.8617  -27.3232  -38.6591 O.2       3 UNK        -0.5279 
     29 N          20.0085  -26.2336  -40.4497 N.am      4 UNK        -0.4463 
     30 CA         20.3691  -24.8810  -40.0083 C.3       4 UNK         0.0283 
     31 CB         19.4642  -23.8420  -40.6901 C.3       4 UNK        -0.1875 
     32 C          21.8536  -24.5805  -40.2797 C.2       4 UNK         0.4949 
     33 O          22.4972  -23.9148  -39.4694 O.2       4 UNK        -0.5039 
     34 N          22.3778  -25.1112  -41.3941 N.am      5 UNK        -0.4663 
     35 CA         23.7926  -25.0473  -41.7779 C.3       5 UNK         0.0242 
     36 CB         23.9062  -25.3453  -43.2821 C.3       5 UNK        -0.1982 
     37 C          24.7025  -25.9996  -40.9736 C.2       5 UNK         0.5017 
     38 O          25.9237  -25.8864  -41.0808 O.2       5 UNK        -0.5012 
     39 N          24.0993  -26.9241  -40.2109 N.am      6 UNK        -0.4439 
     40 CA         24.7167  -27.9821  -39.3990 C.3       6 UNK         0.0297 
     41 CB         25.6310  -27.3923  -38.3042 C.3       6 UNK        -0.2006 
     42 C          25.4067  -29.0919  -40.2217 C.2       6 UNK         0.4892 
     43 O          26.2367  -29.8231  -39.6791 O.2       6 UNK        -0.5089 
     44 N          25.0277  -29.2273  -41.4990 N.am      7 UNK        -0.4243 
     45 CA         25.4138  -30.3334  -42.3796 C.3       7 UNK         0.0196 
     46 CB         25.4202  -29.8363  -43.8344 C.3       7 UNK        -0.2007 
     47 C          24.4611  -31.5319  -42.2265 C.2       7 UNK         0.5020 
     48 O          24.8838  -32.6755  -42.3979 O.2       7 UNK        -0.5147 
     49 N          23.1878  -31.2386  -41.9214 N.am      8 UNK        -0.4734 
     50 CA         22.0843  -32.1584  -41.6099 C.3       8 UNK         0.0238 
     51 CB         22.3195  -32.8138  -40.2337 C.3       8 UNK        -0.1912 
     52 C          21.7407  -33.1942  -42.6999 C.2       8 UNK         0.5038 
     53 O          21.1021  -34.2023  -42.3933 O.2       8 UNK        -0.5046 
     54 N          22.1656  -32.9318  -43.9432 N.am      9 UNK        -0.4200 
     55 CA         22.0687  -33.8329  -45.1035 C.3       9 UNK         0.0839 
     56 C          22.9209  -35.1325  -44.9584 C.2       9 UNK         0.5513 
     57 N          23.9494  -35.1528  -44.1165 N.am      9 UNK        -0.7519 
     58 O          22.6732  -36.1259  -45.6374 O.2       9 UNK        -0.4960 
     59 C59        20.6015  -34.0963  -45.5574 C.3       10 UNK        -0.0876 
     60 S60        19.7760  -32.5760  -46.1452 S.3       10 UNK        -0.2414 
     61 C61        18.0477  -32.8349  -45.6400 C.3       10 UNK         0.0169 
     62 H62        19.0132  -21.6195  -43.2985 H         1 UNK         0.0903 
     63 H63        17.8392  -21.2804  -44.5733 H         1 UNK         0.0903 
     64 H64        17.3988  -22.3266  -43.2214 H         1 UNK         0.0903 
     65 H65        17.3626  -24.4859  -43.8195 H         1 UNK         0.3096 
     66 H66        18.9638  -25.4762  -46.0669 H         1 UNK         0.1121 
     67 H67        16.6231  -26.1221  -46.0397 H         1 UNK         0.0849 
     68 H68        17.6092  -27.5331  -45.8581 H         1 UNK         0.0849 
     69 H69        15.3664  -28.5731  -45.4394 H         1 UNK         0.0865 
     70 H70        14.5918  -28.6627  -43.8832 H         1 UNK         0.0865 
     71 H71        16.7873  -30.4417  -46.0007 H         1 UNK         0.1346 
     72 H72        18.2520  -33.0507  -42.9243 H         1 UNK         0.1412 
     73 H73        16.0986  -29.4913  -41.8799 H         1 UNK         0.1426 
     74 H74        17.1618  -32.7373  -40.6593 H         1 UNK         0.0716 
     75 H75        16.4844  -31.1968  -40.2066 H         1 UNK         0.0716 
     76 H76        18.6457  -29.1656  -38.8214 H         1 UNK         0.0695 
     77 H77        17.8930  -28.9983  -40.3838 H         1 UNK         0.0695 
     78 H78        20.9085  -29.3340  -40.1187 H         1 UNK         0.0983 
     79 H79        19.2095  -28.6821  -42.3875 H         1 UNK         0.3095 
     80 H80        22.0223  -27.8172  -44.4580 H         1 UNK         0.0454 
     81 H81        21.0919  -29.6808  -45.8652 H         1 UNK         0.0851 
     82 H82        20.3534  -30.3689  -44.4156 H         1 UNK         0.0851 
     83 H83        22.1048  -30.2506  -44.5564 H         1 UNK         0.0851 
     84 H84        19.4479  -28.0629  -45.3567 H         1 UNK         0.2976 
     85 H85        19.6406  -26.3181  -41.3896 H         1 UNK         0.3116 
     86 H86        20.2035  -24.8093  -38.9310 H         1 UNK         0.0646 
     87 H87        19.6662  -22.8419  -40.3045 H         1 UNK         0.0847 
     88 H88        18.4099  -24.0517  -40.5103 H         1 UNK         0.0847 
     89 H89        19.6220  -23.8079  -41.7673 H         1 UNK         0.0847 
     90 H90        21.7478  -25.5728  -42.0428 H         1 UNK         0.3040 
     91 H91        24.1506  -24.0307  -41.6002 H         1 UNK         0.1015 
     92 H92        23.2723  -24.6809  -43.8700 H         1 UNK         0.0786 
     93 H93        23.6210  -26.3718  -43.5104 H         1 UNK         0.0786 
     94 H94        24.9307  -25.2087  -43.6309 H         1 UNK         0.0786 
     95 H95        23.0890  -26.9364  -40.2391 H         1 UNK         0.3172 
     96 H96        23.8852  -28.4738  -38.8917 H         1 UNK         0.0595 
     97 H97        26.5370  -26.9544  -38.7235 H         1 UNK         0.0839 
     98 H98        25.9428  -28.1627  -37.5980 H         1 UNK         0.0839 
     99 H99        25.1174  -26.6200  -37.7315 H         1 UNK         0.0839 
    100 H100       24.2924  -28.6138  -41.8334 H         1 UNK         0.2998 
    101 H101       26.4213  -30.6700  -42.1253 H         1 UNK         0.0822 
    102 H102       24.4449  -29.4555  -44.1393 H         1 UNK         0.0787 
    103 H103       26.1469  -29.0354  -43.9723 H         1 UNK         0.0787 
    104 H104       25.6900  -30.6395  -44.5217 H         1 UNK         0.0787 
    105 H105       22.9558  -30.2523  -41.8469 H         1 UNK         0.3055 
    106 H106       21.1982  -31.5313  -41.5361 H         1 UNK         0.1106 
    107 H107       23.1720  -33.4934  -40.2528 H         1 UNK         0.0828 
    108 H108       22.5035  -32.0638  -39.4645 H         1 UNK         0.0828 
    109 H109       21.4488  -33.3890  -39.9161 H         1 UNK         0.0828 
    110 H110       22.7153  -32.0993  -44.0837 H         1 UNK         0.2931 
    111 H111       22.5564  -33.2956  -45.9178 H         1 UNK         0.0412 
    112 H112       24.1812  -34.3393  -43.5584 H         1 UNK         0.3472 
    113 H113       24.5030  -35.9910  -44.0354 H         1 UNK         0.3472 
    114 H114       20.5739  -34.8074  -46.3847 H         1 UNK         0.0970 
    115 H115       20.0284  -34.5538  -44.7505 H         1 UNK         0.0970 
    116 H116       17.4176  -32.7409  -46.5257 H         1 UNK         0.0612 
    117 H117       17.9000  -33.8554  -45.2843 H         1 UNK         0.0612 
@<TRIPOS>BOND
     1    1    2 1    
     2    1   62 1    
     3    1   63 1    
     4    1   64 1    
     5    2    3 2    
     6    2    4 am   BACKBONE|DICT|INTERRES
     7    4    5 1    
     8    4   65 1    
     9    5    6 1    
    10    5   25 1    
    11    5   66 1    
    12    6    7 1    
    13    6   67 1    
    14    6   68 1    
    15    7    8 1    
    16    8    9 1    
    17    8   69 1    
    18    8   70 1    
    19    9   10 ar   
    20    9   14 ar   
    21   10   11 ar   
    22   10   71 1    
    23   11   12 ar   
    24   11   61 1    
    25   12   13 ar   
    26   12   72 1    
    27   13   14 ar   
    28   13   15 1    
    29   14   73 1    
    30   15   16 1    
    31   15   74 1    
    32   15   75 1    
    33   16   17 1    
    34   17   18 1    
    35   17   76 1    
    36   17   77 1    
    37   18   19 1    
    38   18   27 1    
    39   18   78 1    
    40   19   20 am   BACKBONE|DICT|INTERRES
    41   19   79 1    
    42   20   21 2    
    43   20   22 1    
    44   22   23 1    
    45   22   24 1    
    46   22   80 1    
    47   23   81 1    
    48   23   82 1    
    49   23   83 1    
    50   24   25 am   BACKBONE|DICT|INTERRES
    51   24   84 1    
    52   25   26 2    
    53   27   28 2    
    54   27   29 am   BACKBONE|DICT|INTERRES
    55   29   30 1    
    56   29   85 1    
    57   30   31 1    
    58   30   32 1    
    59   30   86 1    
    60   31   87 1    
    61   31   88 1    
    62   31   89 1    
    63   32   33 2    
    64   32   34 am   BACKBONE|DICT|INTERRES
    65   34   35 1    
    66   34   90 1    
    67   35   36 1    
    68   35   37 1    
    69   35   91 1    
    70   36   92 1    
    71   36   93 1    
    72   36   94 1    
    73   37   38 2    
    74   37   39 am   BACKBONE|DICT|INTERRES
    75   39   40 1    
    76   39   95 1    
    77   40   41 1    
    78   40   42 1    
    79   40   96 1    
    80   41   97 1    
    81   41   98 1    
    82   41   99 1    
    83   42   43 2    
    84   42   44 am   BACKBONE|DICT|INTERRES
    85   44   45 1    
    86   44  100 1    
    87   45   46 1    
    88   45   47 1    
    89   45  101 1    
    90   46  102 1    
    91   46  103 1    
    92   46  104 1    
    93   47   48 2    
    94   47   49 am   BACKBONE|DICT|INTERRES
    95   49   50 1    
    96   49  105 1    
    97   50   51 1    
    98   50   52 1    
    99   50  106 1    
   100   51  107 1    
   101   51  108 1    
   102   51  109 1    
   103   52   53 2    
   104   52   54 am   BACKBONE|DICT|INTERRES
   105   54   55 1    
   106   54  110 1    
   107   55   56 1    
   108   55   59 1    
   109   55  111 1    
   110   56   57 am   BACKBONE|DICT|INTERRES
   111   56   58 2    
   112   57  112 1    
   113   57  113 1    
   114   59   60 1    
   115   59  114 1    
   116   59  115 1    
   117   60   61 1    
   118   61  116 1    
   119   61  117 1    
@<TRIPOS>SUBSTRUCTURE
     1 UNK         1 GROUP             0       ****    0 ROOT    
