@<TRIPOS>MOLECULE
3R8
117   119    1
SMALL
USER_CHARGES


@<TRIPOS>ATOM
      1 CA         19.3317  -24.0921  -40.0844 C.3       0 UNK        -0.2013 
      2 C          18.6128  -24.1233  -41.4250 C.2       0 UNK         0.4866 
      3 O          17.5977  -23.4460  -41.5904 O.2       0 UNK        -0.5176 
      4 N          19.1382  -24.8991  -42.3779 N.am      1 UNK        -0.4884 
      5 CA         18.6320  -25.0424  -43.7456 C.3       1 UNK         0.0853 
      6 C6         17.9380  -26.4108  -43.9845 C.3       10 UNK        -0.0849 
      7 S7         16.5037  -26.7181  -42.9000 S.3       10 UNK        -0.2776 
      8 C8         15.5262  -27.8850  -43.9047 C.3       10 UNK         0.0316 
      9 C9         16.3211  -29.1306  -44.2757 C.ar      10 UNK        -0.0863 
     10 C10        16.6630  -30.0666  -43.2947 C.ar      10 UNK        -0.1009 
     11 C11        17.4134  -31.1995  -43.6248 C.ar      10 UNK        -0.0712 
     12 C12        17.8139  -31.3970  -44.9491 C.ar      10 UNK        -0.0894 
     13 C13        17.4823  -30.4668  -45.9384 C.ar      10 UNK        -0.0745 
     14 C14        16.7254  -29.3415  -45.5980 C.ar      10 UNK        -0.0972 
     15 C15        17.9630  -30.6709  -47.3692 C.3       10 UNK         0.0209 
     16 S16        19.1006  -29.3564  -47.9195 S.3       10 UNK        -0.2568 
     17 C17        20.4182  -29.4415  -46.6568 C.3       10 UNK        -0.0983 
     18 CA         21.4672  -28.3085  -46.8034 C.3       3 UNK         0.0876 
     19 N          20.8230  -26.9904  -46.8362 N.am      3 UNK        -0.4424 
     20 C          21.3572  -25.8524  -47.2972 C.2       2 UNK         0.4918 
     21 O          22.4611  -25.7837  -47.8364 O.2       2 UNK        -0.4875 
     22 CA         20.5377  -24.5629  -47.0762 C.3       2 UNK         0.0481 
     23 CB         19.8249  -24.1574  -48.3760 C.3       2 UNK        -0.1831 
     24 N          19.5498  -24.6433  -45.9874 N.am      2 UNK        -0.4498 
     25 C          19.8294  -24.9045  -44.7009 C.2       1 UNK         0.5027 
     26 O          20.9720  -25.1160  -44.2818 O.2       1 UNK        -0.4969 
     27 C          22.5481  -28.4294  -45.6982 C.2       3 UNK         0.5005 
     28 O          23.1611  -29.4916  -45.5858 O.2       3 UNK        -0.5279 
     29 N          22.7515  -27.3675  -44.8986 N.am      4 UNK        -0.4463 
     30 CA         23.6421  -27.2629  -43.7367 C.3       4 UNK         0.0283 
     31 CB         25.1131  -27.5621  -44.0989 C.3       4 UNK        -0.1875 
     32 C          23.1346  -28.0800  -42.5370 C.2       4 UNK         0.4949 
     33 O          23.9342  -28.6668  -41.8068 O.2       4 UNK        -0.5039 
     34 N          21.8083  -28.0978  -42.3427 N.am      5 UNK        -0.4663 
     35 CA         21.1385  -28.7622  -41.2215 C.3       5 UNK         0.0242 
     36 CB         19.6171  -28.6006  -41.3621 C.3       5 UNK        -0.1982 
     37 C          21.6199  -28.2231  -39.8624 C.2       5 UNK         0.5017 
     38 O          21.7470  -27.0066  -39.7126 O.2       5 UNK        -0.5012 
     39 N          21.8844  -29.1494  -38.9323 N.am      6 UNK        -0.4439 
     40 CA         22.5074  -29.0123  -37.6075 C.3       6 UNK         0.0297 
     41 CB         22.2256  -27.6760  -36.8902 C.3       6 UNK        -0.2006 
     42 C          24.0053  -29.3577  -37.6351 C.2       6 UNK         0.4892 
     43 O          24.5175  -29.8279  -36.6183 O.2       6 UNK        -0.5089 
     44 N          24.6683  -29.1854  -38.7885 N.am      7 UNK        -0.4243 
     45 CA         25.9482  -29.8325  -39.0905 C.3       7 UNK         0.0196 
     46 CB         26.8248  -28.9152  -39.9607 C.3       7 UNK        -0.2007 
     47 C          25.6588  -31.1736  -39.7814 C.2       7 UNK         0.5020 
     48 O          26.1272  -32.2159  -39.3231 O.2       7 UNK        -0.5147 
     49 N          24.8326  -31.1207  -40.8331 N.am      8 UNK        -0.4734 
     50 CA         24.1514  -32.2635  -41.4373 C.3       8 UNK         0.0238 
     51 CB         23.8770  -31.9347  -42.9168 C.3       8 UNK        -0.1912 
     52 C          22.8358  -32.5581  -40.6906 C.2       8 UNK         0.5038 
     53 O          22.4484  -31.8065  -39.7903 O.2       8 UNK        -0.5046 
     54 N          22.1526  -33.6303  -41.1096 N.am      9 UNK        -0.4200 
     55 CA         20.8471  -34.0877  -40.5926 C.3       9 UNK         0.0839 
     56 C          20.9160  -34.8014  -39.2085 C.2       9 UNK         0.5513 
     57 N          22.0918  -35.1334  -38.6889 N.am      9 UNK        -0.7519 
     58 O          19.8846  -35.0896  -38.6066 O.2       9 UNK        -0.4960 
     59 C59        19.7275  -33.0022  -40.6325 C.3       10 UNK        -0.0876 
     60 S60        19.5986  -32.1327  -42.2328 S.3       10 UNK        -0.2414 
     61 C61        17.8098  -32.2001  -42.5501 C.3       10 UNK         0.0169 
     62 H62        19.6336  -23.0735  -39.8424 H         1 UNK         0.0903 
     63 H63        18.6694  -24.4488  -39.2961 H         1 UNK         0.0903 
     64 H64        20.2235  -24.7190  -40.0849 H         1 UNK         0.0903 
     65 H65        20.0297  -25.3488  -42.2183 H         1 UNK         0.3096 
     66 H66        17.9308  -24.2359  -43.9723 H         1 UNK         0.1121 
     67 H67        18.6416  -27.2338  -43.8478 H         1 UNK         0.0849 
     68 H68        17.5932  -26.4785  -45.0180 H         1 UNK         0.0849 
     69 H69        14.6382  -28.1786  -43.3432 H         1 UNK         0.0865 
     70 H70        15.1649  -27.3731  -44.7981 H         1 UNK         0.0865 
     71 H71        16.3597  -29.8991  -42.2701 H         1 UNK         0.1346 
     72 H72        18.4055  -32.2668  -45.2005 H         1 UNK         0.1412 
     73 H73        16.4726  -28.6201  -46.3632 H         1 UNK         0.1426 
     74 H74        17.1000  -30.6941  -48.0360 H         1 UNK         0.0716 
     75 H75        18.4620  -31.6351  -47.4789 H         1 UNK         0.0716 
     76 H76        20.8938  -30.4212  -46.7334 H         1 UNK         0.0695 
     77 H77        19.9617  -29.3980  -45.6661 H         1 UNK         0.0695 
     78 H78        21.9837  -28.4492  -47.7554 H         1 UNK         0.0983 
     79 H79        19.8891  -26.9546  -46.4586 H         1 UNK         0.3095 
     80 H80        21.2454  -23.7733  -46.8155 H         1 UNK         0.0454 
     81 H81        19.3211  -23.1964  -48.2715 H         1 UNK         0.0851 
     82 H82        19.0822  -24.8971  -48.6777 H         1 UNK         0.0851 
     83 H83        20.5363  -24.0581  -49.1972 H         1 UNK         0.0851 
     84 H84        18.5867  -24.4893  -46.2524 H         1 UNK         0.2976 
     85 H85        22.1713  -26.5484  -45.0497 H         1 UNK         0.3116 
     86 H86        23.5950  -26.2189  -43.4235 H         1 UNK         0.0646 
     87 H87        25.2725  -28.6176  -44.3207 H         1 UNK         0.0847 
     88 H88        25.7750  -27.3069  -43.2705 H         1 UNK         0.0847 
     89 H89        25.4368  -26.9823  -44.9629 H         1 UNK         0.0847 
     90 H90        21.2286  -27.5746  -42.9799 H         1 UNK         0.3040 
     91 H91        21.3793  -29.8246  -41.2900 H         1 UNK         0.1015 
     92 H92        19.3090  -27.5570  -41.2956 H         1 UNK         0.0786 
     93 H93        19.0946  -29.1442  -40.5740 H         1 UNK         0.0786 
     94 H94        19.2621  -29.0000  -42.3120 H         1 UNK         0.0786 
     95 H95        21.8150  -30.1231  -39.2283 H         1 UNK         0.3172 
     96 H96        22.0349  -29.7920  -37.0080 H         1 UNK         0.0595 
     97 H97        22.7593  -26.8447  -37.3516 H         1 UNK         0.0839 
     98 H98        22.5513  -27.7231  -35.8504 H         1 UNK         0.0839 
     99 H99        21.1618  -27.4389  -36.8866 H         1 UNK         0.0839 
    100 H100       24.1656  -28.7998  -39.5784 H         1 UNK         0.2998 
    101 H101       26.4955  -30.0369  -38.1676 H         1 UNK         0.0822 
    102 H102       27.0266  -27.9702  -39.4563 H         1 UNK         0.0787 
    103 H103       27.7874  -29.3845  -40.1671 H         1 UNK         0.0787 
    104 H104       26.3646  -28.6871  -40.9216 H         1 UNK         0.0787 
    105 H105       24.5065  -30.2062  -41.1438 H         1 UNK         0.3055 
    106 H106       24.7933  -33.1451  -41.3760 H         1 UNK         0.1106 
    107 H107       23.4789  -32.7978  -43.4510 H         1 UNK         0.0828 
    108 H108       23.1523  -31.1263  -43.0248 H         1 UNK         0.0828 
    109 H109       24.7879  -31.6316  -43.4335 H         1 UNK         0.0828 
    110 H110       22.5400  -34.1937  -41.8522 H         1 UNK         0.2931 
    111 H111       20.5415  -34.8722  -41.2858 H         1 UNK         0.0412 
    112 H112       22.9467  -34.9096  -39.1721 H         1 UNK         0.3472 
    113 H113       22.1228  -35.6047  -37.7983 H         1 UNK         0.3472 
    114 H114       19.8862  -32.2544  -39.8542 H         1 UNK         0.0970 
    115 H115       18.7646  -33.4621  -40.4038 H         1 UNK         0.0970 
    116 H116       17.2697  -31.9943  -41.6246 H         1 UNK         0.0612 
    117 H117       17.5326  -33.2086  -42.8600 H         1 UNK         0.0612 
@<TRIPOS>BOND
     1    1    2 1    
     2    1   62 1    
     3    1   63 1    
     4    1   64 1    
     5    2    3 2    
     6    2    4 am   BACKBONE|DICT|INTERRES
     7    4    5 1    
     8    4   65 1    
     9    5    6 1    
    10    5   25 1    
    11    5   66 1    
    12    6    7 1    
    13    6   67 1    
    14    6   68 1    
    15    7    8 1    
    16    8    9 1    
    17    8   69 1    
    18    8   70 1    
    19    9   10 ar   
    20    9   14 ar   
    21   10   11 ar   
    22   10   71 1    
    23   11   12 ar   
    24   11   61 1    
    25   12   13 ar   
    26   12   72 1    
    27   13   14 ar   
    28   13   15 1    
    29   14   73 1    
    30   15   16 1    
    31   15   74 1    
    32   15   75 1    
    33   16   17 1    
    34   17   18 1    
    35   17   76 1    
    36   17   77 1    
    37   18   19 1    
    38   18   27 1    
    39   18   78 1    
    40   19   20 am   BACKBONE|DICT|INTERRES
    41   19   79 1    
    42   20   21 2    
    43   20   22 1    
    44   22   23 1    
    45   22   24 1    
    46   22   80 1    
    47   23   81 1    
    48   23   82 1    
    49   23   83 1    
    50   24   25 am   BACKBONE|DICT|INTERRES
    51   24   84 1    
    52   25   26 2    
    53   27   28 2    
    54   27   29 am   BACKBONE|DICT|INTERRES
    55   29   30 1    
    56   29   85 1    
    57   30   31 1    
    58   30   32 1    
    59   30   86 1    
    60   31   87 1    
    61   31   88 1    
    62   31   89 1    
    63   32   33 2    
    64   32   34 am   BACKBONE|DICT|INTERRES
    65   34   35 1    
    66   34   90 1    
    67   35   36 1    
    68   35   37 1    
    69   35   91 1    
    70   36   92 1    
    71   36   93 1    
    72   36   94 1    
    73   37   38 2    
    74   37   39 am   BACKBONE|DICT|INTERRES
    75   39   40 1    
    76   39   95 1    
    77   40   41 1    
    78   40   42 1    
    79   40   96 1    
    80   41   97 1    
    81   41   98 1    
    82   41   99 1    
    83   42   43 2    
    84   42   44 am   BACKBONE|DICT|INTERRES
    85   44   45 1    
    86   44  100 1    
    87   45   46 1    
    88   45   47 1    
    89   45  101 1    
    90   46  102 1    
    91   46  103 1    
    92   46  104 1    
    93   47   48 2    
    94   47   49 am   BACKBONE|DICT|INTERRES
    95   49   50 1    
    96   49  105 1    
    97   50   51 1    
    98   50   52 1    
    99   50  106 1    
   100   51  107 1    
   101   51  108 1    
   102   51  109 1    
   103   52   53 2    
   104   52   54 am   BACKBONE|DICT|INTERRES
   105   54   55 1    
   106   54  110 1    
   107   55   56 1    
   108   55   59 1    
   109   55  111 1    
   110   56   57 am   BACKBONE|DICT|INTERRES
   111   56   58 2    
   112   57  112 1    
   113   57  113 1    
   114   59   60 1    
   115   59  114 1    
   116   59  115 1    
   117   60   61 1    
   118   61  116 1    
   119   61  117 1    
@<TRIPOS>SUBSTRUCTURE
     1 UNK         1 GROUP             0       ****    0 ROOT    
