@<TRIPOS>MOLECULE
3R8
117   119    1
SMALL
USER_CHARGES


@<TRIPOS>ATOM
      1 CA         17.9864  -21.3876  -48.0240 C.3       0 UNK        -0.2013 
      2 C          18.8812  -22.1928  -47.0933 C.2       0 UNK         0.4866 
      3 O          19.5897  -21.6117  -46.2706 O.2       0 UNK        -0.5176 
      4 N          18.8614  -23.5256  -47.2210 N.am      1 UNK        -0.4884 
      5 CA         19.6028  -24.4553  -46.3642 C.3       1 UNK         0.0853 
      6 C6         19.6933  -25.8553  -47.0179 C.3       10 UNK        -0.0849 
      7 S7         20.9599  -26.9229  -46.2506 S.3       10 UNK        -0.2776 
      8 C8         20.5664  -28.5332  -47.0053 C.3       10 UNK         0.0316 
      9 C9         19.7398  -29.4243  -46.0856 C.ar      10 UNK        -0.0863 
     10 C10        20.3279  -30.5371  -45.4752 C.ar      10 UNK        -0.1009 
     11 C11        19.5638  -31.4043  -44.6881 C.ar      10 UNK        -0.0712 
     12 C12        18.2080  -31.1339  -44.4813 C.ar      10 UNK        -0.0894 
     13 C13        17.6113  -30.0155  -45.0712 C.ar      10 UNK        -0.0745 
     14 C14        18.3789  -29.1736  -45.8821 C.ar      10 UNK        -0.0972 
     15 C15        16.1323  -29.7264  -44.8546 C.3       10 UNK         0.0209 
     16 S16        15.8656  -28.2047  -43.8897 S.3       10 UNK        -0.2568 
     17 C17        16.5015  -28.6787  -42.2459 C.3       10 UNK        -0.0983 
     18 CA         17.9746  -28.2554  -42.0213 C.3       3 UNK         0.0876 
     19 N          18.1829  -26.8211  -42.2505 N.am      3 UNK        -0.4424 
     20 C          19.3785  -26.2214  -42.2777 C.2       2 UNK         0.4918 
     21 O          20.4492  -26.8121  -42.1414 O.2       2 UNK        -0.4875 
     22 CA         19.3870  -24.7093  -42.5352 C.3       2 UNK         0.0481 
     23 CB         20.3633  -23.9824  -41.5935 C.3       2 UNK        -0.1831 
     24 N          19.7888  -24.4782  -43.9189 N.am      2 UNK        -0.4498 
     25 C          18.9561  -24.5260  -44.9655 C.2       1 UNK         0.5027 
     26 O          17.7317  -24.6449  -44.8659 O.2       1 UNK        -0.4969 
     27 C          18.4489  -28.6714  -40.6131 C.2       3 UNK         0.5005 
     28 O          18.3787  -27.8651  -39.6815 O.2       3 UNK        -0.5279 
     29 N          18.9474  -29.9097  -40.4898 N.am      4 UNK        -0.4463 
     30 CA         19.5893  -30.5266  -39.3159 C.3       4 UNK         0.0283 
     31 CB         18.6892  -30.5028  -38.0655 C.3       4 UNK        -0.1875 
     32 C          20.9971  -29.9772  -39.0119 C.2       4 UNK         0.4949 
     33 O          21.8665  -30.7516  -38.6102 O.2       4 UNK        -0.5039 
     34 N          21.2133  -28.6784  -39.2485 N.am      5 UNK        -0.4663 
     35 CA         22.5201  -28.0263  -39.3266 C.3       5 UNK         0.0242 
     36 CB         22.3525  -26.5490  -38.9190 C.3       5 UNK        -0.1982 
     37 C          23.1091  -28.2025  -40.7434 C.2       5 UNK         0.5017 
     38 O          22.8033  -29.1976  -41.4049 O.2       5 UNK        -0.5012 
     39 N          23.9547  -27.2553  -41.1815 N.am      6 UNK        -0.4439 
     40 CA         24.5896  -27.1541  -42.5055 C.3       6 UNK         0.0297 
     41 CB         23.5411  -26.8197  -43.5894 C.3       6 UNK        -0.2006 
     42 C          25.4427  -28.3870  -42.8603 C.2       6 UNK         0.4892 
     43 O          26.6463  -28.3866  -42.6011 O.2       6 UNK        -0.5089 
     44 N          24.7938  -29.4224  -43.4092 N.am      7 UNK        -0.4243 
     45 CA         25.3478  -30.7591  -43.6368 C.3       7 UNK         0.0196 
     46 CB         24.3905  -31.5319  -44.5607 C.3       7 UNK        -0.2007 
     47 C          25.5850  -31.5530  -42.3351 C.2       7 UNK         0.5020 
     48 O          26.2955  -32.5574  -42.3743 O.2       7 UNK        -0.5147 
     49 N          24.9790  -31.1027  -41.2247 N.am      8 UNK        -0.4734 
     50 CA         24.9770  -31.7062  -39.8851 C.3       8 UNK         0.0238 
     51 CB         26.4029  -31.8125  -39.3027 C.3       8 UNK        -0.1912 
     52 C          24.1989  -33.0340  -39.8566 C.2       8 UNK         0.5038 
     53 O          24.6184  -33.9907  -39.2023 O.2       8 UNK        -0.5046 
     54 N          23.0804  -33.0590  -40.5896 N.am      9 UNK        -0.4200 
     55 CA         22.1586  -34.1934  -40.7183 C.3       9 UNK         0.0839 
     56 C          21.2578  -34.4676  -39.4789 C.2       9 UNK         0.5513 
     57 N          21.2086  -33.6001  -38.4760 N.am      9 UNK        -0.7519 
     58 O          20.6053  -35.5066  -39.4181 O.2       9 UNK        -0.4960 
     59 C59        21.3500  -34.1125  -42.0405 C.3       10 UNK        -0.0876 
     60 S60        20.5490  -32.4959  -42.3382 S.3       10 UNK        -0.2414 
     61 C61        20.1887  -32.6639  -44.1096 C.3       10 UNK         0.0169 
     62 H62        17.4271  -22.0267  -48.7071 H         1 UNK         0.0903 
     63 H63        17.2719  -20.8037  -47.4444 H         1 UNK         0.0903 
     64 H64        18.5863  -20.6993  -48.6188 H         1 UNK         0.0903 
     65 H65        18.2338  -23.9492  -47.8898 H         1 UNK         0.3096 
     66 H66        20.6170  -24.0614  -46.2616 H         1 UNK         0.1121 
     67 H67        19.9615  -25.7528  -48.0709 H         1 UNK         0.0849 
     68 H68        18.7222  -26.3509  -47.0037 H         1 UNK         0.0849 
     69 H69        20.0409  -28.3907  -47.9507 H         1 UNK         0.0865 
     70 H70        21.5054  -29.0265  -47.2614 H         1 UNK         0.0865 
     71 H71        21.3760  -30.7478  -45.6388 H         1 UNK         0.1346 
     72 H72        17.6172  -31.8045  -43.8721 H         1 UNK         0.1412 
     73 H73        17.9080  -28.3230  -46.3525 H         1 UNK         0.1426 
     74 H74        15.6352  -30.5617  -44.3588 H         1 UNK         0.0716 
     75 H75        15.6468  -29.6156  -45.8251 H         1 UNK         0.0716 
     76 H76        16.3864  -29.7570  -42.1195 H         1 UNK         0.0695 
     77 H77        15.8559  -28.2167  -41.4964 H         1 UNK         0.0695 
     78 H78        18.6017  -28.7780  -42.7468 H         1 UNK         0.0983 
     79 H79        17.3514  -26.2711  -42.4081 H         1 UNK         0.3095 
     80 H80        18.3873  -24.3044  -42.3627 H         1 UNK         0.0454 
     81 H81        21.3904  -24.3262  -41.7236 H         1 UNK         0.0851 
     82 H82        20.0932  -24.1515  -40.5504 H         1 UNK         0.0851 
     83 H83        20.3475  -22.9056  -41.7618 H         1 UNK         0.0851 
     84 H84        20.7828  -24.4316  -44.0906 H         1 UNK         0.2976 
     85 H85        18.9995  -30.4760  -41.3268 H         1 UNK         0.3116 
     86 H86        19.7202  -31.5731  -39.5904 H         1 UNK         0.0646 
     87 H87        18.5566  -29.4950  -37.6717 H         1 UNK         0.0847 
     88 H88        19.1273  -31.1023  -37.2666 H         1 UNK         0.0847 
     89 H89        17.7031  -30.9156  -38.2770 H         1 UNK         0.0847 
     90 H90        20.4231  -28.1368  -39.5799 H         1 UNK         0.3040 
     91 H91        23.2040  -28.5068  -38.6238 H         1 UNK         0.1015 
     92 H92        21.7632  -25.9949  -39.6510 H         1 UNK         0.0786 
     93 H93        23.3149  -26.0474  -38.8143 H         1 UNK         0.0786 
     94 H94        21.8482  -26.4622  -37.9562 H         1 UNK         0.0786 
     95 H95        24.1726  -26.5007  -40.5461 H         1 UNK         0.3172 
     96 H96        25.2775  -26.3088  -42.4516 H         1 UNK         0.0595 
     97 H97        22.7417  -27.5600  -43.6416 H         1 UNK         0.0839 
     98 H98        23.9985  -26.7607  -44.5779 H         1 UNK         0.0839 
     99 H99        23.0716  -25.8559  -43.3939 H         1 UNK         0.0839 
    100 H100       23.7902  -29.3324  -43.4983 H         1 UNK         0.2998 
    101 H101       26.3114  -30.6515  -44.1392 H         1 UNK         0.0822 
    102 H102       24.2500  -31.0151  -45.5103 H         1 UNK         0.0787 
    103 H103       24.7823  -32.5244  -44.7880 H         1 UNK         0.0787 
    104 H104       23.4099  -31.6663  -44.1015 H         1 UNK         0.0787 
    105 H105       24.3528  -30.3096  -41.3403 H         1 UNK         0.3055 
    106 H106       24.4199  -31.0210  -39.2449 H         1 UNK         0.1106 
    107 H107       26.3722  -32.1161  -38.2556 H         1 UNK         0.0828 
    108 H108       27.0076  -32.5486  -39.8329 H         1 UNK         0.0828 
    109 H109       26.9222  -30.8553  -39.3471 H         1 UNK         0.0828 
    110 H110       22.7974  -32.2150  -41.0669 H         1 UNK         0.2931 
    111 H111       22.7831  -35.0852  -40.8013 H         1 UNK         0.0412 
    112 H112       20.6346  -33.8089  -37.6753 H         1 UNK         0.3472 
    113 H113       21.6967  -32.7126  -38.5308 H         1 UNK         0.3472 
    114 H114       22.0300  -34.3083  -42.8712 H         1 UNK         0.0970 
    115 H115       20.5957  -34.9001  -42.0924 H         1 UNK         0.0970 
    116 H116       21.1091  -32.9066  -44.6430 H         1 UNK         0.0612 
    117 H117       19.5142  -33.5083  -44.2596 H         1 UNK         0.0612 
@<TRIPOS>BOND
     1    1    2 1    
     2    1   62 1    
     3    1   63 1    
     4    1   64 1    
     5    2    3 2    
     6    2    4 am   BACKBONE|DICT|INTERRES
     7    4    5 1    
     8    4   65 1    
     9    5    6 1    
    10    5   25 1    
    11    5   66 1    
    12    6    7 1    
    13    6   67 1    
    14    6   68 1    
    15    7    8 1    
    16    8    9 1    
    17    8   69 1    
    18    8   70 1    
    19    9   10 ar   
    20    9   14 ar   
    21   10   11 ar   
    22   10   71 1    
    23   11   12 ar   
    24   11   61 1    
    25   12   13 ar   
    26   12   72 1    
    27   13   14 ar   
    28   13   15 1    
    29   14   73 1    
    30   15   16 1    
    31   15   74 1    
    32   15   75 1    
    33   16   17 1    
    34   17   18 1    
    35   17   76 1    
    36   17   77 1    
    37   18   19 1    
    38   18   27 1    
    39   18   78 1    
    40   19   20 am   BACKBONE|DICT|INTERRES
    41   19   79 1    
    42   20   21 2    
    43   20   22 1    
    44   22   23 1    
    45   22   24 1    
    46   22   80 1    
    47   23   81 1    
    48   23   82 1    
    49   23   83 1    
    50   24   25 am   BACKBONE|DICT|INTERRES
    51   24   84 1    
    52   25   26 2    
    53   27   28 2    
    54   27   29 am   BACKBONE|DICT|INTERRES
    55   29   30 1    
    56   29   85 1    
    57   30   31 1    
    58   30   32 1    
    59   30   86 1    
    60   31   87 1    
    61   31   88 1    
    62   31   89 1    
    63   32   33 2    
    64   32   34 am   BACKBONE|DICT|INTERRES
    65   34   35 1    
    66   34   90 1    
    67   35   36 1    
    68   35   37 1    
    69   35   91 1    
    70   36   92 1    
    71   36   93 1    
    72   36   94 1    
    73   37   38 2    
    74   37   39 am   BACKBONE|DICT|INTERRES
    75   39   40 1    
    76   39   95 1    
    77   40   41 1    
    78   40   42 1    
    79   40   96 1    
    80   41   97 1    
    81   41   98 1    
    82   41   99 1    
    83   42   43 2    
    84   42   44 am   BACKBONE|DICT|INTERRES
    85   44   45 1    
    86   44  100 1    
    87   45   46 1    
    88   45   47 1    
    89   45  101 1    
    90   46  102 1    
    91   46  103 1    
    92   46  104 1    
    93   47   48 2    
    94   47   49 am   BACKBONE|DICT|INTERRES
    95   49   50 1    
    96   49  105 1    
    97   50   51 1    
    98   50   52 1    
    99   50  106 1    
   100   51  107 1    
   101   51  108 1    
   102   51  109 1    
   103   52   53 2    
   104   52   54 am   BACKBONE|DICT|INTERRES
   105   54   55 1    
   106   54  110 1    
   107   55   56 1    
   108   55   59 1    
   109   55  111 1    
   110   56   57 am   BACKBONE|DICT|INTERRES
   111   56   58 2    
   112   57  112 1    
   113   57  113 1    
   114   59   60 1    
   115   59  114 1    
   116   59  115 1    
   117   60   61 1    
   118   61  116 1    
   119   61  117 1    
@<TRIPOS>SUBSTRUCTURE
     1 UNK         1 GROUP             0       ****    0 ROOT    
