@<TRIPOS>MOLECULE
3R8
117   119    1
SMALL
USER_CHARGES


@<TRIPOS>ATOM
      1 CA         13.9806  -23.2660  -45.8567 C.3       0 UNK        -0.2013 
      2 C          14.8085  -24.5382  -45.9605 C.2       0 UNK         0.4866 
      3 O          14.9502  -25.0895  -47.0528 O.2       0 UNK        -0.5176 
      4 N          15.3479  -25.0142  -44.8316 N.am      1 UNK        -0.4884 
      5 CA         16.2090  -26.1986  -44.7515 C.3       1 UNK         0.0853 
      6 C6         16.4014  -26.6732  -43.2918 C.3       10 UNK        -0.0849 
      7 S7         14.8537  -27.1956  -42.4780 S.3       10 UNK        -0.2776 
      8 C8         14.8651  -29.0105  -42.7237 C.3       10 UNK         0.0316 
      9 C9         16.1257  -29.7370  -42.2470 C.ar      10 UNK        -0.0863 
     10 C10        16.5121  -30.9141  -42.8966 C.ar      10 UNK        -0.1009 
     11 C11        17.6714  -31.5948  -42.5148 C.ar      10 UNK        -0.0712 
     12 C12        18.4510  -31.0928  -41.4693 C.ar      10 UNK        -0.0894 
     13 C13        18.0832  -29.9169  -40.8121 C.ar      10 UNK        -0.0745 
     14 C14        16.9078  -29.2591  -41.1868 C.ar      10 UNK        -0.0972 
     15 C15        18.9598  -29.3512  -39.7023 C.3       10 UNK         0.0209 
     16 S16        20.6258  -28.8883  -40.2875 S.3       10 UNK        -0.2568 
     17 C17        20.2786  -27.5956  -41.5296 C.3       10 UNK        -0.0983 
     18 CA         21.0328  -27.8536  -42.8616 C.3       3 UNK         0.0876 
     19 N          20.2898  -27.3340  -44.0165 N.am      3 UNK        -0.4424 
     20 C          20.5618  -27.6150  -45.3002 C.2       2 UNK         0.4918 
     21 O          21.4999  -28.3298  -45.6517 O.2       2 UNK        -0.4875 
     22 CA         19.6071  -27.0298  -46.3617 C.3       2 UNK         0.0481 
     23 CB         19.6542  -27.8186  -47.6840 C.3       2 UNK        -0.1831 
     24 N          18.2250  -27.0077  -45.8727 N.am      2 UNK        -0.4498 
     25 C          17.5952  -25.9359  -45.3749 C.2       1 UNK         0.5027 
     26 O          18.0985  -24.8115  -45.3122 O.2       1 UNK        -0.4969 
     27 C          22.4813  -27.3236  -42.8035 C.2       3 UNK         0.5005 
     28 O          23.3858  -28.0687  -42.4283 O.2       3 UNK        -0.5279 
     29 N          22.6725  -26.0441  -43.1706 N.am      4 UNK        -0.4463 
     30 CA         23.9575  -25.3329  -43.2871 C.3       4 UNK         0.0283 
     31 CB         24.7426  -25.8669  -44.5040 C.3       4 UNK        -0.1875 
     32 C          24.8137  -25.3312  -42.0002 C.2       4 UNK         0.4949 
     33 O          26.0382  -25.2286  -42.0830 O.2       4 UNK        -0.5039 
     34 N          24.1524  -25.4673  -40.8400 N.am      5 UNK        -0.4663 
     35 CA         24.7216  -25.6455  -39.4964 C.3       5 UNK         0.0242 
     36 CB         25.4958  -24.3853  -39.0524 C.3       5 UNK        -0.1982 
     37 C          25.5469  -26.9414  -39.3223 C.2       5 UNK         0.5017 
     38 O          26.3345  -27.0295  -38.3780 O.2       5 UNK        -0.5012 
     39 N          25.3505  -27.9275  -40.2089 N.am      6 UNK        -0.4439 
     40 CA         25.9510  -29.2591  -40.1280 C.3       6 UNK         0.0297 
     41 CB         26.1345  -29.8020  -41.5564 C.3       6 UNK        -0.2006 
     42 C          25.0789  -30.2014  -39.2789 C.2       6 UNK         0.4892 
     43 O          23.9863  -29.8251  -38.8479 O.2       6 UNK        -0.5089 
     44 N          25.5796  -31.4245  -39.0565 N.am      7 UNK        -0.4243 
     45 CA         24.8883  -32.4836  -38.3114 C.3       7 UNK         0.0196 
     46 CB         25.8784  -33.6227  -38.0180 C.3       7 UNK        -0.2007 
     47 C          23.6359  -33.0316  -39.0233 C.2       7 UNK         0.5020 
     48 O          22.7358  -33.5368  -38.3518 O.2       7 UNK        -0.5147 
     49 N          23.5958  -32.9262  -40.3558 N.am      8 UNK        -0.4734 
     50 CA         22.4777  -33.3076  -41.2125 C.3       8 UNK         0.0238 
     51 CB         22.4994  -34.8268  -41.4677 C.3       8 UNK        -0.1912 
     52 C          22.5839  -32.5243  -42.5261 C.2       8 UNK         0.5038 
     53 O          23.6696  -32.0453  -42.8626 O.2       8 UNK        -0.5046 
     54 N          21.4633  -32.4329  -43.2496 N.am      9 UNK        -0.4200 
     55 CA         21.3506  -31.7515  -44.5480 C.3       9 UNK         0.0839 
     56 C          21.9403  -32.5299  -45.7622 C.2       9 UNK         0.5513 
     57 N          22.3922  -33.7689  -45.6058 N.am      9 UNK        -0.7519 
     58 O          21.9984  -31.9956  -46.8665 O.2       9 UNK        -0.4960 
     59 C59        19.9010  -31.2570  -44.7986 C.3       10 UNK        -0.0876 
     60 S60        18.6417  -32.5777  -44.9499 S.3       10 UNK        -0.2414 
     61 C61        18.0877  -32.8691  -43.2349 C.3       10 UNK         0.0169 
     62 H62        12.9639  -23.4504  -46.2028 H         1 UNK         0.0903 
     63 H63        13.9280  -22.8957  -44.8330 H         1 UNK         0.0903 
     64 H64        14.4158  -22.4838  -46.4781 H         1 UNK         0.0903 
     65 H65        15.2045  -24.5199  -43.9625 H         1 UNK         0.3096 
     66 H66        15.7284  -26.9991  -45.3191 H         1 UNK         0.1121 
     67 H67        17.1192  -27.4928  -43.2527 H         1 UNK         0.0849 
     68 H68        16.8378  -25.8750  -42.6876 H         1 UNK         0.0849 
     69 H69        14.0052  -29.4354  -42.2045 H         1 UNK         0.0865 
     70 H70        14.7067  -29.2041  -43.7858 H         1 UNK         0.0865 
     71 H71        15.9169  -31.3009  -43.7130 H         1 UNK         0.1346 
     72 H72        19.3557  -31.6034  -41.1713 H         1 UNK         0.1412 
     73 H73        16.6190  -28.3559  -40.6676 H         1 UNK         0.1426 
     74 H74        19.0595  -30.0979  -38.9135 H         1 UNK         0.0716 
     75 H75        18.4937  -28.4787  -39.2417 H         1 UNK         0.0716 
     76 H76        20.5187  -26.6183  -41.1064 H         1 UNK         0.0695 
     77 H77        19.2035  -27.5746  -41.7076 H         1 UNK         0.0695 
     78 H78        21.1053  -28.9332  -43.0095 H         1 UNK         0.0983 
     79 H79        19.5150  -26.7201  -43.8183 H         1 UNK         0.3095 
     80 H80        19.9498  -26.0146  -46.5709 H         1 UNK         0.0454 
     81 H81        19.3775  -28.8640  -47.5430 H         1 UNK         0.0851 
     82 H82        20.6555  -27.8020  -48.1165 H         1 UNK         0.0851 
     83 H83        18.9792  -27.3900  -48.4249 H         1 UNK         0.0851 
     84 H84        17.7517  -27.9008  -45.8554 H         1 UNK         0.2976 
     85 H85        21.8573  -25.5114  -43.4411 H         1 UNK         0.3116 
     86 H86        23.7120  -24.2884  -43.4845 H         1 UNK         0.0646 
     87 H87        25.0759  -26.8936  -44.3474 H         1 UNK         0.0847 
     88 H88        25.6295  -25.2627  -44.6985 H         1 UNK         0.0847 
     89 H89        24.1355  -25.8474  -45.4090 H         1 UNK         0.0847 
     90 H90        23.1466  -25.5450  -40.8960 H         1 UNK         0.3040 
     91 H91        23.8689  -25.7561  -38.8244 H         1 UNK         0.1015 
     92 H92        24.8922  -23.4856  -39.1713 H         1 UNK         0.0786 
     93 H93        26.4151  -24.2515  -39.6233 H         1 UNK         0.0786 
     94 H94        25.7757  -24.4475  -38.0001 H         1 UNK         0.0786 
     95 H95        24.6456  -27.8066  -40.9322 H         1 UNK         0.3172 
     96 H96        26.9341  -29.1877  -39.6581 H         1 UNK         0.0595 
     97 H97        25.1767  -29.9711  -42.0490 H         1 UNK         0.0839 
     98 H98        26.6730  -30.7500  -41.5600 H         1 UNK         0.0839 
     99 H99        26.7051  -29.1075  -42.1733 H         1 UNK         0.0839 
    100 H100       26.4874  -31.6556  -39.4343 H         1 UNK         0.2998 
    101 H101       24.5602  -32.0628  -37.3584 H         1 UNK         0.0822 
    102 H102       26.7315  -33.2692  -37.4385 H         1 UNK         0.0787 
    103 H103       25.4013  -34.4143  -37.4382 H         1 UNK         0.0787 
    104 H104       26.2574  -34.0750  -38.9355 H         1 UNK         0.0787 
    105 H105       24.3490  -32.4570  -40.8440 H         1 UNK         0.3055 
    106 H106       21.5440  -33.0282  -40.7188 H         1 UNK         0.1106 
    107 H107       21.6693  -35.1336  -42.1050 H         1 UNK         0.0828 
    108 H108       23.4225  -35.1383  -41.9582 H         1 UNK         0.0828 
    109 H109       22.4115  -35.3880  -40.5373 H         1 UNK         0.0828 
    110 H110       20.6288  -32.9011  -42.9335 H         1 UNK         0.2931 
    111 H111       21.9650  -30.8516  -44.4769 H         1 UNK         0.0412 
    112 H112       22.3574  -34.2177  -44.7056 H         1 UNK         0.3472 
    113 H113       22.7745  -34.2580  -46.4000 H         1 UNK         0.3472 
    114 H114       19.8701  -30.6731  -45.7200 H         1 UNK         0.0970 
    115 H115       19.6085  -30.5542  -44.0196 H         1 UNK         0.0970 
    116 H116       17.2392  -33.5544  -43.2591 H         1 UNK         0.0612 
    117 H117       18.8721  -33.3883  -42.6842 H         1 UNK         0.0612 
@<TRIPOS>BOND
     1    1    2 1    
     2    1   62 1    
     3    1   63 1    
     4    1   64 1    
     5    2    3 2    
     6    2    4 am   BACKBONE|DICT|INTERRES
     7    4    5 1    
     8    4   65 1    
     9    5    6 1    
    10    5   25 1    
    11    5   66 1    
    12    6    7 1    
    13    6   67 1    
    14    6   68 1    
    15    7    8 1    
    16    8    9 1    
    17    8   69 1    
    18    8   70 1    
    19    9   10 ar   
    20    9   14 ar   
    21   10   11 ar   
    22   10   71 1    
    23   11   12 ar   
    24   11   61 1    
    25   12   13 ar   
    26   12   72 1    
    27   13   14 ar   
    28   13   15 1    
    29   14   73 1    
    30   15   16 1    
    31   15   74 1    
    32   15   75 1    
    33   16   17 1    
    34   17   18 1    
    35   17   76 1    
    36   17   77 1    
    37   18   19 1    
    38   18   27 1    
    39   18   78 1    
    40   19   20 am   BACKBONE|DICT|INTERRES
    41   19   79 1    
    42   20   21 2    
    43   20   22 1    
    44   22   23 1    
    45   22   24 1    
    46   22   80 1    
    47   23   81 1    
    48   23   82 1    
    49   23   83 1    
    50   24   25 am   BACKBONE|DICT|INTERRES
    51   24   84 1    
    52   25   26 2    
    53   27   28 2    
    54   27   29 am   BACKBONE|DICT|INTERRES
    55   29   30 1    
    56   29   85 1    
    57   30   31 1    
    58   30   32 1    
    59   30   86 1    
    60   31   87 1    
    61   31   88 1    
    62   31   89 1    
    63   32   33 2    
    64   32   34 am   BACKBONE|DICT|INTERRES
    65   34   35 1    
    66   34   90 1    
    67   35   36 1    
    68   35   37 1    
    69   35   91 1    
    70   36   92 1    
    71   36   93 1    
    72   36   94 1    
    73   37   38 2    
    74   37   39 am   BACKBONE|DICT|INTERRES
    75   39   40 1    
    76   39   95 1    
    77   40   41 1    
    78   40   42 1    
    79   40   96 1    
    80   41   97 1    
    81   41   98 1    
    82   41   99 1    
    83   42   43 2    
    84   42   44 am   BACKBONE|DICT|INTERRES
    85   44   45 1    
    86   44  100 1    
    87   45   46 1    
    88   45   47 1    
    89   45  101 1    
    90   46  102 1    
    91   46  103 1    
    92   46  104 1    
    93   47   48 2    
    94   47   49 am   BACKBONE|DICT|INTERRES
    95   49   50 1    
    96   49  105 1    
    97   50   51 1    
    98   50   52 1    
    99   50  106 1    
   100   51  107 1    
   101   51  108 1    
   102   51  109 1    
   103   52   53 2    
   104   52   54 am   BACKBONE|DICT|INTERRES
   105   54   55 1    
   106   54  110 1    
   107   55   56 1    
   108   55   59 1    
   109   55  111 1    
   110   56   57 am   BACKBONE|DICT|INTERRES
   111   56   58 2    
   112   57  112 1    
   113   57  113 1    
   114   59   60 1    
   115   59  114 1    
   116   59  115 1    
   117   60   61 1    
   118   61  116 1    
   119   61  117 1    
@<TRIPOS>SUBSTRUCTURE
     1 UNK         1 GROUP             0       ****    0 ROOT    
