@<TRIPOS>MOLECULE
3R8
117   119    1
SMALL
USER_CHARGES


@<TRIPOS>ATOM
      1 CA         24.1435  -25.8931  -45.6880 C.3       0 UNK        -0.2013 
      2 C          23.1734  -24.7435  -45.9553 C.2       0 UNK         0.4866 
      3 O          23.5499  -23.7944  -46.6398 O.2       0 UNK        -0.5176 
      4 N          21.9339  -24.7635  -45.4512 N.am      1 UNK        -0.4884 
      5 CA         21.2925  -25.7858  -44.6241 C.3       1 UNK         0.0853 
      6 C6         21.0374  -27.1233  -45.3806 C.3       10 UNK        -0.0849 
      7 S7         19.9855  -26.9828  -46.8671 S.3       10 UNK        -0.2776 
      8 C8         20.1865  -28.6361  -47.6071 C.3       10 UNK         0.0316 
      9 C9         19.4428  -29.7088  -46.8229 C.ar      10 UNK        -0.0863 
     10 C10        20.1424  -30.7063  -46.1357 C.ar      10 UNK        -0.1009 
     11 C11        19.4527  -31.6965  -45.4281 C.ar      10 UNK        -0.0712 
     12 C12        18.0541  -31.6859  -45.4113 C.ar      10 UNK        -0.0894 
     13 C13        17.3461  -30.6715  -46.0646 C.ar      10 UNK        -0.0745 
     14 C14        18.0456  -29.7022  -46.7887 C.ar      10 UNK        -0.0972 
     15 C15        15.8325  -30.5769  -45.9358 C.3       10 UNK         0.0209 
     16 S16        15.3385  -29.1492  -44.9087 S.3       10 UNK        -0.2568 
     17 C17        15.9021  -29.6499  -43.2448 C.3       10 UNK        -0.0983 
     18 CA         17.3785  -29.2625  -42.9606 C.3       3 UNK         0.0876 
     19 N          17.6817  -27.8294  -43.1090 N.am      3 UNK        -0.4424 
     20 C          17.3644  -26.8432  -42.2552 C.2       2 UNK         0.4918 
     21 O          16.5636  -26.9676  -41.3281 O.2       2 UNK        -0.4875 
     22 CA         18.1476  -25.5256  -42.4204 C.3       2 UNK         0.0481 
     23 CB         18.3094  -24.7760  -41.0849 C.3       2 UNK        -0.1831 
     24 N          19.4779  -25.7920  -42.9833 N.am      2 UNK        -0.4498 
     25 C          19.9868  -25.1906  -44.0641 C.2       1 UNK         0.5027 
     26 O          19.4572  -24.2314  -44.6335 O.2       1 UNK        -0.4969 
     27 C          17.9294  -29.8271  -41.6311 C.2       3 UNK         0.5005 
     28 O          17.2776  -30.6311  -40.9629 O.2       3 UNK        -0.5279 
     29 N          19.1259  -29.3340  -41.2934 N.am      4 UNK        -0.4463 
     30 CA         19.9199  -29.4128  -40.0768 C.3       4 UNK         0.0283 
     31 CB         19.0565  -29.3103  -38.7962 C.3       4 UNK        -0.1875 
     32 C          20.9144  -28.2412  -40.2047 C.2       4 UNK         0.4949 
     33 O          21.1711  -27.7799  -41.3270 O.2       4 UNK        -0.5039 
     34 N          21.4347  -27.7592  -39.0682 N.am      5 UNK        -0.4663 
     35 CA         22.3895  -26.6539  -38.9371 C.3       5 UNK         0.0242 
     36 CB         21.7537  -25.3159  -39.3841 C.3       5 UNK        -0.1982 
     37 C          23.7163  -26.9989  -39.6325 C.2       5 UNK         0.5017 
     38 O          24.3159  -28.0160  -39.2851 O.2       5 UNK        -0.5012 
     39 N          24.1356  -26.1855  -40.6096 N.am      6 UNK        -0.4439 
     40 CA         25.3771  -26.3371  -41.3752 C.3       6 UNK         0.0297 
     41 CB         25.5435  -25.1243  -42.3040 C.3       6 UNK        -0.2006 
     42 C          25.5068  -27.6554  -42.1655 C.2       6 UNK         0.4892 
     43 O          26.6316  -28.0541  -42.4680 O.2       6 UNK        -0.5089 
     44 N          24.3797  -28.3152  -42.4729 N.am      7 UNK        -0.4243 
     45 CA         24.3595  -29.6435  -43.0943 C.3       7 UNK         0.0196 
     46 CB         23.0105  -29.8632  -43.7947 C.3       7 UNK        -0.2007 
     47 C          24.6319  -30.7879  -42.1026 C.2       7 UNK         0.5020 
     48 O          24.9915  -31.8791  -42.5433 O.2       7 UNK        -0.5147 
     49 N          24.4235  -30.5402  -40.7989 N.am      8 UNK        -0.4734 
     50 CA         24.5671  -31.4729  -39.6691 C.3       8 UNK         0.0238 
     51 CB         26.0424  -31.8922  -39.4962 C.3       8 UNK        -0.1912 
     52 C          23.6197  -32.6936  -39.6985 C.2       8 UNK         0.5038 
     53 O          23.8026  -33.6131  -38.8993 O.2       8 UNK        -0.5046 
     54 N          22.6231  -32.6846  -40.5928 N.am      9 UNK        -0.4200 
     55 CA         21.6401  -33.7598  -40.7949 C.3       9 UNK         0.0839 
     56 C          20.4503  -33.7699  -39.7891 C.2       9 UNK         0.5513 
     57 N          20.4060  -32.8887  -38.7971 N.am      9 UNK        -0.7519 
     58 O          19.5624  -34.6119  -39.8954 O.2       9 UNK        -0.4960 
     59 C59        21.1894  -33.8399  -42.2788 C.3       10 UNK        -0.0876 
     60 S60        20.4209  -32.3130  -42.9173 S.3       10 UNK        -0.2414 
     61 C61        20.2131  -32.7702  -44.6657 C.3       10 UNK         0.0169 
     62 H62        24.1329  -26.5901  -46.5248 H         1 UNK         0.0903 
     63 H63        25.1581  -25.5086  -45.5895 H         1 UNK         0.0903 
     64 H64        23.9192  -26.4455  -44.7789 H         1 UNK         0.0903 
     65 H65        21.3097  -23.9878  -45.6418 H         1 UNK         0.3096 
     66 H66        21.9376  -25.9779  -43.7645 H         1 UNK         0.1121 
     67 H67        20.6019  -27.8676  -44.7118 H         1 UNK         0.0849 
     68 H68        21.9842  -27.5447  -45.7079 H         1 UNK         0.0849 
     69 H69        21.2481  -28.8738  -47.6917 H         1 UNK         0.0865 
     70 H70        19.7995  -28.6127  -48.6268 H         1 UNK         0.0865 
     71 H71        21.2235  -30.7134  -46.1494 H         1 UNK         0.1346 
     72 H72        17.5214  -32.4376  -44.8448 H         1 UNK         0.1412 
     73 H73        17.5014  -28.9167  -47.2959 H         1 UNK         0.1426 
     74 H74        15.4142  -31.4927  -45.5153 H         1 UNK         0.0716 
     75 H75        15.3946  -30.4661  -46.9287 H         1 UNK         0.0716 
     76 H76        15.7604  -30.7276  -43.1463 H         1 UNK         0.0695 
     77 H77        15.2438  -29.1883  -42.5071 H         1 UNK         0.0695 
     78 H78        18.0018  -29.7414  -43.7080 H         1 UNK         0.0983 
     79 H79        18.2816  -27.5957  -43.8863 H         1 UNK         0.3095 
     80 H80        17.5619  -24.9014  -43.0977 H         1 UNK         0.0454 
     81 H81        17.3405  -24.4865  -40.6769 H         1 UNK         0.0851 
     82 H82        18.8920  -23.8634  -41.2095 H         1 UNK         0.0851 
     83 H83        18.8070  -25.3939  -40.3370 H         1 UNK         0.0851 
     84 H84        20.0172  -26.5188  -42.5244 H         1 UNK         0.2976 
     85 H85        19.5719  -28.7105  -41.9541 H         1 UNK         0.3116 
     86 H86        20.4795  -30.3479  -40.0850 H         1 UNK         0.0646 
     87 H87        18.3544  -30.1391  -38.7164 H         1 UNK         0.0847 
     88 H88        18.4823  -28.3834  -38.7700 H         1 UNK         0.0847 
     89 H89        19.6642  -29.3524  -37.8926 H         1 UNK         0.0847 
     90 H90        21.1817  -28.2136  -38.2021 H         1 UNK         0.3040 
     91 H91        22.6240  -26.5671  -37.8750 H         1 UNK         0.1015 
     92 H92        22.4253  -24.4772  -39.1956 H         1 UNK         0.0786 
     93 H93        20.8409  -25.1164  -38.8236 H         1 UNK         0.0786 
     94 H94        21.4943  -25.3046  -40.4428 H         1 UNK         0.0786 
     95 H95        23.5664  -25.3812  -40.8255 H         1 UNK         0.3172 
     96 H96        26.1990  -26.3243  -40.6573 H         1 UNK         0.0595 
     97 H97        24.6903  -25.0013  -42.9691 H         1 UNK         0.0839 
     98 H98        26.4334  -25.2234  -42.9266 H         1 UNK         0.0839 
     99 H99        25.6548  -24.2026  -41.7327 H         1 UNK         0.0839 
    100 H100       23.4933  -27.9324  -42.1720 H         1 UNK         0.2998 
    101 H101       25.1419  -29.6906  -43.8553 H         1 UNK         0.0822 
    102 H102       22.9153  -30.8883  -44.1555 H         1 UNK         0.0787 
    103 H103       22.9234  -29.2203  -44.6654 H         1 UNK         0.0787 
    104 H104       22.1651  -29.6696  -43.1342 H         1 UNK         0.0787 
    105 H105       24.1886  -29.5903  -40.5271 H         1 UNK         0.3055 
    106 H106       24.2846  -30.9055  -38.7806 H         1 UNK         0.1106 
    107 H107       26.6977  -31.0226  -39.4458 H         1 UNK         0.0828 
    108 H108       26.1861  -32.4561  -38.5737 H         1 UNK         0.0828 
    109 H109       26.3840  -32.5230  -40.3174 H         1 UNK         0.0828 
    110 H110       22.5393  -31.8936  -41.2129 H         1 UNK         0.2931 
    111 H111       22.1606  -34.6989  -40.5978 H         1 UNK         0.0412 
    112 H112       21.1515  -32.2263  -38.6691 H         1 UNK         0.3472 
    113 H113       19.6341  -32.9169  -38.1502 H         1 UNK         0.3472 
    114 H114       20.4975  -34.6712  -42.4261 H         1 UNK         0.0970 
    115 H115       22.0559  -34.0674  -42.9018 H         1 UNK         0.0970 
    116 H116       21.1937  -32.9336  -45.1154 H         1 UNK         0.0612 
    117 H117       19.6780  -33.7188  -44.7323 H         1 UNK         0.0612 
@<TRIPOS>BOND
     1    1    2 1    
     2    1   62 1    
     3    1   63 1    
     4    1   64 1    
     5    2    3 2    
     6    2    4 am   BACKBONE|DICT|INTERRES
     7    4    5 1    
     8    4   65 1    
     9    5    6 1    
    10    5   25 1    
    11    5   66 1    
    12    6    7 1    
    13    6   67 1    
    14    6   68 1    
    15    7    8 1    
    16    8    9 1    
    17    8   69 1    
    18    8   70 1    
    19    9   10 ar   
    20    9   14 ar   
    21   10   11 ar   
    22   10   71 1    
    23   11   12 ar   
    24   11   61 1    
    25   12   13 ar   
    26   12   72 1    
    27   13   14 ar   
    28   13   15 1    
    29   14   73 1    
    30   15   16 1    
    31   15   74 1    
    32   15   75 1    
    33   16   17 1    
    34   17   18 1    
    35   17   76 1    
    36   17   77 1    
    37   18   19 1    
    38   18   27 1    
    39   18   78 1    
    40   19   20 am   BACKBONE|DICT|INTERRES
    41   19   79 1    
    42   20   21 2    
    43   20   22 1    
    44   22   23 1    
    45   22   24 1    
    46   22   80 1    
    47   23   81 1    
    48   23   82 1    
    49   23   83 1    
    50   24   25 am   BACKBONE|DICT|INTERRES
    51   24   84 1    
    52   25   26 2    
    53   27   28 2    
    54   27   29 am   BACKBONE|DICT|INTERRES
    55   29   30 1    
    56   29   85 1    
    57   30   31 1    
    58   30   32 1    
    59   30   86 1    
    60   31   87 1    
    61   31   88 1    
    62   31   89 1    
    63   32   33 2    
    64   32   34 am   BACKBONE|DICT|INTERRES
    65   34   35 1    
    66   34   90 1    
    67   35   36 1    
    68   35   37 1    
    69   35   91 1    
    70   36   92 1    
    71   36   93 1    
    72   36   94 1    
    73   37   38 2    
    74   37   39 am   BACKBONE|DICT|INTERRES
    75   39   40 1    
    76   39   95 1    
    77   40   41 1    
    78   40   42 1    
    79   40   96 1    
    80   41   97 1    
    81   41   98 1    
    82   41   99 1    
    83   42   43 2    
    84   42   44 am   BACKBONE|DICT|INTERRES
    85   44   45 1    
    86   44  100 1    
    87   45   46 1    
    88   45   47 1    
    89   45  101 1    
    90   46  102 1    
    91   46  103 1    
    92   46  104 1    
    93   47   48 2    
    94   47   49 am   BACKBONE|DICT|INTERRES
    95   49   50 1    
    96   49  105 1    
    97   50   51 1    
    98   50   52 1    
    99   50  106 1    
   100   51  107 1    
   101   51  108 1    
   102   51  109 1    
   103   52   53 2    
   104   52   54 am   BACKBONE|DICT|INTERRES
   105   54   55 1    
   106   54  110 1    
   107   55   56 1    
   108   55   59 1    
   109   55  111 1    
   110   56   57 am   BACKBONE|DICT|INTERRES
   111   56   58 2    
   112   57  112 1    
   113   57  113 1    
   114   59   60 1    
   115   59  114 1    
   116   59  115 1    
   117   60   61 1    
   118   61  116 1    
   119   61  117 1    
@<TRIPOS>SUBSTRUCTURE
     1 UNK         1 GROUP             0       ****    0 ROOT    
