@<TRIPOS>MOLECULE
3R8
117   119    1
SMALL
USER_CHARGES


@<TRIPOS>ATOM
      1 CA         15.0422  -24.1265  -47.0813 C.3       0 UNK        -0.2013 
      2 C          16.1312  -23.5900  -46.1646 C.2       0 UNK         0.4866 
      3 O          16.0422  -22.4503  -45.7085 O.2       0 UNK        -0.5176 
      4 N          17.1570  -24.4054  -45.8844 N.am      1 UNK        -0.4884 
      5 CA         18.3023  -24.0508  -45.0324 C.3       1 UNK         0.0853 
      6 C6         19.5748  -24.8426  -45.4512 C.3       10 UNK        -0.0849 
      7 S7         19.6884  -26.5526  -44.8157 S.3       10 UNK        -0.2776 
      8 C8         19.0963  -27.5650  -46.2056 C.3       10 UNK         0.0316 
      9 C9         19.0180  -29.0173  -45.7632 C.ar      10 UNK        -0.0863 
     10 C10        20.0318  -29.9184  -46.0960 C.ar      10 UNK        -0.1009 
     11 C11        20.0058  -31.2314  -45.6159 C.ar      10 UNK        -0.0712 
     12 C12        18.9597  -31.6266  -44.7707 C.ar      10 UNK        -0.0894 
     13 C13        17.9420  -30.7328  -44.4190 C.ar      10 UNK        -0.0745 
     14 C14        17.9534  -29.4448  -44.9665 C.ar      10 UNK        -0.0972 
     15 C15        16.8427  -31.1862  -43.4563 C.3       10 UNK         0.0209 
     16 S16        16.1748  -29.8700  -42.3715 S.3       10 UNK        -0.2568 
     17 C17        17.5817  -29.4791  -41.2693 C.3       10 UNK        -0.0983 
     18 CA         18.4405  -28.2918  -41.7850 C.3       3 UNK         0.0876 
     19 N          17.6711  -27.0786  -42.0867 N.am      3 UNK        -0.4424 
     20 C          17.0704  -26.2516  -41.2189 C.2       2 UNK         0.4918 
     21 O          17.0635  -26.4173  -39.9985 O.2       2 UNK        -0.4875 
     22 CA         16.3275  -25.0426  -41.8282 C.3       2 UNK         0.0481 
     23 CB         16.2977  -23.8211  -40.8846 C.3       2 UNK        -0.1831 
     24 N          16.8031  -24.6801  -43.1722 N.am      2 UNK        -0.4498 
     25 C          17.9937  -24.1594  -43.5171 C.2       1 UNK         0.5027 
     26 O          18.8539  -23.8184  -42.7045 O.2       1 UNK        -0.4969 
     27 C          19.6662  -27.9711  -40.9116 C.2       3 UNK         0.5005 
     28 O          19.8341  -28.5360  -39.8281 O.2       3 UNK        -0.5279 
     29 N          20.5069  -27.0668  -41.4258 N.am      4 UNK        -0.4463 
     30 CA         21.7816  -26.6634  -40.8395 C.3       4 UNK         0.0283 
     31 CB         21.5934  -25.3362  -40.0806 C.3       4 UNK        -0.1875 
     32 C          22.8656  -26.5856  -41.9283 C.2       4 UNK         0.4949 
     33 O          23.7394  -25.7203  -41.8593 O.2       4 UNK        -0.5039 
     34 N          22.7940  -27.4809  -42.9247 N.am      5 UNK        -0.4663 
     35 CA         23.7652  -27.5702  -44.0207 C.3       5 UNK         0.0242 
     36 CB         23.1221  -28.2910  -45.2158 C.3       5 UNK        -0.1982 
     37 C          25.0631  -28.2803  -43.6023 C.2       5 UNK         0.5017 
     38 O          26.1152  -28.0119  -44.1835 O.2       5 UNK        -0.5012 
     39 N          24.9651  -29.1634  -42.6046 N.am      6 UNK        -0.4439 
     40 CA         26.0516  -29.9201  -41.9941 C.3       6 UNK         0.0297 
     41 CB         26.4589  -31.0938  -42.9063 C.3       6 UNK        -0.2006 
     42 C          25.5560  -30.4262  -40.6358 C.2       6 UNK         0.4892 
     43 O          24.3506  -30.3898  -40.3781 O.2       6 UNK        -0.5089 
     44 N          26.4742  -30.9419  -39.8084 N.am      7 UNK        -0.4243 
     45 CA         26.1697  -31.5341  -38.4975 C.3       7 UNK         0.0196 
     46 CB         27.4841  -31.8868  -37.7826 C.3       7 UNK        -0.2007 
     47 C          25.2468  -32.7680  -38.5651 C.2       7 UNK         0.5020 
     48 O          24.5203  -33.0329  -37.6074 O.2       7 UNK        -0.5147 
     49 N          25.2807  -33.4818  -39.6975 N.am      8 UNK        -0.4734 
     50 CA         24.4266  -34.6314  -40.0053 C.3       8 UNK         0.0238 
     51 CB         25.3156  -35.7630  -40.5543 C.3       8 UNK        -0.1912 
     52 C          23.2982  -34.2811  -40.9972 C.2       8 UNK         0.5038 
     53 O          22.6521  -35.1993  -41.5039 O.2       8 UNK        -0.5046 
     54 N          23.0824  -32.9886  -41.2784 N.am      9 UNK        -0.4200 
     55 CA         22.1001  -32.4898  -42.2506 C.3       9 UNK         0.0839 
     56 C          21.5226  -31.1279  -41.7847 C.2       9 UNK         0.5513 
     57 N          21.0102  -31.0661  -40.5624 N.am      9 UNK        -0.7519 
     58 O          21.5643  -30.1246  -42.4930 O.2       9 UNK        -0.4960 
     59 C59        22.6530  -32.5207  -43.7102 C.3       10 UNK        -0.0876 
     60 S60        21.5728  -33.4617  -44.8386 S.3       10 UNK        -0.2414 
     61 C61        21.0912  -32.2060  -46.0712 C.3       10 UNK         0.0169 
     62 H62        14.9597  -23.5016  -47.9702 H         1 UNK         0.0903 
     63 H63        15.2445  -25.1479  -47.4033 H         1 UNK         0.0903 
     64 H64        14.0809  -24.1168  -46.5683 H         1 UNK         0.0903 
     65 H65        17.1804  -25.3294  -46.2901 H         1 UNK         0.3096 
     66 H66        18.5221  -22.9946  -45.2065 H         1 UNK         0.1121 
     67 H67        19.6851  -24.8463  -46.5369 H         1 UNK         0.0849 
     68 H68        20.4554  -24.3153  -45.0796 H         1 UNK         0.0849 
     69 H69        18.1137  -27.2235  -46.5320 H         1 UNK         0.0865 
     70 H70        19.7699  -27.4516  -47.0565 H         1 UNK         0.0865 
     71 H71        20.8462  -29.5950  -46.7296 H         1 UNK         0.1346 
     72 H72        18.9330  -32.6363  -44.3857 H         1 UNK         0.1412 
     73 H73        17.1664  -28.7465  -44.7193 H         1 UNK         0.1426 
     74 H74        16.0214  -31.5953  -44.0458 H         1 UNK         0.0716 
     75 H75        17.2042  -31.9999  -42.8254 H         1 UNK         0.0716 
     76 H76        17.1813  -29.2541  -40.2794 H         1 UNK         0.0695 
     77 H77        18.1967  -30.3733  -41.1538 H         1 UNK         0.0695 
     78 H78        18.8847  -28.6153  -42.7233 H         1 UNK         0.0983 
     79 H79        17.6257  -26.8324  -43.0638 H         1 UNK         0.3095 
     80 H80        15.2956  -25.3697  -41.9624 H         1 UNK         0.0454 
     81 H81        15.7720  -24.0569  -39.9587 H         1 UNK         0.0851 
     82 H82        17.3005  -23.4939  -40.6092 H         1 UNK         0.0851 
     83 H83        15.7815  -22.9773  -41.3420 H         1 UNK         0.0851 
     84 H84        16.1742  -24.9056  -43.9304 H         1 UNK         0.2976 
     85 H85        20.2937  -26.6634  -42.3303 H         1 UNK         0.3116 
     86 H86        22.1211  -27.4220  -40.1309 H         1 UNK         0.0646 
     87 H87        22.5180  -25.0255  -39.5927 H         1 UNK         0.0847 
     88 H88        20.8344  -25.4297  -39.3037 H         1 UNK         0.0847 
     89 H89        21.2875  -24.5320  -40.7513 H         1 UNK         0.0847 
     90 H90        22.0914  -28.2143  -42.8780 H         1 UNK         0.3040 
     91 H91        24.0334  -26.5599  -44.3382 H         1 UNK         0.1015 
     92 H92        22.2830  -27.7218  -45.6133 H         1 UNK         0.0786 
     93 H93        22.7563  -29.2802  -44.9409 H         1 UNK         0.0786 
     94 H94        23.8368  -28.4192  -46.0298 H         1 UNK         0.0786 
     95 H95        24.0677  -29.2958  -42.1499 H         1 UNK         0.3172 
     96 H96        26.9037  -29.2573  -41.8303 H         1 UNK         0.0595 
     97 H97        25.6309  -31.7842  -43.0675 H         1 UNK         0.0839 
     98 H98        27.2824  -31.6643  -42.4757 H         1 UNK         0.0839 
     99 H99        26.7931  -30.7431  -43.8828 H         1 UNK         0.0839 
    100 H100       27.4444  -30.9381  -40.0907 H         1 UNK         0.2998 
    101 H101       25.6506  -30.7764  -37.9064 H         1 UNK         0.0822 
    102 H102       28.1094  -31.0048  -37.6417 H         1 UNK         0.0787 
    103 H103       27.2905  -32.3048  -36.7936 H         1 UNK         0.0787 
    104 H104       28.0622  -32.6247  -38.3404 H         1 UNK         0.0787 
    105 H105       25.9160  -33.1860  -40.4248 H         1 UNK         0.3055 
    106 H106       23.9412  -34.9941  -39.0963 H         1 UNK         0.1106 
    107 H107       24.7355  -36.6693  -40.7336 H         1 UNK         0.0828 
    108 H108       25.7867  -35.4854  -41.4980 H         1 UNK         0.0828 
    109 H109       26.1048  -36.0241  -39.8491 H         1 UNK         0.0828 
    110 H110       23.5956  -32.2690  -40.7796 H         1 UNK         0.2931 
    111 H111       21.2377  -33.1578  -42.1996 H         1 UNK         0.0412 
    112 H112       20.6493  -30.1807  -40.2203 H         1 UNK         0.3472 
    113 H113       20.9982  -31.8772  -39.9656 H         1 UNK         0.3472 
    114 H114       23.6253  -33.0136  -43.7419 H         1 UNK         0.0970 
    115 H115       22.8387  -31.5239  -44.1105 H         1 UNK         0.0970 
    116 H116       20.7215  -32.7266  -46.9553 H         1 UNK         0.0612 
    117 H117       21.9855  -31.6664  -46.3874 H         1 UNK         0.0612 
@<TRIPOS>BOND
     1    1    2 1    
     2    1   62 1    
     3    1   63 1    
     4    1   64 1    
     5    2    3 2    
     6    2    4 am   BACKBONE|DICT|INTERRES
     7    4    5 1    
     8    4   65 1    
     9    5    6 1    
    10    5   25 1    
    11    5   66 1    
    12    6    7 1    
    13    6   67 1    
    14    6   68 1    
    15    7    8 1    
    16    8    9 1    
    17    8   69 1    
    18    8   70 1    
    19    9   10 ar   
    20    9   14 ar   
    21   10   11 ar   
    22   10   71 1    
    23   11   12 ar   
    24   11   61 1    
    25   12   13 ar   
    26   12   72 1    
    27   13   14 ar   
    28   13   15 1    
    29   14   73 1    
    30   15   16 1    
    31   15   74 1    
    32   15   75 1    
    33   16   17 1    
    34   17   18 1    
    35   17   76 1    
    36   17   77 1    
    37   18   19 1    
    38   18   27 1    
    39   18   78 1    
    40   19   20 am   BACKBONE|DICT|INTERRES
    41   19   79 1    
    42   20   21 2    
    43   20   22 1    
    44   22   23 1    
    45   22   24 1    
    46   22   80 1    
    47   23   81 1    
    48   23   82 1    
    49   23   83 1    
    50   24   25 am   BACKBONE|DICT|INTERRES
    51   24   84 1    
    52   25   26 2    
    53   27   28 2    
    54   27   29 am   BACKBONE|DICT|INTERRES
    55   29   30 1    
    56   29   85 1    
    57   30   31 1    
    58   30   32 1    
    59   30   86 1    
    60   31   87 1    
    61   31   88 1    
    62   31   89 1    
    63   32   33 2    
    64   32   34 am   BACKBONE|DICT|INTERRES
    65   34   35 1    
    66   34   90 1    
    67   35   36 1    
    68   35   37 1    
    69   35   91 1    
    70   36   92 1    
    71   36   93 1    
    72   36   94 1    
    73   37   38 2    
    74   37   39 am   BACKBONE|DICT|INTERRES
    75   39   40 1    
    76   39   95 1    
    77   40   41 1    
    78   40   42 1    
    79   40   96 1    
    80   41   97 1    
    81   41   98 1    
    82   41   99 1    
    83   42   43 2    
    84   42   44 am   BACKBONE|DICT|INTERRES
    85   44   45 1    
    86   44  100 1    
    87   45   46 1    
    88   45   47 1    
    89   45  101 1    
    90   46  102 1    
    91   46  103 1    
    92   46  104 1    
    93   47   48 2    
    94   47   49 am   BACKBONE|DICT|INTERRES
    95   49   50 1    
    96   49  105 1    
    97   50   51 1    
    98   50   52 1    
    99   50  106 1    
   100   51  107 1    
   101   51  108 1    
   102   51  109 1    
   103   52   53 2    
   104   52   54 am   BACKBONE|DICT|INTERRES
   105   54   55 1    
   106   54  110 1    
   107   55   56 1    
   108   55   59 1    
   109   55  111 1    
   110   56   57 am   BACKBONE|DICT|INTERRES
   111   56   58 2    
   112   57  112 1    
   113   57  113 1    
   114   59   60 1    
   115   59  114 1    
   116   59  115 1    
   117   60   61 1    
   118   61  116 1    
   119   61  117 1    
@<TRIPOS>SUBSTRUCTURE
     1 UNK         1 GROUP             0       ****    0 ROOT    
