@<TRIPOS>MOLECULE
3R8
117   119    1
SMALL
USER_CHARGES


@<TRIPOS>ATOM
      1 CA         21.3363  -23.3181  -49.9989 C.3       0 UNK        -0.2013 
      2 C          21.3674  -24.0514  -48.6662 C.2       0 UNK         0.4866 
      3 O          22.2723  -23.8229  -47.8627 O.2       0 UNK        -0.5176 
      4 N          20.3915  -24.9368  -48.4278 N.am      1 UNK        -0.4884 
      5 CA         20.2276  -25.6778  -47.1737 C.3       1 UNK         0.0853 
      6 C6         19.2897  -26.8959  -47.3724 C.3       10 UNK        -0.0849 
      7 S7         19.3630  -28.0670  -45.9774 S.3       10 UNK        -0.2776 
      8 C8         17.8953  -29.0966  -46.2892 C.3       10 UNK         0.0316 
      9 C9         17.5269  -29.8563  -45.0265 C.ar      10 UNK        -0.0863 
     10 C10        18.1283  -31.0864  -44.7376 C.ar      10 UNK        -0.1009 
     11 C11        17.8578  -31.7376  -43.5300 C.ar      10 UNK        -0.0712 
     12 C12        16.9805  -31.1519  -42.6143 C.ar      10 UNK        -0.0894 
     13 C13        16.3956  -29.9117  -42.8825 C.ar      10 UNK        -0.0745 
     14 C14        16.6397  -29.2859  -44.1082 C.ar      10 UNK        -0.0972 
     15 C15        15.5868  -29.2101  -41.8031 C.3       10 UNK         0.0209 
     16 S16        16.6546  -28.7339  -40.3997 S.3       10 UNK        -0.2568 
     17 C17        17.5652  -27.2797  -41.0359 C.3       10 UNK        -0.0983 
     18 CA         18.7936  -27.5860  -41.9472 C.3       3 UNK         0.0876 
     19 N          19.1210  -26.4682  -42.8377 N.am      3 UNK        -0.4424 
     20 C          19.5145  -25.2394  -42.4715 C.2       2 UNK         0.4918 
     21 O          19.6277  -24.8764  -41.2997 O.2       2 UNK        -0.4875 
     22 CA         19.8250  -24.2479  -43.6094 C.3       2 UNK         0.0481 
     23 CB         20.9019  -23.2173  -43.2224 C.3       2 UNK        -0.1831 
     24 N          20.2321  -24.9500  -44.8306 N.am      2 UNK        -0.4498 
     25 C          19.7225  -24.7426  -46.0517 C.2       1 UNK         0.5027 
     26 O          18.8670  -23.8907  -46.3078 O.2       1 UNK        -0.4969 
     27 C          20.0393  -28.1484  -41.2298 C.2       3 UNK         0.5005 
     28 O          21.1688  -27.7967  -41.5841 O.2       3 UNK        -0.5279 
     29 N          19.8215  -29.0630  -40.2755 N.am      4 UNK        -0.4463 
     30 CA         20.8306  -29.9074  -39.6220 C.3       4 UNK         0.0283 
     31 CB         20.1370  -30.8401  -38.6177 C.3       4 UNK        -0.1875 
     32 C          21.9934  -29.1594  -38.9479 C.2       4 UNK         0.4949 
     33 O          23.0656  -29.7419  -38.7946 O.2       4 UNK        -0.5039 
     34 N          21.7890  -27.8803  -38.6059 N.am      5 UNK        -0.4663 
     35 CA         22.8269  -26.9644  -38.1248 C.3       5 UNK         0.0242 
     36 CB         22.1678  -25.6412  -37.7030 C.3       5 UNK        -0.1982 
     37 C          23.9475  -26.7014  -39.1514 C.2       5 UNK         0.5017 
     38 O          25.0676  -26.3953  -38.7407 O.2       5 UNK        -0.5012 
     39 N          23.6328  -26.8277  -40.4483 N.am      6 UNK        -0.4439 
     40 CA         24.5733  -26.6884  -41.5608 C.3       6 UNK         0.0297 
     41 CB         24.0945  -25.5585  -42.4866 C.3       6 UNK        -0.2006 
     42 C          24.7101  -27.9973  -42.3531 C.2       6 UNK         0.4892 
     43 O          25.8227  -28.3459  -42.7488 O.2       6 UNK        -0.5089 
     44 N          23.5861  -28.6870  -42.5914 N.am      7 UNK        -0.4243 
     45 CA         23.5033  -29.8771  -43.4401 C.3       7 UNK         0.0196 
     46 CB         22.0496  -30.0478  -43.9127 C.3       7 UNK        -0.2007 
     47 C          23.9904  -31.1689  -42.7662 C.2       7 UNK         0.5020 
     48 O          24.2700  -32.1330  -43.4796 O.2       7 UNK        -0.5147 
     49 N          24.0385  -31.1971  -41.4250 N.am      8 UNK        -0.4734 
     50 CA         24.3437  -32.3342  -40.5375 C.3       8 UNK         0.0238 
     51 CB         25.7581  -32.8942  -40.7864 C.3       8 UNK        -0.1912 
     52 C          23.2853  -33.4555  -40.5538 C.2       8 UNK         0.5038 
     53 O          22.8975  -33.9254  -39.4832 O.2       8 UNK        -0.5046 
     54 N          22.8245  -33.8349  -41.7515 N.am      9 UNK        -0.4200 
     55 CA         21.7802  -34.8307  -42.0382 C.3       9 UNK         0.0839 
     56 C          22.1964  -36.2853  -41.6589 C.2       9 UNK         0.5513 
     57 N          21.2665  -37.2320  -41.6462 N.am      9 UNK        -0.7519 
     58 O          23.3659  -36.5857  -41.4248 O.2       9 UNK        -0.4960 
     59 C59        20.3830  -34.4136  -41.4869 C.3       10 UNK        -0.0876 
     60 S60        19.8935  -32.7251  -41.9822 S.3       10 UNK        -0.2414 
     61 C61        18.5544  -33.0401  -43.1712 C.3       10 UNK         0.0169 
     62 H62        21.2599  -22.2437  -49.8337 H         1 UNK         0.0903 
     63 H63        22.2524  -23.5129  -50.5560 H         1 UNK         0.0903 
     64 H64        20.4925  -23.6271  -50.6157 H         1 UNK         0.0903 
     65 H65        19.6559  -25.0580  -49.1097 H         1 UNK         0.3096 
     66 H66        21.2149  -26.0520  -46.8914 H         1 UNK         0.1121 
     67 H67        18.2593  -26.5699  -47.5288 H         1 UNK         0.0849 
     68 H68        19.5754  -27.4448  -48.2715 H         1 UNK         0.0849 
     69 H69        17.0583  -28.4727  -46.6066 H         1 UNK         0.0865 
     70 H70        18.0979  -29.7879  -47.1088 H         1 UNK         0.0865 
     71 H71        18.8345  -31.5164  -45.4348 H         1 UNK         0.1346 
     72 H72        16.8041  -31.6325  -41.6614 H         1 UNK         0.1412 
     73 H73        16.2036  -28.3175  -44.3137 H         1 UNK         0.1426 
     74 H74        14.8088  -29.8853  -41.4440 H         1 UNK         0.0716 
     75 H75        15.0760  -28.3295  -42.1955 H         1 UNK         0.0716 
     76 H76        16.8451  -26.6699  -41.5839 H         1 UNK         0.0695 
     77 H77        17.8705  -26.6699  -40.1839 H         1 UNK         0.0695 
     78 H78        18.5305  -28.3885  -42.6269 H         1 UNK         0.0983 
     79 H79        19.0816  -26.6799  -43.8250 H         1 UNK         0.3095 
     80 H80        18.8938  -23.7061  -43.7858 H         1 UNK         0.0454 
     81 H81        21.8484  -23.6954  -42.9741 H         1 UNK         0.0851 
     82 H82        21.0852  -22.5135  -44.0344 H         1 UNK         0.0851 
     83 H83        20.5941  -22.6328  -42.3545 H         1 UNK         0.0851 
     84 H84        20.9249  -25.6767  -44.7101 H         1 UNK         0.2976 
     85 H85        18.8544  -29.2726  -40.0583 H         1 UNK         0.3116 
     86 H86        21.2729  -30.5269  -40.4042 H         1 UNK         0.0646 
     87 H87        20.8563  -31.5159  -38.1523 H         1 UNK         0.0847 
     88 H88        19.3856  -31.4614  -39.1055 H         1 UNK         0.0847 
     89 H89        19.6470  -30.2814  -37.8195 H         1 UNK         0.0847 
     90 H90        20.8764  -27.4848  -38.7807 H         1 UNK         0.3040 
     91 H91        23.2914  -27.4175  -37.2462 H         1 UNK         0.1015 
     92 H92        21.4325  -25.7971  -36.9134 H         1 UNK         0.0786 
     93 H93        21.6649  -25.1562  -38.5412 H         1 UNK         0.0786 
     94 H94        22.9101  -24.9403  -37.3182 H         1 UNK         0.0786 
     95 H95        22.6811  -27.0952  -40.6893 H         1 UNK         0.3172 
     96 H96        25.5669  -26.4250  -41.1924 H         1 UNK         0.0595 
     97 H97        24.0442  -24.6081  -41.9552 H         1 UNK         0.0839 
     98 H98        23.1059  -25.7673  -42.8973 H         1 UNK         0.0839 
     99 H99        24.7770  -25.4248  -43.3270 H         1 UNK         0.0839 
    100 H100       22.6993  -28.3274  -42.2397 H         1 UNK         0.2998 
    101 H101       24.1286  -29.7150  -44.3209 H         1 UNK         0.0822 
    102 H102       21.6983  -29.1607  -44.4385 H         1 UNK         0.0787 
    103 H103       21.9539  -30.8902  -44.5991 H         1 UNK         0.0787 
    104 H104       21.3716  -30.2323  -43.0789 H         1 UNK         0.0787 
    105 H105       23.7722  -30.3514  -40.9370 H         1 UNK         0.3055 
    106 H106       24.3369  -31.9260  -39.5256 H         1 UNK         0.1106 
    107 H107       26.0082  -33.6541  -40.0450 H         1 UNK         0.0828 
    108 H108       25.8501  -33.3614  -41.7671 H         1 UNK         0.0828 
    109 H109       26.5125  -32.1108  -40.7152 H         1 UNK         0.0828 
    110 H110       23.2478  -33.3905  -42.5612 H         1 UNK         0.2931 
    111 H111       21.7061  -34.8406  -43.1261 H         1 UNK         0.0412 
    112 H112       21.5378  -38.1766  -41.4203 H         1 UNK         0.3472 
    113 H113       20.3044  -37.0296  -41.8665 H         1 UNK         0.3472 
    114 H114       20.3777  -34.4595  -40.3967 H         1 UNK         0.0970 
    115 H115       19.6116  -35.1093  -41.8182 H         1 UNK         0.0970 
    116 H116       17.8303  -33.7317  -42.7378 H         1 UNK         0.0612 
    117 H117       18.9631  -33.5231  -44.0600 H         1 UNK         0.0612 
@<TRIPOS>BOND
     1    1    2 1    
     2    1   62 1    
     3    1   63 1    
     4    1   64 1    
     5    2    3 2    
     6    2    4 am   BACKBONE|DICT|INTERRES
     7    4    5 1    
     8    4   65 1    
     9    5    6 1    
    10    5   25 1    
    11    5   66 1    
    12    6    7 1    
    13    6   67 1    
    14    6   68 1    
    15    7    8 1    
    16    8    9 1    
    17    8   69 1    
    18    8   70 1    
    19    9   10 ar   
    20    9   14 ar   
    21   10   11 ar   
    22   10   71 1    
    23   11   12 ar   
    24   11   61 1    
    25   12   13 ar   
    26   12   72 1    
    27   13   14 ar   
    28   13   15 1    
    29   14   73 1    
    30   15   16 1    
    31   15   74 1    
    32   15   75 1    
    33   16   17 1    
    34   17   18 1    
    35   17   76 1    
    36   17   77 1    
    37   18   19 1    
    38   18   27 1    
    39   18   78 1    
    40   19   20 am   BACKBONE|DICT|INTERRES
    41   19   79 1    
    42   20   21 2    
    43   20   22 1    
    44   22   23 1    
    45   22   24 1    
    46   22   80 1    
    47   23   81 1    
    48   23   82 1    
    49   23   83 1    
    50   24   25 am   BACKBONE|DICT|INTERRES
    51   24   84 1    
    52   25   26 2    
    53   27   28 2    
    54   27   29 am   BACKBONE|DICT|INTERRES
    55   29   30 1    
    56   29   85 1    
    57   30   31 1    
    58   30   32 1    
    59   30   86 1    
    60   31   87 1    
    61   31   88 1    
    62   31   89 1    
    63   32   33 2    
    64   32   34 am   BACKBONE|DICT|INTERRES
    65   34   35 1    
    66   34   90 1    
    67   35   36 1    
    68   35   37 1    
    69   35   91 1    
    70   36   92 1    
    71   36   93 1    
    72   36   94 1    
    73   37   38 2    
    74   37   39 am   BACKBONE|DICT|INTERRES
    75   39   40 1    
    76   39   95 1    
    77   40   41 1    
    78   40   42 1    
    79   40   96 1    
    80   41   97 1    
    81   41   98 1    
    82   41   99 1    
    83   42   43 2    
    84   42   44 am   BACKBONE|DICT|INTERRES
    85   44   45 1    
    86   44  100 1    
    87   45   46 1    
    88   45   47 1    
    89   45  101 1    
    90   46  102 1    
    91   46  103 1    
    92   46  104 1    
    93   47   48 2    
    94   47   49 am   BACKBONE|DICT|INTERRES
    95   49   50 1    
    96   49  105 1    
    97   50   51 1    
    98   50   52 1    
    99   50  106 1    
   100   51  107 1    
   101   51  108 1    
   102   51  109 1    
   103   52   53 2    
   104   52   54 am   BACKBONE|DICT|INTERRES
   105   54   55 1    
   106   54  110 1    
   107   55   56 1    
   108   55   59 1    
   109   55  111 1    
   110   56   57 am   BACKBONE|DICT|INTERRES
   111   56   58 2    
   112   57  112 1    
   113   57  113 1    
   114   59   60 1    
   115   59  114 1    
   116   59  115 1    
   117   60   61 1    
   118   61  116 1    
   119   61  117 1    
@<TRIPOS>SUBSTRUCTURE
     1 UNK         1 GROUP             0       ****    0 ROOT    
