@<TRIPOS>MOLECULE
3R8
117   119    1
SMALL
USER_CHARGES


@<TRIPOS>ATOM
      1 CA         17.4468  -21.9159  -43.5294 C.3       0 UNK        -0.2013 
      2 C          17.6426  -23.1380  -44.4143 C.2       0 UNK         0.4866 
      3 O          18.2124  -23.0218  -45.5001 O.2       0 UNK        -0.5176 
      4 N          17.1705  -24.3062  -43.9599 N.am      1 UNK        -0.4884 
      5 CA         17.3623  -25.6017  -44.6237 C.3       1 UNK         0.0853 
      6 C6         16.2275  -26.5921  -44.2530 C.3       10 UNK        -0.0849 
      7 S7         15.8240  -27.7068  -45.6384 S.3       10 UNK        -0.2776 
      8 C8         15.0074  -29.0802  -44.7699 C.3       10 UNK         0.0316 
      9 C9         16.0146  -30.0154  -44.1179 C.ar      10 UNK        -0.0863 
     10 C10        16.7371  -30.9160  -44.9059 C.ar      10 UNK        -0.1009 
     11 C11        17.6403  -31.8121  -44.3258 C.ar      10 UNK        -0.0712 
     12 C12        17.8139  -31.7943  -42.9380 C.ar      10 UNK        -0.0894 
     13 C13        17.0964  -30.9008  -42.1361 C.ar      10 UNK        -0.0745 
     14 C14        16.2012  -30.0083  -42.7325 C.ar      10 UNK        -0.0972 
     15 C15        17.2442  -30.9477  -40.6217 C.3       10 UNK         0.0209 
     16 S16        18.9632  -30.7105  -40.0732 S.3       10 UNK        -0.2568 
     17 C17        19.1527  -28.9000  -40.1340 C.3       10 UNK        -0.0983 
     18 CA         20.3655  -28.4894  -41.0062 C.3       3 UNK         0.0876 
     19 N          20.0260  -28.4067  -42.4300 N.am      3 UNK        -0.4424 
     20 C          20.9267  -28.3127  -43.4179 C.2       2 UNK         0.4918 
     21 O          22.1420  -28.3999  -43.2296 O.2       2 UNK        -0.4875 
     22 CA         20.4007  -27.9992  -44.8366 C.3       2 UNK         0.0481 
     23 CB         20.3649  -29.2642  -45.7020 C.3       2 UNK        -0.1831 
     24 N          19.0851  -27.3435  -44.8992 N.am      2 UNK        -0.4498 
     25 C          18.7687  -26.1727  -44.3289 C.2       1 UNK         0.5027 
     26 O          19.5360  -25.5682  -43.5784 O.2       1 UNK        -0.4969 
     27 C          21.0371  -27.2091  -40.4576 C.2       3 UNK         0.5005 
     28 O          21.7604  -27.3086  -39.4659 O.2       3 UNK        -0.5279 
     29 N          20.8507  -26.0448  -41.1040 N.am      4 UNK        -0.4463 
     30 CA         21.4727  -24.7691  -40.7166 C.3       4 UNK         0.0283 
     31 CB         20.8444  -23.6140  -41.5134 C.3       4 UNK        -0.1875 
     32 C          23.0065  -24.7516  -40.8634 C.2       4 UNK         0.4949 
     33 O          23.6578  -23.9063  -40.2500 O.2       4 UNK        -0.5039 
     34 N          23.5622  -25.6991  -41.6334 N.am      5 UNK        -0.4663 
     35 CA         25.0000  -25.9691  -41.7206 C.3       5 UNK         0.0242 
     36 CB         25.2617  -26.8539  -42.9517 C.3       5 UNK        -0.1982 
     37 C          25.5767  -26.6348  -40.4534 C.2       5 UNK         0.5017 
     38 O          26.7993  -26.6854  -40.3179 O.2       5 UNK        -0.5012 
     39 N          24.6985  -27.1427  -39.5726 N.am      6 UNK        -0.4439 
     40 CA         24.9716  -27.9105  -38.3550 C.3       6 UNK         0.0297 
     41 CB         25.5536  -26.9827  -37.2673 C.3       6 UNK        -0.2006 
     42 C          25.8419  -29.1645  -38.6043 C.2       6 UNK         0.4892 
     43 O          26.9307  -29.2607  -38.0377 O.2       6 UNK        -0.5089 
     44 N          25.4166  -30.1265  -39.4349 N.am      7 UNK        -0.4243 
     45 CA         24.1817  -30.2361  -40.2113 C.3       7 UNK         0.0196 
     46 CB         23.0496  -30.8039  -39.3348 C.3       7 UNK        -0.2007 
     47 C          24.4772  -31.1706  -41.3879 C.2       7 UNK         0.5020 
     48 O          25.2730  -32.1004  -41.2282 O.2       7 UNK        -0.5147 
     49 N          23.8361  -30.9248  -42.5341 N.am      8 UNK        -0.4734 
     50 CA         23.9395  -31.7599  -43.7291 C.3       8 UNK         0.0238 
     51 CB         24.4053  -30.8865  -44.9063 C.3       8 UNK        -0.1912 
     52 C          22.5663  -32.3702  -44.0257 C.2       8 UNK         0.5038 
     53 O          21.5664  -31.6577  -43.9393 O.2       8 UNK        -0.5046 
     54 N          22.5457  -33.6559  -44.3909 N.am      9 UNK        -0.4200 
     55 CA         21.3808  -34.4187  -44.8584 C.3       9 UNK         0.0839 
     56 C          21.8216  -35.8158  -45.3749 C.2       9 UNK         0.5513 
     57 N          20.8922  -36.6199  -45.8703 N.am      9 UNK        -0.7519 
     58 O          22.9976  -36.1765  -45.3387 O.2       9 UNK        -0.4960 
     59 C59        20.2109  -34.4825  -43.8239 C.3       10 UNK        -0.0876 
     60 S60        18.5618  -34.4723  -44.6144 S.3       10 UNK        -0.2414 
     61 C61        18.4382  -32.7543  -45.2245 C.3       10 UNK         0.0169 
     62 H62        18.4139  -21.4996  -43.2484 H         1 UNK         0.0903 
     63 H63        16.8877  -21.1493  -44.0653 H         1 UNK         0.0903 
     64 H64        16.9032  -22.1557  -42.6158 H         1 UNK         0.0903 
     65 H65        16.7418  -24.3413  -43.0460 H         1 UNK         0.3096 
     66 H66        17.3241  -25.4180  -45.7004 H         1 UNK         0.1121 
     67 H67        16.4670  -27.1624  -43.3535 H         1 UNK         0.0849 
     68 H68        15.3093  -26.0491  -44.0214 H         1 UNK         0.0849 
     69 H69        14.3026  -28.6862  -44.0358 H         1 UNK         0.0865 
     70 H70        14.4098  -29.6436  -45.4883 H         1 UNK         0.0865 
     71 H71        16.5936  -30.9148  -45.9780 H         1 UNK         0.1346 
     72 H72        18.5031  -32.4796  -42.4692 H         1 UNK         0.1412 
     73 H73        15.6317  -29.3253  -42.1167 H         1 UNK         0.1426 
     74 H74        16.9043  -31.9243  -40.2747 H         1 UNK         0.0716 
     75 H75        16.6016  -30.2125  -40.1347 H         1 UNK         0.0716 
     76 H76        19.2751  -28.5785  -39.0974 H         1 UNK         0.0695 
     77 H77        18.2361  -28.4240  -40.4866 H         1 UNK         0.0695 
     78 H78        21.1294  -29.2624  -40.9149 H         1 UNK         0.0983 
     79 H79        19.0463  -28.3613  -42.6648 H         1 UNK         0.3095 
     80 H80        21.1164  -27.3091  -45.2876 H         1 UNK         0.0454 
     81 H81        21.3491  -29.7301  -45.7529 H         1 UNK         0.0851 
     82 H82        20.0607  -29.0449  -46.7253 H         1 UNK         0.0851 
     83 H83        19.6748  -30.0006  -45.2932 H         1 UNK         0.0851 
     84 H84        18.3795  -27.8008  -45.4619 H         1 UNK         0.2976 
     85 H85        20.2837  -26.0233  -41.9500 H         1 UNK         0.3116 
     86 H86        21.2499  -24.6068  -39.6599 H         1 UNK         0.0646 
     87 H87        21.0835  -23.6795  -42.5754 H         1 UNK         0.0847 
     88 H88        21.2132  -22.6508  -41.1587 H         1 UNK         0.0847 
     89 H89        19.7590  -23.6019  -41.4133 H         1 UNK         0.0847 
     90 H90        22.9508  -26.3433  -42.1181 H         1 UNK         0.3040 
     91 H91        25.5223  -25.0196  -41.8576 H         1 UNK         0.1015 
     92 H92        24.8857  -26.3899  -43.8637 H         1 UNK         0.0786 
     93 H93        24.7901  -27.8327  -42.8548 H         1 UNK         0.0786 
     94 H94        26.3304  -27.0220  -43.0919 H         1 UNK         0.0786 
     95 H95        23.7092  -27.0330  -39.7754 H         1 UNK         0.3172 
     96 H96        24.0079  -28.2645  -37.9895 H         1 UNK         0.0595 
     97 H97        26.5258  -26.5801  -37.5540 H         1 UNK         0.0839 
     98 H98        25.6876  -27.5189  -36.3270 H         1 UNK         0.0839 
     99 H99        24.8893  -26.1418  -37.0680 H         1 UNK         0.0839 
    100 H100       26.0368  -30.9082  -39.6093 H         1 UNK         0.2998 
    101 H101       23.8806  -29.2754  -40.6248 H         1 UNK         0.0822 
    102 H102       22.7023  -30.0777  -38.6008 H         1 UNK         0.0787 
    103 H103       22.1862  -31.0883  -39.9371 H         1 UNK         0.0787 
    104 H104       23.3694  -31.6974  -38.7973 H         1 UNK         0.0787 
    105 H105       23.1596  -30.1700  -42.5967 H         1 UNK         0.3055 
    106 H106       24.6630  -32.5659  -43.5867 H         1 UNK         0.1106 
    107 H107       24.4658  -31.4679  -45.8272 H         1 UNK         0.0828 
    108 H108       23.7231  -30.0547  -45.0870 H         1 UNK         0.0828 
    109 H109       25.3948  -30.4691  -44.7197 H         1 UNK         0.0828 
    110 H110       23.4106  -34.1794  -44.4458 H         1 UNK         0.2931 
    111 H111       21.0480  -33.8853  -45.7494 H         1 UNK         0.0412 
    112 H112       19.9250  -36.3315  -45.8892 H         1 UNK         0.3472 
    113 H113       21.1560  -37.5303  -46.2144 H         1 UNK         0.3472 
    114 H114       20.2940  -35.3712  -43.1956 H         1 UNK         0.0970 
    115 H115       20.2489  -33.6501  -43.1245 H         1 UNK         0.0970 
    116 H116       17.9796  -32.7980  -46.2134 H         1 UNK         0.0612 
    117 H117       19.4309  -32.3345  -45.3754 H         1 UNK         0.0612 
@<TRIPOS>BOND
     1    1    2 1    
     2    1   62 1    
     3    1   63 1    
     4    1   64 1    
     5    2    3 2    
     6    2    4 am   BACKBONE|DICT|INTERRES
     7    4    5 1    
     8    4   65 1    
     9    5    6 1    
    10    5   25 1    
    11    5   66 1    
    12    6    7 1    
    13    6   67 1    
    14    6   68 1    
    15    7    8 1    
    16    8    9 1    
    17    8   69 1    
    18    8   70 1    
    19    9   10 ar   
    20    9   14 ar   
    21   10   11 ar   
    22   10   71 1    
    23   11   12 ar   
    24   11   61 1    
    25   12   13 ar   
    26   12   72 1    
    27   13   14 ar   
    28   13   15 1    
    29   14   73 1    
    30   15   16 1    
    31   15   74 1    
    32   15   75 1    
    33   16   17 1    
    34   17   18 1    
    35   17   76 1    
    36   17   77 1    
    37   18   19 1    
    38   18   27 1    
    39   18   78 1    
    40   19   20 am   BACKBONE|DICT|INTERRES
    41   19   79 1    
    42   20   21 2    
    43   20   22 1    
    44   22   23 1    
    45   22   24 1    
    46   22   80 1    
    47   23   81 1    
    48   23   82 1    
    49   23   83 1    
    50   24   25 am   BACKBONE|DICT|INTERRES
    51   24   84 1    
    52   25   26 2    
    53   27   28 2    
    54   27   29 am   BACKBONE|DICT|INTERRES
    55   29   30 1    
    56   29   85 1    
    57   30   31 1    
    58   30   32 1    
    59   30   86 1    
    60   31   87 1    
    61   31   88 1    
    62   31   89 1    
    63   32   33 2    
    64   32   34 am   BACKBONE|DICT|INTERRES
    65   34   35 1    
    66   34   90 1    
    67   35   36 1    
    68   35   37 1    
    69   35   91 1    
    70   36   92 1    
    71   36   93 1    
    72   36   94 1    
    73   37   38 2    
    74   37   39 am   BACKBONE|DICT|INTERRES
    75   39   40 1    
    76   39   95 1    
    77   40   41 1    
    78   40   42 1    
    79   40   96 1    
    80   41   97 1    
    81   41   98 1    
    82   41   99 1    
    83   42   43 2    
    84   42   44 am   BACKBONE|DICT|INTERRES
    85   44   45 1    
    86   44  100 1    
    87   45   46 1    
    88   45   47 1    
    89   45  101 1    
    90   46  102 1    
    91   46  103 1    
    92   46  104 1    
    93   47   48 2    
    94   47   49 am   BACKBONE|DICT|INTERRES
    95   49   50 1    
    96   49  105 1    
    97   50   51 1    
    98   50   52 1    
    99   50  106 1    
   100   51  107 1    
   101   51  108 1    
   102   51  109 1    
   103   52   53 2    
   104   52   54 am   BACKBONE|DICT|INTERRES
   105   54   55 1    
   106   54  110 1    
   107   55   56 1    
   108   55   59 1    
   109   55  111 1    
   110   56   57 am   BACKBONE|DICT|INTERRES
   111   56   58 2    
   112   57  112 1    
   113   57  113 1    
   114   59   60 1    
   115   59  114 1    
   116   59  115 1    
   117   60   61 1    
   118   61  116 1    
   119   61  117 1    
@<TRIPOS>SUBSTRUCTURE
     1 UNK         1 GROUP             0       ****    0 ROOT    
