@<TRIPOS>MOLECULE
3R8
117   119    1
SMALL
USER_CHARGES


@<TRIPOS>ATOM
      1 CA         16.3570  -28.3651  -39.6595 C.3       0 UNK        -0.2013 
      2 C          16.8548  -28.1440  -41.0802 C.2       0 UNK         0.4866 
      3 O          18.0596  -28.2050  -41.3172 O.2       0 UNK        -0.5176 
      4 N          15.9362  -27.8888  -42.0234 N.am      1 UNK        -0.4884 
      5 CA         16.2093  -27.6106  -43.4409 C.3       1 UNK         0.0853 
      6 C6         16.9239  -28.8024  -44.1472 C.3       10 UNK        -0.0849 
      7 S7         16.6010  -28.8768  -45.9429 S.3       10 UNK        -0.2776 
      8 C8         16.8158  -30.6561  -46.2819 C.3       10 UNK         0.0316 
      9 C9         18.2027  -31.1921  -45.9322 C.ar      10 UNK        -0.0863 
     10 C10        18.3206  -32.4436  -45.3217 C.ar      10 UNK        -0.1009 
     11 C11        19.5771  -32.9806  -45.0285 C.ar      10 UNK        -0.0712 
     12 C12        20.7247  -32.2494  -45.3469 C.ar      10 UNK        -0.0894 
     13 C13        20.6306  -30.9927  -45.9529 C.ar      10 UNK        -0.0745 
     14 C14        19.3631  -30.4790  -46.2562 C.ar      10 UNK        -0.0972 
     15 C15        21.9146  -30.2559  -46.3350 C.3       10 UNK         0.0209 
     16 S16        21.7954  -28.4353  -46.3158 S.3       10 UNK        -0.2568 
     17 C17        21.8356  -28.0644  -44.5313 C.3       10 UNK        -0.0983 
     18 CA         21.5404  -26.5640  -44.2816 C.3       3 UNK         0.0876 
     19 N          20.1662  -26.2208  -44.6538 N.am      3 UNK        -0.4424 
     20 C          19.7061  -24.9810  -44.8658 C.2       2 UNK         0.4918 
     21 O          20.4074  -23.9702  -44.8056 O.2       2 UNK        -0.4875 
     22 CA         18.2179  -24.8400  -45.2372 C.3       2 UNK         0.0481 
     23 CB         18.0678  -24.6046  -46.7489 C.3       2 UNK        -0.1831 
     24 N          17.4279  -26.0147  -44.8597 N.am      2 UNK        -0.4498 
     25 C          16.9241  -26.2479  -43.6412 C.2       1 UNK         0.5027 
     26 O          16.9790  -25.4266  -42.7213 O.2       1 UNK        -0.4969 
     27 C          21.8368  -26.1575  -42.8238 C.2       3 UNK         0.5005 
     28 O          20.9333  -26.1445  -41.9851 O.2       3 UNK        -0.5279 
     29 N          23.1046  -25.8361  -42.5517 N.am      4 UNK        -0.4463 
     30 CA         23.6217  -25.4139  -41.2543 C.3       4 UNK         0.0283 
     31 CB         23.4148  -23.8988  -41.0759 C.3       4 UNK        -0.1875 
     32 C          25.1068  -25.7831  -41.1881 C.2       4 UNK         0.4949 
     33 O          25.7217  -26.0195  -42.2314 O.2       4 UNK        -0.5039 
     34 N          25.6500  -25.8398  -39.9644 N.am      5 UNK        -0.4663 
     35 CA         27.0276  -26.2007  -39.5812 C.3       5 UNK         0.0242 
     36 CB         28.0667  -25.2678  -40.2345 C.3       5 UNK        -0.1982 
     37 C          27.3915  -27.6822  -39.8040 C.2       5 UNK         0.5017 
     38 O          28.0756  -28.2618  -38.9598 O.2       5 UNK        -0.5012 
     39 N          26.9125  -28.2725  -40.9016 N.am      6 UNK        -0.4439 
     40 CA         26.9715  -29.6939  -41.2193 C.3       6 UNK         0.0297 
     41 CB         27.9548  -29.9154  -42.3801 C.3       6 UNK        -0.2006 
     42 C          25.5608  -30.1534  -41.6054 C.2       6 UNK         0.4892 
     43 O          24.7963  -29.3626  -42.1651 O.2       6 UNK        -0.5089 
     44 N          25.2597  -31.4261  -41.3132 N.am      7 UNK        -0.4243 
     45 CA         23.9729  -32.1022  -41.5091 C.3       7 UNK         0.0196 
     46 CB         23.6446  -32.2657  -43.0081 C.3       7 UNK        -0.2007 
     47 C          22.8484  -31.4371  -40.6941 C.2       7 UNK         0.5020 
     48 O          22.7357  -31.7293  -39.5035 O.2       7 UNK        -0.5147 
     49 N          22.0573  -30.5656  -41.3400 N.am      8 UNK        -0.4734 
     50 CA         20.9133  -29.8230  -40.7892 C.3       8 UNK         0.0238 
     51 CB         21.3887  -28.7912  -39.7449 C.3       8 UNK        -0.1912 
     52 C          19.8184  -30.7667  -40.2532 C.2       8 UNK         0.5038 
     53 O          19.4234  -30.6703  -39.0888 O.2       8 UNK        -0.5046 
     54 N          19.4054  -31.7066  -41.1122 N.am      9 UNK        -0.4200 
     55 CA         18.4796  -32.8043  -40.8071 C.3       9 UNK         0.0839 
     56 C          17.0698  -32.3085  -40.3876 C.2       9 UNK         0.5513 
     57 N          16.5526  -32.7740  -39.2590 N.am      9 UNK        -0.7519 
     58 O          16.4239  -31.5505  -41.1065 O.2       9 UNK        -0.4960 
     59 C59        18.3697  -33.8022  -41.9891 C.3       10 UNK        -0.0876 
     60 S60        19.9923  -34.3498  -42.6291 S.3       10 UNK        -0.2414 
     61 C61        19.6980  -34.3755  -44.4263 C.3       10 UNK         0.0169 
     62 H62        16.7497  -29.3040  -39.2693 H         1 UNK         0.0903 
     63 H63        16.7000  -27.5582  -39.0127 H         1 UNK         0.0903 
     64 H64        15.2693  -28.4072  -39.6094 H         1 UNK         0.0903 
     65 H65        14.9643  -27.8235  -41.7539 H         1 UNK         0.3096 
     66 H66        15.2244  -27.4921  -43.8960 H         1 UNK         0.1121 
     67 H67        18.0012  -28.7854  -43.9704 H         1 UNK         0.0849 
     68 H68        16.5750  -29.7421  -43.7142 H         1 UNK         0.0849 
     69 H69        16.6327  -30.8343  -47.3422 H         1 UNK         0.0865 
     70 H70        16.0431  -31.2051  -45.7411 H         1 UNK         0.0865 
     71 H71        17.4301  -33.0146  -45.0970 H         1 UNK         0.1346 
     72 H72        21.6969  -32.6778  -45.1515 H         1 UNK         0.1412 
     73 H73        19.2749  -29.5265  -46.7592 H         1 UNK         0.1426 
     74 H74        22.7370  -30.5555  -45.6844 H         1 UNK         0.0716 
     75 H75        22.1929  -30.5671  -47.3426 H         1 UNK         0.0716 
     76 H76        22.8229  -28.3390  -44.1535 H         1 UNK         0.0695 
     77 H77        21.1131  -28.6967  -44.0119 H         1 UNK         0.0695 
     78 H78        22.2054  -25.9756  -44.9186 H         1 UNK         0.0983 
     79 H79        19.5152  -26.9878  -44.6993 H         1 UNK         0.3095 
     80 H80        17.8269  -23.9630  -44.7172 H         1 UNK         0.0454 
     81 H81        18.4460  -25.4470  -47.3296 H         1 UNK         0.0851 
     82 H82        17.0250  -24.4472  -47.0247 H         1 UNK         0.0851 
     83 H83        18.6211  -23.7184  -47.0628 H         1 UNK         0.0851 
     84 H84        17.3023  -26.7310  -45.5654 H         1 UNK         0.2976 
     85 H85        23.8239  -25.9441  -43.2578 H         1 UNK         0.3116 
     86 H86        23.0985  -25.9510  -40.4609 H         1 UNK         0.0646 
     87 H87        22.3576  -23.6355  -41.1153 H         1 UNK         0.0847 
     88 H88        23.9299  -23.3289  -41.8502 H         1 UNK         0.0847 
     89 H89        23.7954  -23.5588  -40.1121 H         1 UNK         0.0847 
     90 H90        25.0384  -25.6482  -39.1818 H         1 UNK         0.3040 
     91 H91        27.0809  -26.0357  -38.5035 H         1 UNK         0.1015 
     92 H92        29.0654  -25.4676  -39.8439 H         1 UNK         0.0786 
     93 H93        27.8431  -24.2205  -40.0313 H         1 UNK         0.0786 
     94 H94        28.1139  -25.3978  -41.3160 H         1 UNK         0.0786 
     95 H95        26.3389  -27.7116  -41.5279 H         1 UNK         0.3172 
     96 H96        27.3024  -30.2655  -40.3495 H         1 UNK         0.0595 
     97 H97        27.6486  -29.3734  -43.2760 H         1 UNK         0.0839 
     98 H98        28.0196  -30.9720  -42.6431 H         1 UNK         0.0839 
     99 H99        28.9592  -29.5843  -42.1159 H         1 UNK         0.0839 
    100 H100       25.9626  -31.9772  -40.8398 H         1 UNK         0.2998 
    101 H101       24.0905  -33.1064  -41.0980 H         1 UNK         0.0822 
    102 H102       23.5578  -31.3120  -43.5279 H         1 UNK         0.0787 
    103 H103       24.4146  -32.8469  -43.5155 H         1 UNK         0.0787 
    104 H104       22.7048  -32.8037  -43.1300 H         1 UNK         0.0787 
    105 H105       22.2845  -30.3745  -42.3054 H         1 UNK         0.3055 
    106 H106       20.4682  -29.2666  -41.6157 H         1 UNK         0.1106 
    107 H107       22.1670  -28.1489  -40.1548 H         1 UNK         0.0828 
    108 H108       20.5633  -28.1467  -39.4394 H         1 UNK         0.0828 
    109 H109       21.7835  -29.2677  -38.8473 H         1 UNK         0.0828 
    110 H110       19.7943  -31.7172  -42.0429 H         1 UNK         0.2931 
    111 H111       18.9178  -33.3441  -39.9650 H         1 UNK         0.0412 
    112 H112       15.6287  -32.4786  -38.9845 H         1 UNK         0.3472 
    113 H113       17.0742  -33.4020  -38.6670 H         1 UNK         0.3472 
    114 H114       17.7898  -33.3578  -42.7974 H         1 UNK         0.0970 
    115 H115       17.8144  -34.6895  -41.6795 H         1 UNK         0.0970 
    116 H116       20.5244  -34.9033  -44.9046 H         1 UNK         0.0612 
    117 H117       18.8037  -34.9645  -44.6360 H         1 UNK         0.0612 
@<TRIPOS>BOND
     1    1    2 1    
     2    1   62 1    
     3    1   63 1    
     4    1   64 1    
     5    2    3 2    
     6    2    4 am   BACKBONE|DICT|INTERRES
     7    4    5 1    
     8    4   65 1    
     9    5    6 1    
    10    5   25 1    
    11    5   66 1    
    12    6    7 1    
    13    6   67 1    
    14    6   68 1    
    15    7    8 1    
    16    8    9 1    
    17    8   69 1    
    18    8   70 1    
    19    9   10 ar   
    20    9   14 ar   
    21   10   11 ar   
    22   10   71 1    
    23   11   12 ar   
    24   11   61 1    
    25   12   13 ar   
    26   12   72 1    
    27   13   14 ar   
    28   13   15 1    
    29   14   73 1    
    30   15   16 1    
    31   15   74 1    
    32   15   75 1    
    33   16   17 1    
    34   17   18 1    
    35   17   76 1    
    36   17   77 1    
    37   18   19 1    
    38   18   27 1    
    39   18   78 1    
    40   19   20 am   BACKBONE|DICT|INTERRES
    41   19   79 1    
    42   20   21 2    
    43   20   22 1    
    44   22   23 1    
    45   22   24 1    
    46   22   80 1    
    47   23   81 1    
    48   23   82 1    
    49   23   83 1    
    50   24   25 am   BACKBONE|DICT|INTERRES
    51   24   84 1    
    52   25   26 2    
    53   27   28 2    
    54   27   29 am   BACKBONE|DICT|INTERRES
    55   29   30 1    
    56   29   85 1    
    57   30   31 1    
    58   30   32 1    
    59   30   86 1    
    60   31   87 1    
    61   31   88 1    
    62   31   89 1    
    63   32   33 2    
    64   32   34 am   BACKBONE|DICT|INTERRES
    65   34   35 1    
    66   34   90 1    
    67   35   36 1    
    68   35   37 1    
    69   35   91 1    
    70   36   92 1    
    71   36   93 1    
    72   36   94 1    
    73   37   38 2    
    74   37   39 am   BACKBONE|DICT|INTERRES
    75   39   40 1    
    76   39   95 1    
    77   40   41 1    
    78   40   42 1    
    79   40   96 1    
    80   41   97 1    
    81   41   98 1    
    82   41   99 1    
    83   42   43 2    
    84   42   44 am   BACKBONE|DICT|INTERRES
    85   44   45 1    
    86   44  100 1    
    87   45   46 1    
    88   45   47 1    
    89   45  101 1    
    90   46  102 1    
    91   46  103 1    
    92   46  104 1    
    93   47   48 2    
    94   47   49 am   BACKBONE|DICT|INTERRES
    95   49   50 1    
    96   49  105 1    
    97   50   51 1    
    98   50   52 1    
    99   50  106 1    
   100   51  107 1    
   101   51  108 1    
   102   51  109 1    
   103   52   53 2    
   104   52   54 am   BACKBONE|DICT|INTERRES
   105   54   55 1    
   106   54  110 1    
   107   55   56 1    
   108   55   59 1    
   109   55  111 1    
   110   56   57 am   BACKBONE|DICT|INTERRES
   111   56   58 2    
   112   57  112 1    
   113   57  113 1    
   114   59   60 1    
   115   59  114 1    
   116   59  115 1    
   117   60   61 1    
   118   61  116 1    
   119   61  117 1    
@<TRIPOS>SUBSTRUCTURE
     1 UNK         1 GROUP             0       ****    0 ROOT    
