@<TRIPOS>MOLECULE
3R8
117   119    1
SMALL
USER_CHARGES


@<TRIPOS>ATOM
      1 CA         22.6646  -28.6079  -45.7186 C.3       0 UNK        -0.2013 
      2 C          21.1985  -28.2200  -45.6119 C.2       0 UNK         0.4866 
      3 O          20.7887  -27.6466  -44.6033 O.2       0 UNK        -0.5176 
      4 N          20.4031  -28.5036  -46.6535 N.am      1 UNK        -0.4884 
      5 CA         18.9428  -28.3117  -46.6955 C.3       1 UNK         0.0853 
      6 C6         18.2731  -29.3071  -47.6838 C.3       10 UNK        -0.0849 
      7 S7         16.5586  -29.7750  -47.2483 S.3       10 UNK        -0.2776 
      8 C8         16.7888  -31.0930  -46.0029 C.3       10 UNK         0.0316 
      9 C9         17.3198  -30.5370  -44.6887 C.ar      10 UNK        -0.0863 
     10 C10        18.6002  -30.8759  -44.2407 C.ar      10 UNK        -0.1009 
     11 C11        19.1242  -30.2878  -43.0852 C.ar      10 UNK        -0.0712 
     12 C12        18.3553  -29.3646  -42.3691 C.ar      10 UNK        -0.0894 
     13 C13        17.0716  -29.0224  -42.8040 C.ar      10 UNK        -0.0745 
     14 C14        16.5542  -29.6260  -43.9539 C.ar      10 UNK        -0.0972 
     15 C15        16.2393  -27.9930  -42.0522 C.3       10 UNK         0.0209 
     16 S16        16.1850  -26.4028  -42.9443 S.3       10 UNK        -0.2568 
     17 C17        17.4240  -25.3914  -42.0619 C.3       10 UNK        -0.0983 
     18 CA         18.8792  -25.5940  -42.5663 C.3       3 UNK         0.0876 
     19 N          19.0724  -25.4272  -44.0095 N.am      3 UNK        -0.4424 
     20 C          18.7278  -24.3999  -44.8032 C.2       2 UNK         0.4918 
     21 O          18.1180  -23.3987  -44.4258 O.2       2 UNK        -0.4875 
     22 CA         19.1315  -24.5096  -46.2922 C.3       2 UNK         0.0481 
     23 CB         20.3684  -23.6426  -46.5763 C.3       2 UNK        -0.1831 
     24 N          19.4166  -25.8922  -46.6864 N.am      2 UNK        -0.4498 
     25 C          18.4812  -26.8399  -46.8398 C.2       1 UNK         0.5027 
     26 O          17.2901  -26.5784  -47.0099 O.2       1 UNK        -0.4969 
     27 C          19.9001  -24.7691  -41.7547 C.2       3 UNK         0.5005 
     28 O          20.4931  -23.8164  -42.2676 O.2       3 UNK        -0.5279 
     29 N          20.1137  -25.1863  -40.4951 N.am      4 UNK        -0.4463 
     30 CA         21.0968  -24.6515  -39.5371 C.3       4 UNK         0.0283 
     31 CB         20.7520  -23.2005  -39.1380 C.3       4 UNK        -0.1875 
     32 C          22.5628  -24.8090  -39.9999 C.2       4 UNK         0.4949 
     33 O          23.4281  -24.0389  -39.5818 O.2       4 UNK        -0.5039 
     34 N          22.8177  -25.8150  -40.8482 N.am      5 UNK        -0.4663 
     35 CA         24.1217  -26.1007  -41.4531 C.3       5 UNK         0.0242 
     36 CB         23.8874  -26.8818  -42.7582 C.3       5 UNK        -0.1982 
     37 C          25.0790  -26.8770  -40.5304 C.2       5 UNK         0.5017 
     38 O          26.2621  -26.9793  -40.8555 O.2       5 UNK        -0.5012 
     39 N          24.5499  -27.4366  -39.4297 N.am      6 UNK        -0.4439 
     40 CA         25.2208  -28.3285  -38.4700 C.3       6 UNK         0.0297 
     41 CB         26.3556  -27.5952  -37.7228 C.3       6 UNK        -0.2006 
     42 C          25.6785  -29.6642  -39.0972 C.2       6 UNK         0.4892 
     43 O          26.6500  -30.2650  -38.6339 O.2       6 UNK        -0.5089 
     44 N          24.9607  -30.1025  -40.1386 N.am      7 UNK        -0.4243 
     45 CA         25.1571  -31.3701  -40.8379 C.3       7 UNK         0.0196 
     46 CB         24.6695  -31.1944  -42.2887 C.3       7 UNK        -0.2007 
     47 C          24.3921  -32.5080  -40.1409 C.2       7 UNK         0.5020 
     48 O          23.5845  -32.2596  -39.2426 O.2       7 UNK        -0.5147 
     49 N          24.6302  -33.7439  -40.6001 N.am      8 UNK        -0.4734 
     50 CA         23.8661  -34.9303  -40.1923 C.3       8 UNK         0.0238 
     51 CB         24.6332  -36.1974  -40.6051 C.3       8 UNK        -0.1912 
     52 C          22.4370  -34.9515  -40.7704 C.2       8 UNK         0.5038 
     53 O          21.5550  -35.5652  -40.1690 O.2       8 UNK        -0.5046 
     54 N          22.2457  -34.2810  -41.9164 N.am      9 UNK        -0.4200 
     55 CA         20.9696  -34.0892  -42.6292 C.3       9 UNK         0.0839 
     56 C          20.3565  -35.3853  -43.2421 C.2       9 UNK         0.5513 
     57 N          21.1123  -36.4664  -43.3925 N.am      9 UNK        -0.7519 
     58 O          19.1881  -35.4052  -43.6206 O.2       9 UNK        -0.4960 
     59 C59        19.9289  -33.2601  -41.8191 C.3       10 UNK        -0.0876 
     60 S60        20.5845  -31.6818  -41.1708 S.3       10 UNK        -0.2414 
     61 C61        20.5423  -30.6084  -42.6389 C.3       10 UNK         0.0169 
     62 H62        22.8743  -29.1641  -46.6320 H         1 UNK         0.0903 
     63 H63        23.2906  -27.7163  -45.7111 H         1 UNK         0.0903 
     64 H64        22.9480  -29.2309  -44.8707 H         1 UNK         0.0903 
     65 H65        20.8070  -28.9336  -47.4743 H         1 UNK         0.3096 
     66 H66        18.5965  -28.5599  -45.6949 H         1 UNK         0.1121 
     67 H67        18.2799  -28.9015  -48.6971 H         1 UNK         0.0849 
     68 H68        18.8495  -30.2322  -47.7362 H         1 UNK         0.0849 
     69 H69        15.8289  -31.5779  -45.8195 H         1 UNK         0.0865 
     70 H70        17.4493  -31.8637  -46.4032 H         1 UNK         0.0865 
     71 H71        19.2035  -31.5699  -44.8098 H         1 UNK         0.1346 
     72 H72        18.7653  -28.9071  -41.4798 H         1 UNK         0.1412 
     73 H73        15.5695  -29.3487  -44.3058 H         1 UNK         0.1426 
     74 H74        16.6133  -27.8520  -41.0373 H         1 UNK         0.0716 
     75 H75        15.2200  -28.3679  -41.9481 H         1 UNK         0.0716 
     76 H76        17.3486  -25.6106  -40.9957 H         1 UNK         0.0695 
     77 H77        17.1307  -24.3454  -42.1637 H         1 UNK         0.0695 
     78 H78        19.1397  -26.6375  -42.3898 H         1 UNK         0.0983 
     79 H79        19.6202  -26.1775  -44.4219 H         1 UNK         0.3095 
     80 H80        18.3024  -24.1337  -46.8952 H         1 UNK         0.0454 
     81 H81        21.2309  -23.9646  -45.9913 H         1 UNK         0.0851 
     82 H82        20.1771  -22.5987  -46.3242 H         1 UNK         0.0851 
     83 H83        20.6438  -23.6749  -47.6305 H         1 UNK         0.0851 
     84 H84        20.3696  -26.2063  -46.5698 H         1 UNK         0.2976 
     85 H85        19.5766  -25.9737  -40.1572 H         1 UNK         0.3116 
     86 H86        21.0042  -25.2641  -38.6391 H         1 UNK         0.0646 
     87 H87        19.7179  -23.1147  -38.8048 H         1 UNK         0.0847 
     88 H88        21.3837  -22.8594  -38.3169 H         1 UNK         0.0847 
     89 H89        20.8968  -22.5061  -39.9660 H         1 UNK         0.0847 
     90 H90        22.0448  -26.3913  -41.1468 H         1 UNK         0.3040 
     91 H91        24.6086  -25.1546  -41.7013 H         1 UNK         0.1015 
     92 H92        23.4012  -27.8412  -42.5765 H         1 UNK         0.0786 
     93 H93        24.8295  -27.0857  -43.2692 H         1 UNK         0.0786 
     94 H94        23.2618  -26.3168  -43.4500 H         1 UNK         0.0786 
     95 H95        23.5667  -27.2735  -39.2637 H         1 UNK         0.3172 
     96 H96        24.4644  -28.5941  -37.7300 H         1 UNK         0.0595 
     97 H97        27.1946  -27.3670  -38.3806 H         1 UNK         0.0839 
     98 H98        26.7431  -28.2050  -36.9058 H         1 UNK         0.0839 
     99 H99        26.0052  -26.6591  -37.2880 H         1 UNK         0.0839 
    100 H100       24.1492  -29.5676  -40.4069 H         1 UNK         0.2998 
    101 H101       26.2207  -31.6186  -40.8461 H         1 UNK         0.0822 
    102 H102       24.8712  -32.0830  -42.8876 H         1 UNK         0.0787 
    103 H103       23.5961  -31.0055  -42.3340 H         1 UNK         0.0787 
    104 H104       25.1748  -30.3607  -42.7772 H         1 UNK         0.0787 
    105 H105       25.3277  -33.8742  -41.3198 H         1 UNK         0.3055 
    106 H106       23.7743  -34.9246  -39.1035 H         1 UNK         0.1106 
    107 H107       25.6176  -36.2348  -40.1382 H         1 UNK         0.0828 
    108 H108       24.0968  -37.0957  -40.2957 H         1 UNK         0.0828 
    109 H109       24.7707  -36.2561  -41.6854 H         1 UNK         0.0828 
    110 H110       23.0451  -33.8282  -42.3311 H         1 UNK         0.2931 
    111 H111       21.2325  -33.4905  -43.5014 H         1 UNK         0.0412 
    112 H112       22.0749  -36.4633  -43.0960 H         1 UNK         0.3472 
    113 H113       20.7112  -37.2967  -43.8001 H         1 UNK         0.3472 
    114 H114       19.0468  -33.0474  -42.4245 H         1 UNK         0.0970 
    115 H115       19.5671  -33.8434  -40.9711 H         1 UNK         0.0970 
    116 H116       21.0606  -29.6772  -42.4053 H         1 UNK         0.0612 
    117 H117       21.1097  -31.0721  -43.4467 H         1 UNK         0.0612 
@<TRIPOS>BOND
     1    1    2 1    
     2    1   62 1    
     3    1   63 1    
     4    1   64 1    
     5    2    3 2    
     6    2    4 am   BACKBONE|DICT|INTERRES
     7    4    5 1    
     8    4   65 1    
     9    5    6 1    
    10    5   25 1    
    11    5   66 1    
    12    6    7 1    
    13    6   67 1    
    14    6   68 1    
    15    7    8 1    
    16    8    9 1    
    17    8   69 1    
    18    8   70 1    
    19    9   10 ar   
    20    9   14 ar   
    21   10   11 ar   
    22   10   71 1    
    23   11   12 ar   
    24   11   61 1    
    25   12   13 ar   
    26   12   72 1    
    27   13   14 ar   
    28   13   15 1    
    29   14   73 1    
    30   15   16 1    
    31   15   74 1    
    32   15   75 1    
    33   16   17 1    
    34   17   18 1    
    35   17   76 1    
    36   17   77 1    
    37   18   19 1    
    38   18   27 1    
    39   18   78 1    
    40   19   20 am   BACKBONE|DICT|INTERRES
    41   19   79 1    
    42   20   21 2    
    43   20   22 1    
    44   22   23 1    
    45   22   24 1    
    46   22   80 1    
    47   23   81 1    
    48   23   82 1    
    49   23   83 1    
    50   24   25 am   BACKBONE|DICT|INTERRES
    51   24   84 1    
    52   25   26 2    
    53   27   28 2    
    54   27   29 am   BACKBONE|DICT|INTERRES
    55   29   30 1    
    56   29   85 1    
    57   30   31 1    
    58   30   32 1    
    59   30   86 1    
    60   31   87 1    
    61   31   88 1    
    62   31   89 1    
    63   32   33 2    
    64   32   34 am   BACKBONE|DICT|INTERRES
    65   34   35 1    
    66   34   90 1    
    67   35   36 1    
    68   35   37 1    
    69   35   91 1    
    70   36   92 1    
    71   36   93 1    
    72   36   94 1    
    73   37   38 2    
    74   37   39 am   BACKBONE|DICT|INTERRES
    75   39   40 1    
    76   39   95 1    
    77   40   41 1    
    78   40   42 1    
    79   40   96 1    
    80   41   97 1    
    81   41   98 1    
    82   41   99 1    
    83   42   43 2    
    84   42   44 am   BACKBONE|DICT|INTERRES
    85   44   45 1    
    86   44  100 1    
    87   45   46 1    
    88   45   47 1    
    89   45  101 1    
    90   46  102 1    
    91   46  103 1    
    92   46  104 1    
    93   47   48 2    
    94   47   49 am   BACKBONE|DICT|INTERRES
    95   49   50 1    
    96   49  105 1    
    97   50   51 1    
    98   50   52 1    
    99   50  106 1    
   100   51  107 1    
   101   51  108 1    
   102   51  109 1    
   103   52   53 2    
   104   52   54 am   BACKBONE|DICT|INTERRES
   105   54   55 1    
   106   54  110 1    
   107   55   56 1    
   108   55   59 1    
   109   55  111 1    
   110   56   57 am   BACKBONE|DICT|INTERRES
   111   56   58 2    
   112   57  112 1    
   113   57  113 1    
   114   59   60 1    
   115   59  114 1    
   116   59  115 1    
   117   60   61 1    
   118   61  116 1    
   119   61  117 1    
@<TRIPOS>SUBSTRUCTURE
     1 UNK         1 GROUP             0       ****    0 ROOT    
