@<TRIPOS>MOLECULE
3R8
117   119    1
SMALL
USER_CHARGES


@<TRIPOS>ATOM
      1 CA         20.7194  -24.4760  -48.0021 C.3       0 UNK        -0.2013 
      2 C          19.4413  -24.7585  -47.2269 C.2       0 UNK         0.4866 
      3 O          18.5837  -23.8817  -47.1249 O.2       0 UNK        -0.5176 
      4 N          19.3158  -25.9739  -46.6734 N.am      1 UNK        -0.4884 
      5 CA         18.1667  -26.4627  -45.8918 C.3       1 UNK         0.0853 
      6 C6         16.8544  -26.4964  -46.7270 C.3       10 UNK        -0.0849 
      7 S7         15.5882  -27.6918  -46.1731 S.3       10 UNK        -0.2776 
      8 C8         16.3605  -29.3147  -46.5002 C.3       10 UNK         0.0316 
      9 C9         17.1852  -29.8288  -45.3226 C.ar      10 UNK        -0.0863 
     10 C10        18.4860  -30.3041  -45.5226 C.ar      10 UNK        -0.1009 
     11 C11        19.2350  -30.7960  -44.4483 C.ar      10 UNK        -0.0712 
     12 C12        18.6796  -30.8091  -43.1656 C.ar      10 UNK        -0.0894 
     13 C13        17.3830  -30.3363  -42.9522 C.ar      10 UNK        -0.0745 
     14 C14        16.6399  -29.8569  -44.0342 C.ar      10 UNK        -0.0972 
     15 C15        16.7685  -30.3549  -41.5616 C.3       10 UNK         0.0209 
     16 S16        16.8514  -28.7147  -40.7764 S.3       10 UNK        -0.2568 
     17 C17        18.4740  -28.7529  -39.9405 C.3       10 UNK        -0.0983 
     18 CA         19.6153  -28.0666  -40.7332 C.3       3 UNK         0.0876 
     19 N          19.2368  -26.7410  -41.2421 N.am      3 UNK        -0.4424 
     20 C          20.0229  -25.9134  -41.9421 C.2       2 UNK         0.4918 
     21 O          21.2313  -26.0802  -42.1133 O.2       2 UNK        -0.4875 
     22 CA         19.3256  -24.7472  -42.6492 C.3       2 UNK         0.0481 
     23 CB         20.1767  -23.4662  -42.6232 C.3       2 UNK        -0.1831 
     24 N          19.1256  -25.1662  -44.0323 N.am      2 UNK        -0.4498 
     25 C          18.0368  -25.7922  -44.4996 C.2       1 UNK         0.5027 
     26 O          16.9940  -25.8899  -43.8519 O.2       1 UNK        -0.4969 
     27 C          20.9094  -28.0786  -39.8954 C.2       3 UNK         0.5005 
     28 O          21.7269  -28.9831  -40.0643 O.2       3 UNK        -0.5279 
     29 N          21.0789  -27.0723  -39.0255 N.am      4 UNK        -0.4463 
     30 CA         22.2528  -26.9146  -38.1632 C.3       4 UNK         0.0283 
     31 CB         21.9666  -25.8531  -37.0890 C.3       4 UNK        -0.1875 
     32 C          23.5297  -26.5630  -38.9440 C.2       4 UNK         0.4949 
     33 O          24.5912  -27.1056  -38.6397 O.2       4 UNK        -0.5039 
     34 N          23.4035  -25.6820  -39.9464 N.am      5 UNK        -0.4663 
     35 CA         24.5026  -25.2670  -40.8244 C.3       5 UNK         0.0242 
     36 CB         24.1137  -23.9758  -41.5612 C.3       5 UNK        -0.1982 
     37 C          24.8891  -26.3680  -41.8240 C.2       5 UNK         0.5017 
     38 O          26.0740  -26.5479  -42.1046 O.2       5 UNK        -0.5012 
     39 N          23.8813  -27.1036  -42.3113 N.am      6 UNK        -0.4439 
     40 CA         24.0241  -28.2689  -43.1859 C.3       6 UNK         0.0297 
     41 CB         22.6837  -28.5128  -43.8955 C.3       6 UNK        -0.2006 
     42 C          24.4984  -29.5425  -42.4546 C.2       6 UNK         0.4892 
     43 O          24.7711  -30.5406  -43.1228 O.2       6 UNK        -0.5089 
     44 N          24.5830  -29.4901  -41.1155 N.am      7 UNK        -0.4243 
     45 CA         25.0043  -30.5523  -40.1955 C.3       7 UNK         0.0196 
     46 CB         26.5008  -30.8791  -40.3852 C.3       7 UNK        -0.2007 
     47 C          24.0984  -31.7951  -40.2696 C.2       7 UNK         0.5020 
     48 O          24.5939  -32.9207  -40.3391 O.2       7 UNK        -0.5147 
     49 N          22.7786  -31.5613  -40.2836 N.am      8 UNK        -0.4734 
     50 CA         21.6606  -32.5179  -40.3185 C.3       8 UNK         0.0238 
     51 CB         21.6689  -33.4227  -39.0707 C.3       8 UNK        -0.1912 
     52 C          21.5231  -33.3577  -41.6045 C.2       8 UNK         0.5038 
     53 O          20.4075  -33.7874  -41.8939 O.2       8 UNK        -0.5046 
     54 N          22.6282  -33.5722  -42.3313 N.am      9 UNK        -0.4200 
     55 CA         22.7811  -34.3102  -43.5995 C.3       9 UNK         0.0839 
     56 C          22.2647  -35.7824  -43.6302 C.2       9 UNK         0.5513 
     57 N          22.0425  -36.4285  -42.4922 N.am      9 UNK        -0.7519 
     58 O          22.1130  -36.3706  -44.6983 O.2       9 UNK        -0.4960 
     59 C59        22.4210  -33.4677  -44.8600 C.3       10 UNK        -0.0876 
     60 S60        20.6491  -33.0822  -45.0783 S.3       10 UNK        -0.2414 
     61 C61        20.6460  -31.3135  -44.6668 C.3       10 UNK         0.0169 
     62 H62        21.3934  -25.3325  -48.0075 H         1 UNK         0.0903 
     63 H63        20.4825  -24.2255  -49.0358 H         1 UNK         0.0903 
     64 H64        21.2477  -23.6317  -47.5599 H         1 UNK         0.0903 
     65 H65        20.0625  -26.6444  -46.7995 H         1 UNK         0.3096 
     66 H66        18.4332  -27.4914  -45.6595 H         1 UNK         0.1121 
     67 H67        17.0832  -26.7388  -47.7661 H         1 UNK         0.0849 
     68 H68        16.3994  -25.5048  -46.7544 H         1 UNK         0.0849 
     69 H69        15.5704  -30.0388  -46.7034 H         1 UNK         0.0865 
     70 H70        16.9609  -29.2565  -47.4094 H         1 UNK         0.0865 
     71 H71        18.9162  -30.3014  -46.5150 H         1 UNK         0.1346 
     72 H72        19.2545  -31.1961  -42.3360 H         1 UNK         0.1412 
     73 H73        15.6338  -29.4954  -43.8696 H         1 UNK         0.1426 
     74 H74        17.2458  -31.1066  -40.9313 H         1 UNK         0.0716 
     75 H75        15.7208  -30.6498  -41.6371 H         1 UNK         0.0716 
     76 H76        18.7378  -29.7874  -39.7126 H         1 UNK         0.0695 
     77 H77        18.3387  -28.2624  -38.9744 H         1 UNK         0.0695 
     78 H78        19.8171  -28.6746  -41.6167 H         1 UNK         0.0983 
     79 H79        18.2473  -26.5381  -41.2008 H         1 UNK         0.3095 
     80 H80        18.3721  -24.5380  -42.1597 H         1 UNK         0.0454 
     81 H81        21.1203  -23.5905  -43.1551 H         1 UNK         0.0851 
     82 H82        20.4129  -23.1734  -41.5995 H         1 UNK         0.0851 
     83 H83        19.6456  -22.6336  -43.0846 H         1 UNK         0.0851 
     84 H84        19.9443  -25.1526  -44.6234 H         1 UNK         0.2976 
     85 H85        20.3561  -26.3701  -38.9570 H         1 UNK         0.3116 
     86 H86        22.4276  -27.8672  -37.6578 H         1 UNK         0.0646 
     87 H87        21.7574  -24.8764  -37.5270 H         1 UNK         0.0847 
     88 H88        22.8221  -25.7338  -36.4225 H         1 UNK         0.0847 
     89 H89        21.1143  -26.1339  -36.4701 H         1 UNK         0.0847 
     90 H90        22.4832  -25.3302  -40.1700 H         1 UNK         0.3040 
     91 H91        25.3784  -25.0577  -40.2056 H         1 UNK         0.1015 
     92 H92        23.2532  -24.1271  -42.2128 H         1 UNK         0.0786 
     93 H93        24.9354  -23.6220  -42.1853 H         1 UNK         0.0786 
     94 H94        23.8706  -23.1759  -40.8617 H         1 UNK         0.0786 
     95 H95        22.9305  -26.8296  -42.0708 H         1 UNK         0.3172 
     96 H96        24.7721  -28.0347  -43.9461 H         1 UNK         0.0595 
     97 H97        21.9027  -28.8036  -43.1919 H         1 UNK         0.0839 
     98 H98        22.7832  -29.3074  -44.6345 H         1 UNK         0.0839 
     99 H99        22.3435  -27.6222  -44.4240 H         1 UNK         0.0839 
    100 H100       24.2878  -28.6308  -40.6719 H         1 UNK         0.2998 
    101 H101       24.8809  -30.1477  -39.1896 H         1 UNK         0.0822 
    102 H102       27.1153  -29.9830  -40.2987 H         1 UNK         0.0787 
    103 H103       26.8459  -31.5829  -39.6268 H         1 UNK         0.0787 
    104 H104       26.6979  -31.3287  -41.3590 H         1 UNK         0.0787 
    105 H105       22.4867  -30.5827  -40.2495 H         1 UNK         0.3055 
    106 H106       20.7597  -31.9039  -40.2678 H         1 UNK         0.1106 
    107 H107       20.7815  -34.0567  -39.0433 H         1 UNK         0.0828 
    108 H108       22.5370  -34.0820  -39.0496 H         1 UNK         0.0828 
    109 H109       21.6725  -32.8332  -38.1540 H         1 UNK         0.0828 
    110 H110       23.4939  -33.2341  -41.9242 H         1 UNK         0.2931 
    111 H111       23.8615  -34.4465  -43.6603 H         1 UNK         0.0412 
    112 H112       22.1621  -35.9592  -41.6091 H         1 UNK         0.3472 
    113 H113       21.7252  -37.3849  -42.5196 H         1 UNK         0.3472 
    114 H114       22.7571  -33.9868  -45.7593 H         1 UNK         0.0970 
    115 H115       22.9938  -32.5388  -44.8452 H         1 UNK         0.0970 
    116 H116       21.2430  -31.1503  -43.7684 H         1 UNK         0.0612 
    117 H117       21.1290  -30.7608  -45.4734 H         1 UNK         0.0612 
@<TRIPOS>BOND
     1    1    2 1    
     2    1   62 1    
     3    1   63 1    
     4    1   64 1    
     5    2    3 2    
     6    2    4 am   BACKBONE|DICT|INTERRES
     7    4    5 1    
     8    4   65 1    
     9    5    6 1    
    10    5   25 1    
    11    5   66 1    
    12    6    7 1    
    13    6   67 1    
    14    6   68 1    
    15    7    8 1    
    16    8    9 1    
    17    8   69 1    
    18    8   70 1    
    19    9   10 ar   
    20    9   14 ar   
    21   10   11 ar   
    22   10   71 1    
    23   11   12 ar   
    24   11   61 1    
    25   12   13 ar   
    26   12   72 1    
    27   13   14 ar   
    28   13   15 1    
    29   14   73 1    
    30   15   16 1    
    31   15   74 1    
    32   15   75 1    
    33   16   17 1    
    34   17   18 1    
    35   17   76 1    
    36   17   77 1    
    37   18   19 1    
    38   18   27 1    
    39   18   78 1    
    40   19   20 am   BACKBONE|DICT|INTERRES
    41   19   79 1    
    42   20   21 2    
    43   20   22 1    
    44   22   23 1    
    45   22   24 1    
    46   22   80 1    
    47   23   81 1    
    48   23   82 1    
    49   23   83 1    
    50   24   25 am   BACKBONE|DICT|INTERRES
    51   24   84 1    
    52   25   26 2    
    53   27   28 2    
    54   27   29 am   BACKBONE|DICT|INTERRES
    55   29   30 1    
    56   29   85 1    
    57   30   31 1    
    58   30   32 1    
    59   30   86 1    
    60   31   87 1    
    61   31   88 1    
    62   31   89 1    
    63   32   33 2    
    64   32   34 am   BACKBONE|DICT|INTERRES
    65   34   35 1    
    66   34   90 1    
    67   35   36 1    
    68   35   37 1    
    69   35   91 1    
    70   36   92 1    
    71   36   93 1    
    72   36   94 1    
    73   37   38 2    
    74   37   39 am   BACKBONE|DICT|INTERRES
    75   39   40 1    
    76   39   95 1    
    77   40   41 1    
    78   40   42 1    
    79   40   96 1    
    80   41   97 1    
    81   41   98 1    
    82   41   99 1    
    83   42   43 2    
    84   42   44 am   BACKBONE|DICT|INTERRES
    85   44   45 1    
    86   44  100 1    
    87   45   46 1    
    88   45   47 1    
    89   45  101 1    
    90   46  102 1    
    91   46  103 1    
    92   46  104 1    
    93   47   48 2    
    94   47   49 am   BACKBONE|DICT|INTERRES
    95   49   50 1    
    96   49  105 1    
    97   50   51 1    
    98   50   52 1    
    99   50  106 1    
   100   51  107 1    
   101   51  108 1    
   102   51  109 1    
   103   52   53 2    
   104   52   54 am   BACKBONE|DICT|INTERRES
   105   54   55 1    
   106   54  110 1    
   107   55   56 1    
   108   55   59 1    
   109   55  111 1    
   110   56   57 am   BACKBONE|DICT|INTERRES
   111   56   58 2    
   112   57  112 1    
   113   57  113 1    
   114   59   60 1    
   115   59  114 1    
   116   59  115 1    
   117   60   61 1    
   118   61  116 1    
   119   61  117 1    
@<TRIPOS>SUBSTRUCTURE
     1 UNK         1 GROUP             0       ****    0 ROOT    
