@<TRIPOS>MOLECULE
3R8
117   119    1
SMALL
USER_CHARGES


@<TRIPOS>ATOM
      1 CA         13.6554  -23.3708  -42.7670 C.3       0 UNK        -0.2013 
      2 C          14.7391  -23.7469  -43.7660 C.2       0 UNK         0.4866 
      3 O          15.7530  -23.0552  -43.8604 O.2       0 UNK        -0.5176 
      4 N          14.5350  -24.8398  -44.5126 N.am      1 UNK        -0.4884 
      5 CA         15.4777  -25.3623  -45.5119 C.3       1 UNK         0.0853 
      6 C6         14.7681  -26.2824  -46.5391 C.3       10 UNK        -0.0849 
      7 S7         13.9166  -27.7200  -45.7907 S.3       10 UNK        -0.2776 
      8 C8         14.6325  -29.1213  -46.7118 C.3       10 UNK         0.0316 
      9 C9         15.9982  -29.5519  -46.1877 C.ar      10 UNK        -0.0863 
     10 C10        16.0941  -30.2598  -44.9849 C.ar      10 UNK        -0.1009 
     11 C11        17.3266  -30.7404  -44.5275 C.ar      10 UNK        -0.0712 
     12 C12        18.4688  -30.5073  -45.3028 C.ar      10 UNK        -0.0894 
     13 C13        18.3972  -29.7787  -46.4918 C.ar      10 UNK        -0.0745 
     14 C14        17.1576  -29.3007  -46.9292 C.ar      10 UNK        -0.0972 
     15 C15        19.6540  -29.5519  -47.3239 C.3       10 UNK         0.0209 
     16 S16        20.5816  -28.0660  -46.8152 S.3       10 UNK        -0.2568 
     17 C17        21.4827  -28.6278  -45.3265 C.3       10 UNK        -0.0983 
     18 CA         21.1107  -27.8147  -44.0579 C.3       3 UNK         0.0876 
     19 N          19.6774  -27.8845  -43.7685 N.am      3 UNK        -0.4424 
     20 C          18.9792  -27.0221  -43.0216 C.2       2 UNK         0.4918 
     21 O          19.4627  -26.0292  -42.4728 O.2       2 UNK        -0.4875 
     22 CA         17.4856  -27.3431  -42.8542 C.3       2 UNK         0.0481 
     23 CB         17.0820  -27.3137  -41.3708 C.3       2 UNK        -0.1831 
     24 N          16.5808  -26.4814  -43.6192 N.am      2 UNK        -0.4498 
     25 C          16.7014  -26.0696  -44.8930 C.2       1 UNK         0.5027 
     26 O          17.6937  -26.2433  -45.5992 O.2       1 UNK        -0.4969 
     27 C          21.9293  -28.2434  -42.8194 C.2       3 UNK         0.5005 
     28 O          22.5615  -29.2991  -42.8246 O.2       3 UNK        -0.5279 
     29 N          21.8711  -27.4267  -41.7599 N.am      4 UNK        -0.4463 
     30 CA         22.4899  -27.6683  -40.4531 C.3       4 UNK         0.0283 
     31 CB         21.7894  -26.7874  -39.4055 C.3       4 UNK        -0.1875 
     32 C          24.0151  -27.4580  -40.4142 C.2       4 UNK         0.4949 
     33 O          24.6216  -27.7038  -39.3702 O.2       4 UNK        -0.5039 
     34 N          24.6150  -27.0092  -41.5267 N.am      5 UNK        -0.4663 
     35 CA         26.0584  -26.8296  -41.7061 C.3       5 UNK         0.0242 
     36 CB         26.3323  -26.3207  -43.1307 C.3       5 UNK        -0.1982 
     37 C          26.8245  -28.1358  -41.4358 C.2       5 UNK         0.5017 
     38 O          26.5237  -29.1526  -42.0636 O.2       5 UNK        -0.5012 
     39 N          27.7477  -28.0923  -40.4640 N.am      6 UNK        -0.4439 
     40 CA         28.5208  -29.2241  -39.9301 C.3       6 UNK         0.0297 
     41 CB         29.5126  -29.7515  -40.9896 C.3       6 UNK        -0.2006 
     42 C          27.6533  -30.3525  -39.3249 C.2       6 UNK         0.4892 
     43 O          28.1192  -31.4900  -39.2407 O.2       6 UNK        -0.5089 
     44 N          26.4144  -30.0218  -38.9213 N.am      7 UNK        -0.4243 
     45 CA         25.3699  -30.9205  -38.4151 C.3       7 UNK         0.0196 
     46 CB         25.7674  -31.5154  -37.0470 C.3       7 UNK        -0.2007 
     47 C          24.9388  -31.9927  -39.4376 C.2       7 UNK         0.5020 
     48 O          24.5684  -33.0993  -39.0427 O.2       7 UNK        -0.5147 
     49 N          24.9870  -31.6545  -40.7357 N.am      8 UNK        -0.4734 
     50 CA         24.6350  -32.5526  -41.8420 C.3       8 UNK         0.0238 
     51 CB         25.1221  -31.9379  -43.1640 C.3       8 UNK        -0.1912 
     52 C          23.1360  -32.8962  -41.9290 C.2       8 UNK         0.5038 
     53 O          22.7921  -33.9152  -42.5297 O.2       8 UNK        -0.5046 
     54 N          22.2792  -32.0565  -41.3400 N.am      9 UNK        -0.4200 
     55 CA         20.8225  -32.2046  -41.2923 C.3       9 UNK         0.0839 
     56 C          20.2340  -31.4707  -40.0580 C.2       9 UNK         0.5513 
     57 N          18.9405  -31.6156  -39.8098 N.am      9 UNK        -0.7519 
     58 O          20.9320  -30.7749  -39.3228 O.2       9 UNK        -0.4960 
     59 C59        20.1624  -31.7783  -42.6339 C.3       10 UNK        -0.0876 
     60 S60        18.6754  -32.7569  -43.0467 S.3       10 UNK        -0.2414 
     61 C61        17.3852  -31.4700  -43.1822 C.3       10 UNK         0.0169 
     62 H62        14.0623  -23.3657  -41.7561 H         1 UNK         0.0903 
     63 H63        13.2738  -22.3738  -42.9856 H         1 UNK         0.0903 
     64 H64        12.8174  -24.0672  -42.7919 H         1 UNK         0.0903 
     65 H65        13.6839  -25.3751  -44.4033 H         1 UNK         0.3096 
     66 H66        15.8761  -24.5083  -46.0652 H         1 UNK         0.1121 
     67 H67        14.0220  -25.7040  -47.0861 H         1 UNK         0.0849 
     68 H68        15.4781  -26.6223  -47.2957 H         1 UNK         0.0849 
     69 H69        13.9478  -29.9673  -46.6348 H         1 UNK         0.0865 
     70 H70        14.6799  -28.8774  -47.7743 H         1 UNK         0.0865 
     71 H71        15.1986  -30.4413  -44.4057 H         1 UNK         0.1346 
     72 H72        19.4255  -30.8935  -44.9939 H         1 UNK         0.1412 
     73 H73        17.0945  -28.7516  -47.8587 H         1 UNK         0.1426 
     74 H74        19.3806  -29.4415  -48.3743 H         1 UNK         0.0716 
     75 H75        20.3049  -30.4264  -47.2771 H         1 UNK         0.0716 
     76 H76        22.5489  -28.5214  -45.5354 H         1 UNK         0.0695 
     77 H77        21.3199  -29.6943  -45.1713 H         1 UNK         0.0695 
     78 H78        21.3618  -26.7705  -44.2586 H         1 UNK         0.0983 
     79 H79        19.1726  -28.6187  -44.2446 H         1 UNK         0.3095 
     80 H80        17.3158  -28.3568  -43.2118 H         1 UNK         0.0454 
     81 H81        17.7366  -27.9516  -40.7748 H         1 UNK         0.0851 
     82 H82        16.0638  -27.6753  -41.2269 H         1 UNK         0.0851 
     83 H83        17.1437  -26.3065  -40.9565 H         1 UNK         0.0851 
     84 H84        15.7123  -26.2464  -43.1626 H         1 UNK         0.2976 
     85 H85        21.2650  -26.6147  -41.8341 H         1 UNK         0.3116 
     86 H86        22.3158  -28.7115  -40.1865 H         1 UNK         0.0646 
     87 H87        21.9257  -25.7258  -39.6147 H         1 UNK         0.0847 
     88 H88        20.7186  -26.9895  -39.3703 H         1 UNK         0.0847 
     89 H89        22.1835  -26.9766  -38.4059 H         1 UNK         0.0847 
     90 H90        24.0370  -26.8616  -42.3397 H         1 UNK         0.3040 
     91 H91        26.3867  -26.0661  -40.9977 H         1 UNK         0.1015 
     92 H92        27.4002  -26.1649  -43.2902 H         1 UNK         0.0786 
     93 H93        25.8357  -25.3681  -43.3159 H         1 UNK         0.0786 
     94 H94        25.9908  -27.0310  -43.8852 H         1 UNK         0.0786 
     95 H95        27.8963  -27.2106  -39.9914 H         1 UNK         0.3172 
     96 H96        29.1074  -28.8240  -39.1019 H         1 UNK         0.0595 
     97 H97        28.9978  -30.2376  -41.8190 H         1 UNK         0.0839 
     98 H98        30.1953  -30.4847  -40.5583 H         1 UNK         0.0839 
     99 H99        30.1231  -28.9467  -41.3988 H         1 UNK         0.0839 
    100 H100       26.1114  -29.0614  -39.0539 H         1 UNK         0.2998 
    101 H101       24.4895  -30.2962  -38.2546 H         1 UNK         0.0822 
    102 H102       24.9350  -32.0613  -36.6011 H         1 UNK         0.0787 
    103 H103       26.0539  -30.7342  -36.3429 H         1 UNK         0.0787 
    104 H104       26.6017  -32.2120  -37.1343 H         1 UNK         0.0787 
    105 H105       25.3378  -30.7387  -40.9937 H         1 UNK         0.3055 
    106 H106       25.1673  -33.4941  -41.6888 H         1 UNK         0.1106 
    107 H107       26.2011  -31.7828  -43.1557 H         1 UNK         0.0828 
    108 H108       24.8948  -32.5898  -44.0085 H         1 UNK         0.0828 
    109 H109       24.6484  -30.9746  -43.3579 H         1 UNK         0.0828 
    110 H110       22.6399  -31.2450  -40.8576 H         1 UNK         0.2931 
    111 H111       20.6320  -33.2659  -41.1202 H         1 UNK         0.0412 
    112 H112       18.3654  -32.1936  -40.4032 H         1 UNK         0.3472 
    113 H113       18.5380  -31.1536  -39.0095 H         1 UNK         0.3472 
    114 H114       19.9407  -30.7100  -42.6355 H         1 UNK         0.0970 
    115 H115       20.8612  -31.9278  -43.4583 H         1 UNK         0.0970 
    116 H116       16.4268  -31.9575  -42.9969 H         1 UNK         0.0612 
    117 H117       17.5129  -30.7391  -42.3827 H         1 UNK         0.0612 
@<TRIPOS>BOND
     1    1    2 1    
     2    1   62 1    
     3    1   63 1    
     4    1   64 1    
     5    2    3 2    
     6    2    4 am   BACKBONE|DICT|INTERRES
     7    4    5 1    
     8    4   65 1    
     9    5    6 1    
    10    5   25 1    
    11    5   66 1    
    12    6    7 1    
    13    6   67 1    
    14    6   68 1    
    15    7    8 1    
    16    8    9 1    
    17    8   69 1    
    18    8   70 1    
    19    9   10 ar   
    20    9   14 ar   
    21   10   11 ar   
    22   10   71 1    
    23   11   12 ar   
    24   11   61 1    
    25   12   13 ar   
    26   12   72 1    
    27   13   14 ar   
    28   13   15 1    
    29   14   73 1    
    30   15   16 1    
    31   15   74 1    
    32   15   75 1    
    33   16   17 1    
    34   17   18 1    
    35   17   76 1    
    36   17   77 1    
    37   18   19 1    
    38   18   27 1    
    39   18   78 1    
    40   19   20 am   BACKBONE|DICT|INTERRES
    41   19   79 1    
    42   20   21 2    
    43   20   22 1    
    44   22   23 1    
    45   22   24 1    
    46   22   80 1    
    47   23   81 1    
    48   23   82 1    
    49   23   83 1    
    50   24   25 am   BACKBONE|DICT|INTERRES
    51   24   84 1    
    52   25   26 2    
    53   27   28 2    
    54   27   29 am   BACKBONE|DICT|INTERRES
    55   29   30 1    
    56   29   85 1    
    57   30   31 1    
    58   30   32 1    
    59   30   86 1    
    60   31   87 1    
    61   31   88 1    
    62   31   89 1    
    63   32   33 2    
    64   32   34 am   BACKBONE|DICT|INTERRES
    65   34   35 1    
    66   34   90 1    
    67   35   36 1    
    68   35   37 1    
    69   35   91 1    
    70   36   92 1    
    71   36   93 1    
    72   36   94 1    
    73   37   38 2    
    74   37   39 am   BACKBONE|DICT|INTERRES
    75   39   40 1    
    76   39   95 1    
    77   40   41 1    
    78   40   42 1    
    79   40   96 1    
    80   41   97 1    
    81   41   98 1    
    82   41   99 1    
    83   42   43 2    
    84   42   44 am   BACKBONE|DICT|INTERRES
    85   44   45 1    
    86   44  100 1    
    87   45   46 1    
    88   45   47 1    
    89   45  101 1    
    90   46  102 1    
    91   46  103 1    
    92   46  104 1    
    93   47   48 2    
    94   47   49 am   BACKBONE|DICT|INTERRES
    95   49   50 1    
    96   49  105 1    
    97   50   51 1    
    98   50   52 1    
    99   50  106 1    
   100   51  107 1    
   101   51  108 1    
   102   51  109 1    
   103   52   53 2    
   104   52   54 am   BACKBONE|DICT|INTERRES
   105   54   55 1    
   106   54  110 1    
   107   55   56 1    
   108   55   59 1    
   109   55  111 1    
   110   56   57 am   BACKBONE|DICT|INTERRES
   111   56   58 2    
   112   57  112 1    
   113   57  113 1    
   114   59   60 1    
   115   59  114 1    
   116   59  115 1    
   117   60   61 1    
   118   61  116 1    
   119   61  117 1    
@<TRIPOS>SUBSTRUCTURE
     1 UNK         1 GROUP             0       ****    0 ROOT    
