@<TRIPOS>MOLECULE
3R8
117   119    1
SMALL
USER_CHARGES


@<TRIPOS>ATOM
      1 CA         14.6797  -29.3954  -41.8008 C.3       0 UNK        -0.2013 
      2 C          14.8072  -27.9617  -42.2924 C.2       0 UNK         0.4866 
      3 O          14.2737  -27.0481  -41.6631 O.2       0 UNK        -0.5176 
      4 N          15.5002  -27.7654  -43.4200 N.am      1 UNK        -0.4884 
      5 CA         15.7103  -26.4662  -44.0697 C.3       1 UNK         0.0853 
      6 C6         16.2377  -26.5905  -45.5201 C.3       10 UNK        -0.0849 
      7 S7         15.1405  -27.6206  -46.5514 S.3       10 UNK        -0.2776 
      8 C8         16.3332  -28.4889  -47.6202 C.3       10 UNK         0.0316 
      9 C9         17.2754  -29.4177  -46.8606 C.ar      10 UNK        -0.0863 
     10 C10        16.7783  -30.3957  -45.9933 C.ar      10 UNK        -0.1009 
     11 C11        17.6396  -31.2936  -45.3534 C.ar      10 UNK        -0.0712 
     12 C12        19.0186  -31.2031  -45.5932 C.ar      10 UNK        -0.0894 
     13 C13        19.5283  -30.2369  -46.4667 C.ar      10 UNK        -0.0745 
     14 C14        18.6516  -29.3435  -47.0882 C.ar      10 UNK        -0.0972 
     15 C15        21.0083  -30.2185  -46.8283 C.3       10 UNK         0.0209 
     16 S16        21.8128  -28.6282  -46.4508 S.3       10 UNK        -0.2568 
     17 C17        22.4736  -28.9182  -44.7790 C.3       10 UNK        -0.0983 
     18 CA         22.0790  -27.7910  -43.7963 C.3       3 UNK         0.0876 
     19 N          20.6470  -27.8307  -43.4897 N.am      3 UNK        -0.4424 
     20 C          19.9101  -26.7863  -43.0996 C.2       2 UNK         0.4918 
     21 O          20.3581  -25.6426  -42.9757 O.2       2 UNK        -0.4875 
     22 CA         18.4560  -27.0876  -42.7196 C.3       2 UNK         0.0481 
     23 CB         18.4205  -27.7499  -41.3323 C.3       2 UNK        -0.1831 
     24 N          17.7091  -25.8312  -42.6557 N.am      2 UNK        -0.4498 
     25 C          16.5629  -25.4662  -43.2514 C.2       1 UNK         0.5027 
     26 O          16.1572  -24.3081  -43.1595 O.2       1 UNK        -0.4969 
     27 C          22.9096  -27.8204  -42.4935 C.2       3 UNK         0.5005 
     28 O          23.7288  -28.7205  -42.2884 O.2       3 UNK        -0.5279 
     29 N          22.6914  -26.8168  -41.6313 N.am      4 UNK        -0.4463 
     30 CA         23.3279  -26.6548  -40.3204 C.3       4 UNK         0.0283 
     31 CB         22.7064  -25.4495  -39.5986 C.3       4 UNK        -0.1875 
     32 C          24.8588  -26.5185  -40.3812 C.2       4 UNK         0.4949 
     33 O          25.5346  -26.9387  -39.4437 O.2       4 UNK        -0.5039 
     34 N          25.3830  -25.9953  -41.4991 N.am      5 UNK        -0.4663 
     35 CA         26.8176  -25.9187  -41.7972 C.3       5 UNK         0.0242 
     36 CB         27.0260  -25.0575  -43.0532 C.3       5 UNK        -0.1982 
     37 C          27.4844  -27.2971  -41.9735 C.2       5 UNK         0.5017 
     38 O          28.6790  -27.4231  -41.7037 O.2       5 UNK        -0.5012 
     39 N          26.7037  -28.2996  -42.4003 N.am      6 UNK        -0.4439 
     40 CA         27.1112  -29.7034  -42.5021 C.3       6 UNK         0.0297 
     41 CB         26.5388  -30.2844  -43.8072 C.3       6 UNK        -0.2006 
     42 C          26.6323  -30.5317  -41.2937 C.2       6 UNK         0.4892 
     43 O          26.9344  -31.7241  -41.2344 O.2       6 UNK        -0.5089 
     44 N          25.8776  -29.9013  -40.3783 N.am      7 UNK        -0.4243 
     45 CA         25.1587  -30.4852  -39.2408 C.3       7 UNK         0.0196 
     46 CB         26.1466  -31.0156  -38.1801 C.3       7 UNK        -0.2007 
     47 C          24.1082  -31.5320  -39.6666 C.2       7 UNK         0.5020 
     48 O          23.8728  -32.4933  -38.9322 O.2       7 UNK        -0.5147 
     49 N          23.4969  -31.3361  -40.8424 N.am      8 UNK        -0.4734 
     50 CA         22.5120  -32.2430  -41.4266 C.3       8 UNK         0.0238 
     51 CB         22.9059  -32.5442  -42.8815 C.3       8 UNK        -0.1912 
     52 C          21.1199  -31.6079  -41.3482 C.2       8 UNK         0.5038 
     53 O          20.9487  -30.4622  -41.7686 O.2       8 UNK        -0.5046 
     54 N          20.1562  -32.3731  -40.8216 N.am      9 UNK        -0.4200 
     55 CA         18.7432  -31.9957  -40.6325 C.3       9 UNK         0.0839 
     56 C          18.4894  -30.9264  -39.5274 C.2       9 UNK         0.5513 
     57 N          19.4692  -30.5722  -38.7050 N.am      9 UNK        -0.7519 
     58 O          17.3740  -30.4325  -39.3891 O.2       9 UNK        -0.4960 
     59 C59        18.0096  -31.6642  -41.9647 C.3       10 UNK        -0.0876 
     60 S60        18.1020  -33.0348  -43.1615 S.3       10 UNK        -0.2414 
     61 C61        17.0315  -32.4042  -44.4955 C.3       10 UNK         0.0169 
     62 H62        13.6336  -29.6365  -41.6140 H         1 UNK         0.0903 
     63 H63        15.0634  -30.1098  -42.5284 H         1 UNK         0.0903 
     64 H64        15.2298  -29.5235  -40.8691 H         1 UNK         0.0903 
     65 H65        15.8938  -28.5562  -43.9085 H         1 UNK         0.3096 
     66 H66        14.7194  -26.0107  -44.1409 H         1 UNK         0.1121 
     67 H67        16.3047  -25.6065  -45.9885 H         1 UNK         0.0849 
     68 H68        17.2491  -26.9984  -45.5306 H         1 UNK         0.0849 
     69 H69        15.7802  -29.0794  -48.3519 H         1 UNK         0.0865 
     70 H70        16.8932  -27.7457  -48.1902 H         1 UNK         0.0865 
     71 H71        15.7101  -30.4777  -45.8437 H         1 UNK         0.1346 
     72 H72        19.6947  -31.9132  -45.1380 H         1 UNK         0.1412 
     73 H73        19.0454  -28.6119  -47.7810 H         1 UNK         0.1426 
     74 H74        21.5471  -31.0350  -46.3451 H         1 UNK         0.0716 
     75 H75        21.0979  -30.3978  -47.9006 H         1 UNK         0.0716 
     76 H76        23.5578  -28.9967  -44.8770 H         1 UNK         0.0695 
     77 H77        22.1224  -29.8781  -44.4022 H         1 UNK         0.0695 
     78 H78        22.3089  -26.8386  -44.2796 H         1 UNK         0.0983 
     79 H79        20.2385  -28.7549  -43.4773 H         1 UNK         0.3095 
     80 H80        18.0568  -27.7681  -43.4701 H         1 UNK         0.0454 
     81 H81        18.8332  -27.0969  -40.5622 H         1 UNK         0.0851 
     82 H82        19.0075  -28.6670  -41.3183 H         1 UNK         0.0851 
     83 H83        17.4075  -28.0111  -41.0320 H         1 UNK         0.0851 
     84 H84        18.2313  -25.0956  -42.1995 H         1 UNK         0.2976 
     85 H85        21.9873  -26.1321  -41.8890 H         1 UNK         0.3116 
     86 H86        23.1050  -27.5525  -39.7399 H         1 UNK         0.0646 
     87 H87        22.8675  -24.5214  -40.1486 H         1 UNK         0.0847 
     88 H88        23.1426  -25.3207  -38.6069 H         1 UNK         0.0847 
     89 H89        21.6323  -25.5779  -39.4633 H         1 UNK         0.0847 
     90 H90        24.7492  -25.6647  -42.2123 H         1 UNK         0.3040 
     91 H91        27.3095  -25.4260  -40.9553 H         1 UNK         0.1015 
     92 H92        26.5398  -25.4921  -43.9275 H         1 UNK         0.0786 
     93 H93        28.0873  -24.9587  -43.2864 H         1 UNK         0.0786 
     94 H94        26.6326  -24.0503  -42.9143 H         1 UNK         0.0786 
     95 H95        25.7192  -28.1171  -42.5633 H         1 UNK         0.3172 
     96 H96        28.1996  -29.7792  -42.5427 H         1 UNK         0.0595 
     97 H97        26.8700  -31.3130  -43.9560 H         1 UNK         0.0839 
     98 H98        26.8655  -29.7116  -44.6752 H         1 UNK         0.0839 
     99 H99        25.4482  -30.2936  -43.8008 H         1 UNK         0.0839 
    100 H100       25.7175  -28.9124  -40.5158 H         1 UNK         0.2998 
    101 H101       24.5979  -29.6667  -38.7872 H         1 UNK         0.0822 
    102 H102       25.6218  -31.3200  -37.2737 H         1 UNK         0.0787 
    103 H103       26.7016  -31.8821  -38.5406 H         1 UNK         0.0787 
    104 H104       26.8676  -30.2500  -37.8933 H         1 UNK         0.0787 
    105 H105       23.6684  -30.4740  -41.3551 H         1 UNK         0.3055 
    106 H106       22.4969  -33.1924  -40.8866 H         1 UNK         0.1106 
    107 H107       23.0755  -31.6332  -43.4518 H         1 UNK         0.0828 
    108 H108       23.8242  -33.1302  -42.9231 H         1 UNK         0.0828 
    109 H109       22.1301  -33.1166  -43.3920 H         1 UNK         0.0828 
    110 H110       20.3955  -33.2990  -40.4982 H         1 UNK         0.2931 
    111 H111       18.2728  -32.8957  -40.2344 H         1 UNK         0.0412 
    112 H112       20.3873  -30.9749  -38.7994 H         1 UNK         0.3472 
    113 H113       19.2859  -29.8908  -37.9857 H         1 UNK         0.3472 
    114 H114       16.9546  -31.4642  -41.7736 H         1 UNK         0.0970 
    115 H115       18.4142  -30.7625  -42.4253 H         1 UNK         0.0970 
    116 H116       16.7857  -33.2388  -45.1531 H         1 UNK         0.0612 
    117 H117       16.0891  -32.0724  -44.0572 H         1 UNK         0.0612 
@<TRIPOS>BOND
     1    1    2 1    
     2    1   62 1    
     3    1   63 1    
     4    1   64 1    
     5    2    3 2    
     6    2    4 am   BACKBONE|DICT|INTERRES
     7    4    5 1    
     8    4   65 1    
     9    5    6 1    
    10    5   25 1    
    11    5   66 1    
    12    6    7 1    
    13    6   67 1    
    14    6   68 1    
    15    7    8 1    
    16    8    9 1    
    17    8   69 1    
    18    8   70 1    
    19    9   10 ar   
    20    9   14 ar   
    21   10   11 ar   
    22   10   71 1    
    23   11   12 ar   
    24   11   61 1    
    25   12   13 ar   
    26   12   72 1    
    27   13   14 ar   
    28   13   15 1    
    29   14   73 1    
    30   15   16 1    
    31   15   74 1    
    32   15   75 1    
    33   16   17 1    
    34   17   18 1    
    35   17   76 1    
    36   17   77 1    
    37   18   19 1    
    38   18   27 1    
    39   18   78 1    
    40   19   20 am   BACKBONE|DICT|INTERRES
    41   19   79 1    
    42   20   21 2    
    43   20   22 1    
    44   22   23 1    
    45   22   24 1    
    46   22   80 1    
    47   23   81 1    
    48   23   82 1    
    49   23   83 1    
    50   24   25 am   BACKBONE|DICT|INTERRES
    51   24   84 1    
    52   25   26 2    
    53   27   28 2    
    54   27   29 am   BACKBONE|DICT|INTERRES
    55   29   30 1    
    56   29   85 1    
    57   30   31 1    
    58   30   32 1    
    59   30   86 1    
    60   31   87 1    
    61   31   88 1    
    62   31   89 1    
    63   32   33 2    
    64   32   34 am   BACKBONE|DICT|INTERRES
    65   34   35 1    
    66   34   90 1    
    67   35   36 1    
    68   35   37 1    
    69   35   91 1    
    70   36   92 1    
    71   36   93 1    
    72   36   94 1    
    73   37   38 2    
    74   37   39 am   BACKBONE|DICT|INTERRES
    75   39   40 1    
    76   39   95 1    
    77   40   41 1    
    78   40   42 1    
    79   40   96 1    
    80   41   97 1    
    81   41   98 1    
    82   41   99 1    
    83   42   43 2    
    84   42   44 am   BACKBONE|DICT|INTERRES
    85   44   45 1    
    86   44  100 1    
    87   45   46 1    
    88   45   47 1    
    89   45  101 1    
    90   46  102 1    
    91   46  103 1    
    92   46  104 1    
    93   47   48 2    
    94   47   49 am   BACKBONE|DICT|INTERRES
    95   49   50 1    
    96   49  105 1    
    97   50   51 1    
    98   50   52 1    
    99   50  106 1    
   100   51  107 1    
   101   51  108 1    
   102   51  109 1    
   103   52   53 2    
   104   52   54 am   BACKBONE|DICT|INTERRES
   105   54   55 1    
   106   54  110 1    
   107   55   56 1    
   108   55   59 1    
   109   55  111 1    
   110   56   57 am   BACKBONE|DICT|INTERRES
   111   56   58 2    
   112   57  112 1    
   113   57  113 1    
   114   59   60 1    
   115   59  114 1    
   116   59  115 1    
   117   60   61 1    
   118   61  116 1    
   119   61  117 1    
@<TRIPOS>SUBSTRUCTURE
     1 UNK         1 GROUP             0       ****    0 ROOT    
