@<TRIPOS>MOLECULE
3R8
117   119    1
SMALL
USER_CHARGES


@<TRIPOS>ATOM
      1 CA         11.9816  -23.8016  -43.7799 C.3       0 UNK        -0.2013 
      2 C          13.2234  -24.3473  -44.4691 C.2       0 UNK         0.4866 
      3 O          14.0750  -23.5701  -44.9015 O.2       0 UNK        -0.5176 
      4 N          13.3297  -25.6771  -44.5824 N.am      1 UNK        -0.4884 
      5 CA         14.4881  -26.3756  -45.1480 C.3       1 UNK         0.0853 
      6 C6         14.1255  -27.8331  -45.5236 C.3       10 UNK        -0.0849 
      7 S7         15.1830  -28.4991  -46.8523 S.3       10 UNK        -0.2776 
      8 C8         15.7580  -30.0682  -46.1297 C.3       10 UNK         0.0316 
      9 C9         17.0422  -29.8920  -45.3334 C.ar      10 UNK        -0.0863 
     10 C10        17.0033  -29.6595  -43.9560 C.ar      10 UNK        -0.1009 
     11 C11        18.1891  -29.5328  -43.2270 C.ar      10 UNK        -0.0712 
     12 C12        19.4187  -29.6568  -43.8812 C.ar      10 UNK        -0.0894 
     13 C13        19.4734  -29.8787  -45.2635 C.ar      10 UNK        -0.0745 
     14 C14        18.2779  -29.9931  -45.9788 C.ar      10 UNK        -0.0972 
     15 C15        20.7953  -30.0632  -46.0076 C.3       10 UNK         0.0209 
     16 S16        22.2119  -29.1511  -45.3065 S.3       10 UNK        -0.2568 
     17 C17        21.9931  -27.4739  -45.9953 C.3       10 UNK        -0.0983 
     18 CA         21.7770  -26.3391  -44.9509 C.3       3 UNK         0.0876 
     19 N          20.4660  -26.3545  -44.3110 N.am      3 UNK        -0.4424 
     20 C          19.3056  -26.0224  -44.8784 C.2       2 UNK         0.4918 
     21 O          19.1627  -25.7585  -46.0752 O.2       2 UNK        -0.4875 
     22 CA         18.1129  -25.9075  -43.9237 C.3       2 UNK         0.0481 
     23 CB         18.1488  -24.5661  -43.1654 C.3       2 UNK        -0.1831 
     24 N          16.8733  -26.0244  -44.6837 N.am      2 UNK        -0.4498 
     25 C          15.6755  -26.3136  -44.1659 C.2       1 UNK         0.5027 
     26 O          15.4797  -26.5333  -42.9670 O.2       1 UNK        -0.4969 
     27 C          22.8335  -26.2335  -43.8295 C.2       3 UNK         0.5005 
     28 O          22.5003  -25.7721  -42.7325 O.2       3 UNK        -0.5279 
     29 N          24.0796  -26.6423  -44.1044 N.am      4 UNK        -0.4463 
     30 CA         25.1655  -26.7077  -43.1244 C.3       4 UNK         0.0283 
     31 CB         26.4911  -26.9984  -43.8480 C.3       4 UNK        -0.1875 
     32 C          24.8863  -27.7768  -42.0532 C.2       4 UNK         0.4949 
     33 O          24.6990  -28.9447  -42.3986 O.2       4 UNK        -0.5039 
     34 N          24.8813  -27.3562  -40.7813 N.am      5 UNK        -0.4663 
     35 CA         24.6651  -28.2144  -39.6123 C.3       5 UNK         0.0242 
     36 CB         24.5800  -27.3357  -38.3540 C.3       5 UNK        -0.1982 
     37 C          25.7601  -29.2829  -39.4516 C.2       5 UNK         0.5017 
     38 O          26.8814  -29.0925  -39.9287 O.2       5 UNK        -0.5012 
     39 N          25.4086  -30.3919  -38.7891 N.am      6 UNK        -0.4439 
     40 CA         26.2061  -31.6029  -38.5451 C.3       6 UNK         0.0297 
     41 CB         27.5467  -31.2997  -37.8467 C.3       6 UNK        -0.2006 
     42 C          26.3995  -32.4867  -39.7909 C.2       6 UNK         0.4892 
     43 O          26.4196  -33.7094  -39.6451 O.2       6 UNK        -0.5089 
     44 N          26.4871  -31.8850  -40.9871 N.am      7 UNK        -0.4243 
     45 CA         26.3766  -32.5842  -42.2713 C.3       7 UNK         0.0196 
     46 CB         26.8263  -31.6634  -43.4169 C.3       7 UNK        -0.2007 
     47 C          24.9418  -33.0951  -42.4903 C.2       7 UNK         0.5020 
     48 O          24.7574  -34.2487  -42.8786 O.2       7 UNK        -0.5147 
     49 N          23.9584  -32.2498  -42.1635 N.am      8 UNK        -0.4734 
     50 CA         22.5568  -32.6070  -41.9809 C.3       8 UNK         0.0238 
     51 CB         21.8117  -32.5825  -43.3242 C.3       8 UNK        -0.1912 
     52 C          21.9579  -31.6034  -40.9914 C.2       8 UNK         0.5038 
     53 O          22.2593  -30.4133  -41.0907 O.2       8 UNK        -0.5046 
     54 N          21.1263  -32.0955  -40.0659 N.am      9 UNK        -0.4200 
     55 CA         20.4879  -31.3308  -38.9784 C.3       9 UNK         0.0839 
     56 C          21.4904  -30.8201  -37.8975 C.2       9 UNK         0.5513 
     57 N          20.9877  -30.2713  -36.7997 N.am      9 UNK        -0.7519 
     58 O          22.7105  -30.9191  -38.0234 O.2       9 UNK        -0.4960 
     59 C59        19.5588  -30.1875  -39.4871 C.3       10 UNK        -0.0876 
     60 S60        18.3431  -30.7378  -40.7378 S.3       10 UNK        -0.2414 
     61 C61        18.1473  -29.2290  -41.7381 C.3       10 UNK         0.0169 
     62 H62        11.3080  -24.5969  -43.4616 H         1 UNK         0.0903 
     63 H63        12.2648  -23.2251  -42.9000 H         1 UNK         0.0903 
     64 H64        11.4349  -23.1453  -44.4561 H         1 UNK         0.0903 
     65 H65        12.6175  -26.2666  -44.1750 H         1 UNK         0.3096 
     66 H66        14.7652  -25.8422  -46.0606 H         1 UNK         0.1121 
     67 H67        14.1359  -28.4839  -44.6473 H         1 UNK         0.0849 
     68 H68        13.1035  -27.8751  -45.9042 H         1 UNK         0.0849 
     69 H69        14.9770  -30.5127  -45.5110 H         1 UNK         0.0865 
     70 H70        15.9290  -30.7784  -46.9401 H         1 UNK         0.0865 
     71 H71        16.0517  -29.5710  -43.4500 H         1 UNK         0.1346 
     72 H72        20.3310  -29.5788  -43.3055 H         1 UNK         0.1412 
     73 H73        18.3071  -30.1792  -47.0440 H         1 UNK         0.1426 
     74 H74        20.6854  -29.7867  -47.0573 H         1 UNK         0.0716 
     75 H75        21.0376  -31.1261  -46.0016 H         1 UNK         0.0716 
     76 H76        22.8745  -27.2525  -46.5989 H         1 UNK         0.0695 
     77 H77        21.1658  -27.4821  -46.7058 H         1 UNK         0.0695 
     78 H78        21.8467  -25.3918  -45.4902 H         1 UNK         0.0983 
     79 H79        20.5163  -26.4832  -43.3085 H         1 UNK         0.3095 
     80 H80        18.1677  -26.7266  -43.2065 H         1 UNK         0.0454 
     81 H81        19.0798  -24.4513  -42.6089 H         1 UNK         0.0851 
     82 H82        18.0692  -23.7185  -43.8471 H         1 UNK         0.0851 
     83 H83        17.3350  -24.4915  -42.4441 H         1 UNK         0.0851 
     84 H84        16.9865  -25.9084  -45.6836 H         1 UNK         0.2976 
     85 H85        24.2545  -27.0737  -45.0004 H         1 UNK         0.3116 
     86 H86        25.2478  -25.7303  -42.6441 H         1 UNK         0.0646 
     87 H87        27.3188  -27.0418  -43.1387 H         1 UNK         0.0847 
     88 H88        26.7278  -26.2216  -44.5752 H         1 UNK         0.0847 
     89 H89        26.4639  -27.9548  -44.3721 H         1 UNK         0.0847 
     90 H90        25.0631  -26.3809  -40.5950 H         1 UNK         0.3040 
     91 H91        23.7081  -28.7217  -39.7491 H         1 UNK         0.1015 
     92 H92        25.5114  -26.7972  -38.1743 H         1 UNK         0.0786 
     93 H93        24.3757  -27.9396  -37.4686 H         1 UNK         0.0786 
     94 H94        23.7763  -26.6034  -38.4344 H         1 UNK         0.0786 
     95 H95        24.4396  -30.4677  -38.4772 H         1 UNK         0.3172 
     96 H96        25.6080  -32.1902  -37.8463 H         1 UNK         0.0595 
     97 H97        28.0361  -32.2237  -37.5365 H         1 UNK         0.0839 
     98 H98        28.2433  -30.7746  -38.5005 H         1 UNK         0.0839 
     99 H99        27.4015  -30.6939  -36.9525 H         1 UNK         0.0839 
    100 H100       26.5060  -30.8718  -41.0074 H         1 UNK         0.2998 
    101 H101       27.0431  -33.4492  -42.2486 H         1 UNK         0.0822 
    102 H102       26.7886  -32.1880  -44.3724 H         1 UNK         0.0787 
    103 H103       26.1910  -30.7826  -43.5065 H         1 UNK         0.0787 
    104 H104       27.8520  -31.3233  -43.2734 H         1 UNK         0.0787 
    105 H105       24.1830  -31.2971  -41.8929 H         1 UNK         0.3055 
    106 H106       22.4969  -33.6098  -41.5516 H         1 UNK         0.1106 
    107 H107       22.2143  -33.3184  -44.0200 H         1 UNK         0.0828 
    108 H108       20.7512  -32.8002  -43.1913 H         1 UNK         0.0828 
    109 H109       21.8879  -31.6025  -43.7907 H         1 UNK         0.0828 
    110 H110       20.9430  -33.0879  -40.0552 H         1 UNK         0.2931 
    111 H111       19.8585  -32.0603  -38.4670 H         1 UNK         0.0412 
    112 H112       19.9925  -30.1978  -36.6562 H         1 UNK         0.3472 
    113 H113       21.6199  -29.9420  -36.0869 H         1 UNK         0.3472 
    114 H114       20.1669  -29.3780  -39.8933 H         1 UNK         0.0970 
    115 H115       18.9974  -29.7507  -38.6598 H         1 UNK         0.0970 
    116 H116       17.2031  -28.7501  -41.4733 H         1 UNK         0.0612 
    117 H117       18.9256  -28.5014  -41.5062 H         1 UNK         0.0612 
@<TRIPOS>BOND
     1    1    2 1    
     2    1   62 1    
     3    1   63 1    
     4    1   64 1    
     5    2    3 2    
     6    2    4 am   BACKBONE|DICT|INTERRES
     7    4    5 1    
     8    4   65 1    
     9    5    6 1    
    10    5   25 1    
    11    5   66 1    
    12    6    7 1    
    13    6   67 1    
    14    6   68 1    
    15    7    8 1    
    16    8    9 1    
    17    8   69 1    
    18    8   70 1    
    19    9   10 ar   
    20    9   14 ar   
    21   10   11 ar   
    22   10   71 1    
    23   11   12 ar   
    24   11   61 1    
    25   12   13 ar   
    26   12   72 1    
    27   13   14 ar   
    28   13   15 1    
    29   14   73 1    
    30   15   16 1    
    31   15   74 1    
    32   15   75 1    
    33   16   17 1    
    34   17   18 1    
    35   17   76 1    
    36   17   77 1    
    37   18   19 1    
    38   18   27 1    
    39   18   78 1    
    40   19   20 am   BACKBONE|DICT|INTERRES
    41   19   79 1    
    42   20   21 2    
    43   20   22 1    
    44   22   23 1    
    45   22   24 1    
    46   22   80 1    
    47   23   81 1    
    48   23   82 1    
    49   23   83 1    
    50   24   25 am   BACKBONE|DICT|INTERRES
    51   24   84 1    
    52   25   26 2    
    53   27   28 2    
    54   27   29 am   BACKBONE|DICT|INTERRES
    55   29   30 1    
    56   29   85 1    
    57   30   31 1    
    58   30   32 1    
    59   30   86 1    
    60   31   87 1    
    61   31   88 1    
    62   31   89 1    
    63   32   33 2    
    64   32   34 am   BACKBONE|DICT|INTERRES
    65   34   35 1    
    66   34   90 1    
    67   35   36 1    
    68   35   37 1    
    69   35   91 1    
    70   36   92 1    
    71   36   93 1    
    72   36   94 1    
    73   37   38 2    
    74   37   39 am   BACKBONE|DICT|INTERRES
    75   39   40 1    
    76   39   95 1    
    77   40   41 1    
    78   40   42 1    
    79   40   96 1    
    80   41   97 1    
    81   41   98 1    
    82   41   99 1    
    83   42   43 2    
    84   42   44 am   BACKBONE|DICT|INTERRES
    85   44   45 1    
    86   44  100 1    
    87   45   46 1    
    88   45   47 1    
    89   45  101 1    
    90   46  102 1    
    91   46  103 1    
    92   46  104 1    
    93   47   48 2    
    94   47   49 am   BACKBONE|DICT|INTERRES
    95   49   50 1    
    96   49  105 1    
    97   50   51 1    
    98   50   52 1    
    99   50  106 1    
   100   51  107 1    
   101   51  108 1    
   102   51  109 1    
   103   52   53 2    
   104   52   54 am   BACKBONE|DICT|INTERRES
   105   54   55 1    
   106   54  110 1    
   107   55   56 1    
   108   55   59 1    
   109   55  111 1    
   110   56   57 am   BACKBONE|DICT|INTERRES
   111   56   58 2    
   112   57  112 1    
   113   57  113 1    
   114   59   60 1    
   115   59  114 1    
   116   59  115 1    
   117   60   61 1    
   118   61  116 1    
   119   61  117 1    
@<TRIPOS>SUBSTRUCTURE
     1 UNK         1 GROUP             0       ****    0 ROOT    
