@<TRIPOS>MOLECULE
3R8
117   119    1
SMALL
USER_CHARGES


@<TRIPOS>ATOM
      1 CA         18.9535  -22.2691  -48.7676 C.3       0 UNK        -0.2013 
      2 C          19.7200  -23.0195  -47.6887 C.2       0 UNK         0.4866 
      3 O          20.5373  -22.4204  -46.9890 O.2       0 UNK        -0.5176 
      4 N          19.4697  -24.3277  -47.5521 N.am      1 UNK        -0.4884 
      5 CA         20.0640  -25.1858  -46.5244 C.3       1 UNK         0.0853 
      6 C6         19.9057  -26.6826  -46.8912 C.3       10 UNK        -0.0849 
      7 S7         21.0064  -27.7781  -45.9315 S.3       10 UNK        -0.2776 
      8 C8         20.2969  -29.4110  -46.3153 C.3       10 UNK         0.0316 
      9 C9         19.3926  -29.9215  -45.2014 C.ar      10 UNK        -0.0863 
     10 C10        19.8572  -30.8946  -44.3112 C.ar      10 UNK        -0.1009 
     11 C11        19.0206  -31.4156  -43.3200 C.ar      10 UNK        -0.0712 
     12 C12        17.7156  -30.9310  -43.1995 C.ar      10 UNK        -0.0894 
     13 C13        17.2484  -29.9340  -44.0623 C.ar      10 UNK        -0.0745 
     14 C14        18.0835  -29.4479  -45.0731 C.ar      10 UNK        -0.0972 
     15 C15        15.8545  -29.3525  -43.8791 C.3       10 UNK         0.0209 
     16 S16        15.9192  -27.6782  -43.1589 S.3       10 UNK        -0.2568 
     17 C17        16.7534  -27.9867  -41.5643 C.3       10 UNK        -0.0983 
     18 CA         18.2804  -27.7293  -41.6348 C.3       3 UNK         0.0876 
     19 N          18.5930  -26.3460  -41.9992 N.am      3 UNK        -0.4424 
     20 C          19.8213  -25.8492  -42.1816 C.2       2 UNK         0.4918 
     21 O          20.8661  -26.4755  -41.9819 O.2       2 UNK        -0.4875 
     22 CA         19.8981  -24.4296  -42.7595 C.3       2 UNK         0.0481 
     23 CB         20.9182  -23.5588  -42.0070 C.3       2 UNK        -0.1831 
     24 N          20.2803  -24.5314  -44.1659 N.am      2 UNK        -0.4498 
     25 C          19.4384  -24.8706  -45.1510 C.2       1 UNK         0.5027 
     26 O          18.2159  -24.9581  -45.0100 O.2       1 UNK        -0.4969 
     27 C          18.9693  -28.1581  -40.3263 C.2       3 UNK         0.5005 
     28 O          18.7711  -27.5096  -39.2966 O.2       3 UNK        -0.5279 
     29 N          19.7748  -29.2276  -40.4115 N.am      4 UNK        -0.4463 
     30 CA         20.5957  -29.8209  -39.3481 C.3       4 UNK         0.0283 
     31 CB         19.7302  -30.2817  -38.1562 C.3       4 UNK        -0.1875 
     32 C          21.7926  -28.9527  -38.9006 C.2       4 UNK         0.4949 
     33 O          22.4562  -29.3231  -37.9312 O.2       4 UNK        -0.5039 
     34 N          22.0657  -27.8385  -39.5957 N.am      5 UNK        -0.4663 
     35 CA         23.1400  -26.8955  -39.2757 C.3       5 UNK         0.0242 
     36 CB         22.5339  -25.5284  -38.9180 C.3       5 UNK        -0.1982 
     37 C          24.1427  -26.7723  -40.4300 C.2       5 UNK         0.5017 
     38 O          25.3432  -26.9123  -40.1947 O.2       5 UNK        -0.5012 
     39 N          23.6480  -26.5242  -41.6523 N.am      6 UNK        -0.4439 
     40 CA         24.4656  -26.4419  -42.8698 C.3       6 UNK         0.0297 
     41 CB         23.6800  -25.7237  -43.9770 C.3       6 UNK        -0.2006 
     42 C          24.9387  -27.8258  -43.3451 C.2       6 UNK         0.4892 
     43 O          26.0562  -27.9515  -43.8471 O.2       6 UNK        -0.5089 
     44 N          24.0908  -28.8357  -43.1369 N.am      7 UNK        -0.4243 
     45 CA         24.3890  -30.2544  -43.2545 C.3       7 UNK         0.0196 
     46 CB         23.9790  -30.7712  -44.6421 C.3       7 UNK        -0.2007 
     47 C          23.6026  -30.9314  -42.1307 C.2       7 UNK         0.5020 
     48 O          22.4557  -30.5498  -41.8924 O.2       7 UNK        -0.5147 
     49 N          24.2380  -31.8778  -41.4317 N.am      8 UNK        -0.4734 
     50 CA         23.7112  -32.4687  -40.1969 C.3       8 UNK         0.0238 
     51 CB         24.8857  -33.0038  -39.3606 C.3       8 UNK        -0.1912 
     52 C          22.6683  -33.5772  -40.4149 C.2       8 UNK         0.5038 
     53 O          21.8946  -33.8456  -39.4957 O.2       8 UNK        -0.5046 
     54 N          22.6874  -34.2183  -41.5930 N.am      9 UNK        -0.4200 
     55 CA         21.9010  -35.4214  -41.9350 C.3       9 UNK         0.0839 
     56 C          22.2872  -36.6929  -41.1137 C.2       9 UNK         0.5513 
     57 N          23.4671  -36.7541  -40.5072 N.am      9 UNK        -0.7519 
     58 O          21.5265  -37.6555  -41.0492 O.2       9 UNK        -0.4960 
     59 C59        20.3636  -35.1697  -41.9685 C.3       10 UNK        -0.0876 
     60 S60        19.8686  -34.0377  -43.3071 S.3       10 UNK        -0.2414 
     61 C61        19.5288  -32.5062  -42.3885 C.3       10 UNK         0.0169 
     62 H62        18.2755  -22.9225  -49.3166 H         1 UNK         0.0903 
     63 H63        18.3648  -21.4682  -48.3210 H         1 UNK         0.0903 
     64 H64        19.6474  -21.8250  -49.4808 H         1 UNK         0.0903 
     65 H65        18.7635  -24.7599  -48.1313 H         1 UNK         0.3096 
     66 H66        21.1325  -24.9592  -46.4878 H         1 UNK         0.1121 
     67 H67        20.1531  -26.8312  -47.9437 H         1 UNK         0.0849 
     68 H68        18.8687  -27.0026  -46.7803 H         1 UNK         0.0849 
     69 H69        19.7440  -29.3736  -47.2551 H         1 UNK         0.0865 
     70 H70        21.1156  -30.1119  -46.4840 H         1 UNK         0.0865 
     71 H71        20.8644  -31.2756  -44.3993 H         1 UNK         0.1346 
     72 H72        17.0676  -31.3192  -42.4255 H         1 UNK         0.1412 
     73 H73        17.7150  -28.6858  -45.7448 H         1 UNK         0.1426 
     74 H74        15.2427  -29.9956  -43.2446 H         1 UNK         0.0716 
     75 H75        15.3502  -29.3048  -44.8453 H         1 UNK         0.0716 
     76 H76        16.5439  -29.0107  -41.2494 H         1 UNK         0.0695 
     77 H77        16.2947  -27.3425  -40.8117 H         1 UNK         0.0695 
     78 H78        18.6953  -28.3389  -42.4381 H         1 UNK         0.0983 
     79 H79        17.7981  -25.7689  -42.2324 H         1 UNK         0.3095 
     80 H80        18.9211  -23.9476  -42.6804 H         1 UNK         0.0454 
     81 H81        21.9191  -23.9902  -42.0157 H         1 UNK         0.0851 
     82 H82        20.6252  -23.4367  -40.9638 H         1 UNK         0.0851 
     83 H83        20.9820  -22.5610  -42.4410 H         1 UNK         0.0851 
     84 H84        21.2676  -24.4796  -44.3662 H         1 UNK         0.2976 
     85 H85        19.9099  -29.6502  -41.3215 H         1 UNK         0.3116 
     86 H86        21.0243  -30.7235  -39.7814 H         1 UNK         0.0646 
     87 H87        19.3300  -29.4391  -37.5920 H         1 UNK         0.0847 
     88 H88        20.3156  -30.8845  -37.4608 H         1 UNK         0.0847 
     89 H89        18.8928  -30.8960  -38.4864 H         1 UNK         0.0847 
     90 H90        21.4830  -27.6093  -40.3932 H         1 UNK         0.3040 
     91 H91        23.7044  -27.2413  -38.4067 H         1 UNK         0.1015 
     92 H92        21.9125  -25.1364  -39.7219 H         1 UNK         0.0786 
     93 H93        23.3139  -24.7931  -38.7157 H         1 UNK         0.0786 
     94 H94        21.9130  -25.5972  -38.0246 H         1 UNK         0.0786 
     95 H95        22.6392  -26.4409  -41.7684 H         1 UNK         0.3172 
     96 H96        25.3552  -25.8476  -42.6504 H         1 UNK         0.0595 
     97 H97        22.7261  -26.2131  -44.1690 H         1 UNK         0.0839 
     98 H98        24.2390  -25.7173  -44.9139 H         1 UNK         0.0839 
     99 H99        23.4858  -24.6850  -43.7122 H         1 UNK         0.0839 
    100 H100       23.2008  -28.6441  -42.6937 H         1 UNK         0.2998 
    101 H101       25.4566  -30.4251  -43.0992 H         1 UNK         0.0822 
    102 H102       24.5965  -30.3270  -45.4229 H         1 UNK         0.0787 
    103 H103       24.0924  -31.8537  -44.7107 H         1 UNK         0.0787 
    104 H104       22.9415  -30.5296  -44.8674 H         1 UNK         0.0787 
    105 H105       25.1794  -32.1348  -41.6947 H         1 UNK         0.3055 
    106 H106       23.2244  -31.6825  -39.6158 H         1 UNK         0.1106 
    107 H107       24.5334  -33.4357  -38.4225 H         1 UNK         0.0828 
    108 H108       25.4414  -33.7799  -39.8880 H         1 UNK         0.0828 
    109 H109       25.5835  -32.2068  -39.1027 H         1 UNK         0.0828 
    110 H110       23.3571  -33.9184  -42.2857 H         1 UNK         0.2931 
    111 H111       22.2014  -35.6730  -42.9528 H         1 UNK         0.0412 
    112 H112       24.1161  -35.9866  -40.5662 H         1 UNK         0.3472 
    113 H113       23.7119  -37.5838  -39.9894 H         1 UNK         0.3472 
    114 H114       19.8257  -36.1011  -42.1527 H         1 UNK         0.0970 
    115 H115       19.9983  -34.8083  -41.0066 H         1 UNK         0.0970 
    116 H116       18.8025  -32.7121  -41.6008 H         1 UNK         0.0612 
    117 H117       20.4388  -32.1711  -41.8934 H         1 UNK         0.0612 
@<TRIPOS>BOND
     1    1    2 1    
     2    1   62 1    
     3    1   63 1    
     4    1   64 1    
     5    2    3 2    
     6    2    4 am   BACKBONE|DICT|INTERRES
     7    4    5 1    
     8    4   65 1    
     9    5    6 1    
    10    5   25 1    
    11    5   66 1    
    12    6    7 1    
    13    6   67 1    
    14    6   68 1    
    15    7    8 1    
    16    8    9 1    
    17    8   69 1    
    18    8   70 1    
    19    9   10 ar   
    20    9   14 ar   
    21   10   11 ar   
    22   10   71 1    
    23   11   12 ar   
    24   11   61 1    
    25   12   13 ar   
    26   12   72 1    
    27   13   14 ar   
    28   13   15 1    
    29   14   73 1    
    30   15   16 1    
    31   15   74 1    
    32   15   75 1    
    33   16   17 1    
    34   17   18 1    
    35   17   76 1    
    36   17   77 1    
    37   18   19 1    
    38   18   27 1    
    39   18   78 1    
    40   19   20 am   BACKBONE|DICT|INTERRES
    41   19   79 1    
    42   20   21 2    
    43   20   22 1    
    44   22   23 1    
    45   22   24 1    
    46   22   80 1    
    47   23   81 1    
    48   23   82 1    
    49   23   83 1    
    50   24   25 am   BACKBONE|DICT|INTERRES
    51   24   84 1    
    52   25   26 2    
    53   27   28 2    
    54   27   29 am   BACKBONE|DICT|INTERRES
    55   29   30 1    
    56   29   85 1    
    57   30   31 1    
    58   30   32 1    
    59   30   86 1    
    60   31   87 1    
    61   31   88 1    
    62   31   89 1    
    63   32   33 2    
    64   32   34 am   BACKBONE|DICT|INTERRES
    65   34   35 1    
    66   34   90 1    
    67   35   36 1    
    68   35   37 1    
    69   35   91 1    
    70   36   92 1    
    71   36   93 1    
    72   36   94 1    
    73   37   38 2    
    74   37   39 am   BACKBONE|DICT|INTERRES
    75   39   40 1    
    76   39   95 1    
    77   40   41 1    
    78   40   42 1    
    79   40   96 1    
    80   41   97 1    
    81   41   98 1    
    82   41   99 1    
    83   42   43 2    
    84   42   44 am   BACKBONE|DICT|INTERRES
    85   44   45 1    
    86   44  100 1    
    87   45   46 1    
    88   45   47 1    
    89   45  101 1    
    90   46  102 1    
    91   46  103 1    
    92   46  104 1    
    93   47   48 2    
    94   47   49 am   BACKBONE|DICT|INTERRES
    95   49   50 1    
    96   49  105 1    
    97   50   51 1    
    98   50   52 1    
    99   50  106 1    
   100   51  107 1    
   101   51  108 1    
   102   51  109 1    
   103   52   53 2    
   104   52   54 am   BACKBONE|DICT|INTERRES
   105   54   55 1    
   106   54  110 1    
   107   55   56 1    
   108   55   59 1    
   109   55  111 1    
   110   56   57 am   BACKBONE|DICT|INTERRES
   111   56   58 2    
   112   57  112 1    
   113   57  113 1    
   114   59   60 1    
   115   59  114 1    
   116   59  115 1    
   117   60   61 1    
   118   61  116 1    
   119   61  117 1    
@<TRIPOS>SUBSTRUCTURE
     1 UNK         1 GROUP             0       ****    0 ROOT    
