@<TRIPOS>MOLECULE
3R8
117   119    1
SMALL
USER_CHARGES


@<TRIPOS>ATOM
      1 CA         18.5053  -28.7038  -48.7636 C.3       0 UNK        -0.2013 
      2 C          19.1741  -27.9513  -47.6243 C.2       0 UNK         0.4866 
      3 O          18.5834  -27.8210  -46.5547 O.2       0 UNK        -0.5176 
      4 N          20.3878  -27.4295  -47.8569 N.am      1 UNK        -0.4884 
      5 CA         21.2885  -26.7525  -46.9025 C.3       1 UNK         0.0853 
      6 C6         22.0133  -27.7625  -45.9528 C.3       10 UNK        -0.0849 
      7 S7         21.1821  -28.1587  -44.3730 S.3       10 UNK        -0.2776 
      8 C8         20.4964  -29.8267  -44.6370 C.3       10 UNK         0.0316 
      9 C9         19.3581  -30.0516  -43.6560 C.ar      10 UNK        -0.0863 
     10 C10        19.6343  -30.2457  -42.3007 C.ar      10 UNK        -0.1009 
     11 C11        18.6006  -30.2920  -41.3613 C.ar      10 UNK        -0.0712 
     12 C12        17.2805  -30.1145  -41.7877 C.ar      10 UNK        -0.0894 
     13 C13        16.9941  -29.9009  -43.1401 C.ar      10 UNK        -0.0745 
     14 C14        18.0310  -29.9354  -44.0774 C.ar      10 UNK        -0.0972 
     15 C15        15.5861  -29.5167  -43.5768 C.3       10 UNK         0.0209 
     16 S16        15.5170  -27.8211  -44.2699 S.3       10 UNK        -0.2568 
     17 C17        16.2626  -26.7957  -42.9487 C.3       10 UNK        -0.0983 
     18 CA         17.7819  -26.5550  -43.1751 C.3       3 UNK         0.0876 
     19 N          18.1005  -25.8579  -44.4269 N.am      3 UNK        -0.4424 
     20 C          18.0606  -24.5386  -44.6687 C.2       2 UNK         0.4918 
     21 O          17.6164  -23.7101  -43.8726 O.2       2 UNK        -0.4875 
     22 CA         18.6232  -24.0581  -46.0278 C.3       2 UNK         0.0481 
     23 CB         19.2791  -22.6642  -45.9350 C.3       2 UNK        -0.1831 
     24 N          19.5272  -25.0288  -46.6628 N.am      2 UNK        -0.4498 
     25 C          20.6961  -25.5002  -46.1954 C.2       1 UNK         0.5027 
     26 O          21.2898  -25.0044  -45.2364 O.2       1 UNK        -0.4969 
     27 C          18.5304  -25.9862  -41.9502 C.2       3 UNK         0.5005 
     28 O          17.9405  -25.7984  -40.8833 O.2       3 UNK        -0.5279 
     29 N          19.8308  -25.7227  -42.1366 N.am      4 UNK        -0.4463 
     30 CA         20.7693  -25.3409  -41.0845 C.3       4 UNK         0.0283 
     31 CB         22.0025  -24.7022  -41.7440 C.3       4 UNK        -0.1875 
     32 C          21.1872  -26.5650  -40.2544 C.2       4 UNK         0.4949 
     33 O          21.1318  -27.6943  -40.7447 O.2       4 UNK        -0.5039 
     34 N          21.6791  -26.3244  -39.0325 N.am      5 UNK        -0.4663 
     35 CA         22.2199  -27.3436  -38.1207 C.3       5 UNK         0.0242 
     36 CB         22.1782  -26.7956  -36.6817 C.3       5 UNK        -0.1982 
     37 C          23.6293  -27.8292  -38.5327 C.2       5 UNK         0.5017 
     38 O          24.5418  -27.8681  -37.7050 O.2       5 UNK        -0.5012 
     39 N          23.7819  -28.1661  -39.8163 N.am      6 UNK        -0.4439 
     40 CA         24.9946  -28.6869  -40.4388 C.3       6 UNK         0.0297 
     41 CB         24.9807  -28.2725  -41.9215 C.3       6 UNK        -0.2006 
     42 C          25.0588  -30.2161  -40.3143 C.2       6 UNK         0.4892 
     43 O          24.0439  -30.8604  -40.0383 O.2       6 UNK        -0.5089 
     44 N          26.2386  -30.7827  -40.6070 N.am      7 UNK        -0.4243 
     45 CA         26.4815  -32.2316  -40.6861 C.3       7 UNK         0.0196 
     46 CB         27.9731  -32.4827  -40.9586 C.3       7 UNK        -0.2007 
     47 C          25.6132  -32.9533  -41.7367 C.2       7 UNK         0.5020 
     48 O          25.3438  -34.1454  -41.5886 O.2       7 UNK        -0.5147 
     49 N          25.1403  -32.2035  -42.7432 N.am      8 UNK        -0.4734 
     50 CA         24.1599  -32.6217  -43.7493 C.3       8 UNK         0.0238 
     51 CB         24.0095  -31.4973  -44.7882 C.3       8 UNK        -0.1912 
     52 C          22.7848  -33.0261  -43.1757 C.2       8 UNK         0.5038 
     53 O          22.0283  -33.6953  -43.8802 O.2       8 UNK        -0.5046 
     54 N          22.4897  -32.6453  -41.9228 N.am      9 UNK        -0.4200 
     55 CA         21.3404  -33.1422  -41.1499 C.3       9 UNK         0.0839 
     56 C          21.4319  -34.6538  -40.7757 C.2       9 UNK         0.5513 
     57 N          22.6027  -35.2825  -40.8167 N.am      9 UNK        -0.7519 
     58 O          20.4216  -35.2730  -40.4537 O.2       9 UNK        -0.4960 
     59 C59        21.0894  -32.2603  -39.8947 C.3       10 UNK        -0.0876 
     60 S60        19.3267  -32.1562  -39.4260 S.3       10 UNK        -0.2414 
     61 C61        18.9138  -30.4412  -39.8786 C.3       10 UNK         0.0169 
     62 H62        19.1263  -28.7291  -49.6587 H         1 UNK         0.0903 
     63 H63        18.3018  -29.7309  -48.4620 H         1 UNK         0.0903 
     64 H64        17.5576  -28.2307  -49.0195 H         1 UNK         0.0903 
     65 H65        20.7802  -27.5445  -48.7820 H         1 UNK         0.3096 
     66 H66        22.0690  -26.3328  -47.5396 H         1 UNK         0.1121 
     67 H67        22.2430  -28.6881  -46.4827 H         1 UNK         0.0849 
     68 H68        22.9848  -27.3456  -45.6822 H         1 UNK         0.0849 
     69 H69        21.2699  -30.5787  -44.4877 H         1 UNK         0.0865 
     70 H70        20.1469  -29.9340  -45.6640 H         1 UNK         0.0865 
     71 H71        20.6626  -30.2990  -41.9742 H         1 UNK         0.1346 
     72 H72        16.4819  -30.0896  -41.0590 H         1 UNK         0.1412 
     73 H73        17.8098  -29.7452  -45.1182 H         1 UNK         0.1426 
     74 H74        14.8868  -29.5857  -42.7421 H         1 UNK         0.0716 
     75 H75        15.2384  -30.2237  -44.3310 H         1 UNK         0.0716 
     76 H76        16.0827  -27.2903  -41.9926 H         1 UNK         0.0695 
     77 H77        15.7335  -25.8427  -42.9039 H         1 UNK         0.0695 
     78 H78        18.2496  -27.5251  -43.2934 H         1 UNK         0.0983 
     79 H79        18.4202  -26.4700  -45.1747 H         1 UNK         0.3095 
     80 H80        17.7637  -23.9728  -46.6939 H         1 UNK         0.0454 
     81 H81        19.6795  -22.3478  -46.8979 H         1 UNK         0.0851 
     82 H82        20.0927  -22.6453  -45.2094 H         1 UNK         0.0851 
     83 H83        18.5539  -21.9111  -45.6247 H         1 UNK         0.0851 
     84 H84        19.1340  -25.5280  -47.4489 H         1 UNK         0.2976 
     85 H85        20.2386  -25.9464  -43.0358 H         1 UNK         0.3116 
     86 H86        20.2932  -24.6093  -40.4284 H         1 UNK         0.0646 
     87 H87        22.7239  -24.3696  -40.9968 H         1 UNK         0.0847 
     88 H88        21.7274  -23.8313  -42.3395 H         1 UNK         0.0847 
     89 H89        22.5151  -25.4053  -42.4029 H         1 UNK         0.0847 
     90 H90        21.7374  -25.3668  -38.7156 H         1 UNK         0.3040 
     91 H91        21.5679  -28.2197  -38.1581 H         1 UNK         0.1015 
     92 H92        21.1661  -26.5091  -36.3951 H         1 UNK         0.0786 
     93 H93        22.8217  -25.9228  -36.5634 H         1 UNK         0.0786 
     94 H94        22.5126  -27.5478  -35.9657 H         1 UNK         0.0786 
     95 H95        22.9430  -28.1512  -40.3911 H         1 UNK         0.3172 
     96 H96        25.8716  -28.2545  -39.9525 H         1 UNK         0.0595 
     97 H97        24.1278  -28.6984  -42.4530 H         1 UNK         0.0839 
     98 H98        25.8851  -28.5979  -42.4367 H         1 UNK         0.0839 
     99 H99        24.9265  -27.1886  -42.0272 H         1 UNK         0.0839 
    100 H100       27.0217  -30.1831  -40.8263 H         1 UNK         0.2998 
    101 H101       26.2316  -32.6604  -39.7133 H         1 UNK         0.0822 
    102 H102       28.2881  -32.0532  -41.9105 H         1 UNK         0.0787 
    103 H103       28.5981  -32.0572  -40.1732 H         1 UNK         0.0787 
    104 H104       28.1881  -33.5518  -40.9966 H         1 UNK         0.0787 
    105 H105       25.4307  -31.2378  -42.7768 H         1 UNK         0.3055 
    106 H106       24.5607  -33.5046  -44.2520 H         1 UNK         0.1106 
    107 H107       23.2852  -31.7675  -45.5581 H         1 UNK         0.0828 
    108 H108       24.9537  -31.2975  -45.2950 H         1 UNK         0.0828 
    109 H109       23.6718  -30.5663  -44.3315 H         1 UNK         0.0828 
    110 H110       23.1636  -32.0915  -41.4049 H         1 UNK         0.2931 
    111 H111       20.4748  -33.0427  -41.8079 H         1 UNK         0.0412 
    112 H112       22.6419  -36.2606  -40.5772 H         1 UNK         0.3472 
    113 H113       23.4510  -34.7986  -41.0883 H         1 UNK         0.3472 
    114 H114       21.6637  -32.6208  -39.0390 H         1 UNK         0.0970 
    115 H115       21.4535  -31.2465  -40.0605 H         1 UNK         0.0970 
    116 H116       18.0546  -30.1303  -39.2827 H         1 UNK         0.0612 
    117 H117       19.7266  -29.7702  -39.5975 H         1 UNK         0.0612 
@<TRIPOS>BOND
     1    1    2 1    
     2    1   62 1    
     3    1   63 1    
     4    1   64 1    
     5    2    3 2    
     6    2    4 am   BACKBONE|DICT|INTERRES
     7    4    5 1    
     8    4   65 1    
     9    5    6 1    
    10    5   25 1    
    11    5   66 1    
    12    6    7 1    
    13    6   67 1    
    14    6   68 1    
    15    7    8 1    
    16    8    9 1    
    17    8   69 1    
    18    8   70 1    
    19    9   10 ar   
    20    9   14 ar   
    21   10   11 ar   
    22   10   71 1    
    23   11   12 ar   
    24   11   61 1    
    25   12   13 ar   
    26   12   72 1    
    27   13   14 ar   
    28   13   15 1    
    29   14   73 1    
    30   15   16 1    
    31   15   74 1    
    32   15   75 1    
    33   16   17 1    
    34   17   18 1    
    35   17   76 1    
    36   17   77 1    
    37   18   19 1    
    38   18   27 1    
    39   18   78 1    
    40   19   20 am   BACKBONE|DICT|INTERRES
    41   19   79 1    
    42   20   21 2    
    43   20   22 1    
    44   22   23 1    
    45   22   24 1    
    46   22   80 1    
    47   23   81 1    
    48   23   82 1    
    49   23   83 1    
    50   24   25 am   BACKBONE|DICT|INTERRES
    51   24   84 1    
    52   25   26 2    
    53   27   28 2    
    54   27   29 am   BACKBONE|DICT|INTERRES
    55   29   30 1    
    56   29   85 1    
    57   30   31 1    
    58   30   32 1    
    59   30   86 1    
    60   31   87 1    
    61   31   88 1    
    62   31   89 1    
    63   32   33 2    
    64   32   34 am   BACKBONE|DICT|INTERRES
    65   34   35 1    
    66   34   90 1    
    67   35   36 1    
    68   35   37 1    
    69   35   91 1    
    70   36   92 1    
    71   36   93 1    
    72   36   94 1    
    73   37   38 2    
    74   37   39 am   BACKBONE|DICT|INTERRES
    75   39   40 1    
    76   39   95 1    
    77   40   41 1    
    78   40   42 1    
    79   40   96 1    
    80   41   97 1    
    81   41   98 1    
    82   41   99 1    
    83   42   43 2    
    84   42   44 am   BACKBONE|DICT|INTERRES
    85   44   45 1    
    86   44  100 1    
    87   45   46 1    
    88   45   47 1    
    89   45  101 1    
    90   46  102 1    
    91   46  103 1    
    92   46  104 1    
    93   47   48 2    
    94   47   49 am   BACKBONE|DICT|INTERRES
    95   49   50 1    
    96   49  105 1    
    97   50   51 1    
    98   50   52 1    
    99   50  106 1    
   100   51  107 1    
   101   51  108 1    
   102   51  109 1    
   103   52   53 2    
   104   52   54 am   BACKBONE|DICT|INTERRES
   105   54   55 1    
   106   54  110 1    
   107   55   56 1    
   108   55   59 1    
   109   55  111 1    
   110   56   57 am   BACKBONE|DICT|INTERRES
   111   56   58 2    
   112   57  112 1    
   113   57  113 1    
   114   59   60 1    
   115   59  114 1    
   116   59  115 1    
   117   60   61 1    
   118   61  116 1    
   119   61  117 1    
@<TRIPOS>SUBSTRUCTURE
     1 UNK         1 GROUP             0       ****    0 ROOT    
