@<TRIPOS>MOLECULE
3R8
117   119    1
SMALL
USER_CHARGES


@<TRIPOS>ATOM
      1 CA         18.0200  -23.2583  -48.5480 C.3       0 UNK        -0.2013 
      2 C          18.7289  -24.5732  -48.2599 C.2       0 UNK         0.4866 
      3 O          19.8892  -24.7378  -48.6371 O.2       0 UNK        -0.5176 
      4 N          18.0399  -25.5114  -47.5958 N.am      1 UNK        -0.4884 
      5 CA         18.5712  -26.8298  -47.2207 C.3       1 UNK         0.0853 
      6 C6         17.4227  -27.8106  -46.8707 C.3       10 UNK        -0.0849 
      7 S7         17.8823  -29.5598  -47.1200 S.3       10 UNK        -0.2776 
      8 C8         16.4469  -30.4248  -46.4051 C.3       10 UNK         0.0316 
      9 C9         16.4188  -30.3210  -44.8868 C.ar      10 UNK        -0.0863 
     10 C10        17.1828  -31.1925  -44.1049 C.ar      10 UNK        -0.1009 
     11 C11        17.1657  -31.0942  -42.7098 C.ar      10 UNK        -0.0712 
     12 C12        16.3772  -30.1178  -42.0957 C.ar      10 UNK        -0.0894 
     13 C13        15.6250  -29.2303  -42.8697 C.ar      10 UNK        -0.0745 
     14 C14        15.6337  -29.3487  -44.2618 C.ar      10 UNK        -0.0972 
     15 C15        14.8286  -28.1165  -42.2138 C.3       10 UNK         0.0209 
     16 S16        15.7839  -26.5672  -42.2038 S.3       10 UNK        -0.2568 
     17 C17        16.9080  -26.8213  -40.7865 C.3       10 UNK        -0.0983 
     18 CA         18.3618  -27.2290  -41.1664 C.3       3 UNK         0.0876 
     19 N          18.9278  -26.3140  -42.1643 N.am      3 UNK        -0.4424 
     20 C          19.9979  -26.5318  -42.9379 C.2       2 UNK         0.4918 
     21 O          20.7199  -27.5255  -42.8537 O.2       2 UNK        -0.4875 
     22 CA         20.2671  -25.4575  -44.0057 C.3       2 UNK         0.0481 
     23 CB         21.7680  -25.2819  -44.3127 C.3       2 UNK        -0.1831 
     24 N          19.4886  -25.7219  -45.2217 N.am      2 UNK        -0.4498 
     25 C          19.6143  -26.7488  -46.0812 C.2       1 UNK         0.5027 
     26 O          20.5031  -27.5977  -46.0248 O.2       1 UNK        -0.4969 
     27 C          19.2503  -27.3703  -39.9035 C.2       3 UNK         0.5005 
     28 O          18.7971  -27.0584  -38.7992 O.2       3 UNK        -0.5279 
     29 N          20.4988  -27.8204  -40.0660 N.am      4 UNK        -0.4463 
     30 CA         21.4555  -28.0440  -38.9867 C.3       4 UNK         0.0283 
     31 CB         22.2155  -26.7411  -38.6787 C.3       4 UNK        -0.1875 
     32 C          22.4283  -29.1490  -39.3974 C.2       4 UNK         0.4949 
     33 O          22.9091  -29.1410  -40.5314 O.2       4 UNK        -0.5039 
     34 N          22.7595  -30.0340  -38.4476 N.am      5 UNK        -0.4663 
     35 CA         23.6936  -31.1557  -38.6212 C.3       5 UNK         0.0242 
     36 CB         23.6351  -32.0549  -37.3757 C.3       5 UNK        -0.1982 
     37 C          25.1461  -30.7357  -38.9173 C.2       5 UNK         0.5017 
     38 O          25.9131  -31.5362  -39.4523 O.2       5 UNK        -0.5012 
     39 N          25.4975  -29.4921  -38.5662 N.am      6 UNK        -0.4439 
     40 CA         26.7778  -28.8643  -38.8913 C.3       6 UNK         0.0297 
     41 CB         27.0246  -27.7036  -37.9130 C.3       6 UNK        -0.2006 
     42 C          26.8541  -28.3609  -40.3460 C.2       6 UNK         0.4892 
     43 O          27.9632  -28.1292  -40.8293 O.2       6 UNK        -0.5089 
     44 N          25.7005  -28.1719  -41.0037 N.am      7 UNK        -0.4243 
     45 CA         25.5949  -27.6154  -42.3531 C.3       7 UNK         0.0196 
     46 CB         24.5695  -26.4704  -42.3466 C.3       7 UNK        -0.2007 
     47 C          25.1979  -28.6839  -43.3800 C.2       7 UNK         0.5020 
     48 O          25.7879  -28.7258  -44.4602 O.2       7 UNK        -0.5147 
     49 N          24.2142  -29.5224  -43.0387 N.am      8 UNK        -0.4734 
     50 CA         23.6715  -30.5775  -43.8917 C.3       8 UNK         0.0238 
     51 CB         22.6256  -29.9814  -44.8605 C.3       8 UNK        -0.1912 
     52 C          23.1328  -31.7078  -43.0004 C.2       8 UNK         0.5038 
     53 O          23.7665  -32.0312  -41.9956 O.2       8 UNK        -0.5046 
     54 N          21.9897  -32.2943  -43.3796 N.am      9 UNK        -0.4200 
     55 CA         21.2423  -33.3174  -42.6244 C.3       9 UNK         0.0839 
     56 C          21.9746  -34.6836  -42.4532 C.2       9 UNK         0.5513 
     57 N          22.9808  -34.9971  -43.2606 N.am      9 UNK        -0.7519 
     58 O          21.6060  -35.4895  -41.6023 O.2       9 UNK        -0.4960 
     59 C59        20.6544  -32.7745  -41.2870 C.3       10 UNK        -0.0876 
     60 S60        19.6387  -31.2775  -41.5263 S.3       10 UNK        -0.2414 
     61 C61        18.0191  -32.0280  -41.8700 C.3       10 UNK         0.0169 
     62 H62        17.9777  -23.0830  -49.6227 H         1 UNK         0.0903 
     63 H63        17.0003  -23.2503  -48.1633 H         1 UNK         0.0903 
     64 H64        18.5619  -22.4317  -48.0893 H         1 UNK         0.0903 
     65 H65        17.0848  -25.3236  -47.3233 H         1 UNK         0.3096 
     66 H66        19.0950  -27.2192  -48.0973 H         1 UNK         0.1121 
     67 H67        17.0806  -27.6521  -45.8471 H         1 UNK         0.0849 
     68 H68        16.5583  -27.6219  -47.5097 H         1 UNK         0.0849 
     69 H69        15.5269  -30.0279  -46.8373 H         1 UNK         0.0865 
     70 H70        16.4880  -31.4754  -46.6968 H         1 UNK         0.0865 
     71 H71        17.8022  -31.9387  -44.5838 H         1 UNK         0.1346 
     72 H72        16.3756  -30.0295  -41.0178 H         1 UNK         0.1412 
     73 H73        15.0493  -28.6622  -44.8595 H         1 UNK         0.1426 
     74 H74        14.5332  -28.3885  -41.1993 H         1 UNK         0.0716 
     75 H75        13.9017  -27.9545  -42.7662 H         1 UNK         0.0716 
     76 H76        16.4708  -27.5622  -40.1149 H         1 UNK         0.0695 
     77 H77        16.9159  -25.8838  -40.2269 H         1 UNK         0.0695 
     78 H78        18.3240  -28.2183  -41.6259 H         1 UNK         0.0983 
     79 H79        18.3958  -25.4691  -42.3120 H         1 UNK         0.3095 
     80 H80        19.9084  -24.5033  -43.6163 H         1 UNK         0.0454 
     81 H81        22.2393  -26.2148  -44.6243 H         1 UNK         0.0851 
     82 H82        22.2972  -24.9309  -43.4270 H         1 UNK         0.0851 
     83 H83        21.9296  -24.5459  -45.0999 H         1 UNK         0.0851 
     84 H84        18.7225  -25.0854  -45.3902 H         1 UNK         0.2976 
     85 H85        20.8238  -28.0458  -41.0059 H         1 UNK         0.3116 
     86 H86        20.9205  -28.3685  -38.0914 H         1 UNK         0.0646 
     87 H87        22.7581  -26.3760  -39.5518 H         1 UNK         0.0847 
     88 H88        22.9418  -26.8884  -37.8787 H         1 UNK         0.0847 
     89 H89        21.5359  -25.9526  -38.3551 H         1 UNK         0.0847 
     90 H90        22.3266  -29.9509  -37.5381 H         1 UNK         0.3040 
     91 H91        23.3549  -31.7398  -39.4770 H         1 UNK         0.1015 
     92 H92        23.9433  -31.5204  -36.4763 H         1 UNK         0.0786 
     93 H93        24.2954  -32.9165  -37.4852 H         1 UNK         0.0786 
     94 H94        22.6289  -32.4411  -37.2114 H         1 UNK         0.0786 
     95 H95        24.8081  -28.9198  -38.1017 H         1 UNK         0.3172 
     96 H96        27.5742  -29.5990  -38.7540 H         1 UNK         0.0595 
     97 H97        26.2619  -26.9288  -38.0022 H         1 UNK         0.0839 
     98 H98        27.9899  -27.2321  -38.1032 H         1 UNK         0.0839 
     99 H99        27.0348  -28.0498  -36.8793 H         1 UNK         0.0839 
    100 H100       24.8306  -28.4564  -40.5681 H         1 UNK         0.2998 
    101 H101       26.5539  -27.1974  -42.6672 H         1 UNK         0.0822 
    102 H102       24.8465  -25.6926  -41.6349 H         1 UNK         0.0787 
    103 H103       24.5119  -26.0040  -43.3305 H         1 UNK         0.0787 
    104 H104       23.5688  -26.8213  -42.0889 H         1 UNK         0.0787 
    105 H105       23.7801  -29.4451  -42.1193 H         1 UNK         0.3055 
    106 H106       24.4844  -31.0108  -44.4783 H         1 UNK         0.1106 
    107 H107       22.2831  -30.7169  -45.5887 H         1 UNK         0.0828 
    108 H108       21.7517  -29.6033  -44.3272 H         1 UNK         0.0828 
    109 H109       23.0397  -29.1494  -45.4303 H         1 UNK         0.0828 
    110 H110       21.5444  -31.9681  -44.2241 H         1 UNK         0.2931 
    111 H111       20.3920  -33.5594  -43.2626 H         1 UNK         0.0412 
    112 H112       23.2897  -34.3488  -43.9669 H         1 UNK         0.3472 
    113 H113       23.4433  -35.8862  -43.1525 H         1 UNK         0.3472 
    114 H114       21.4567  -32.5352  -40.5892 H         1 UNK         0.0970 
    115 H115       20.0447  -33.5318  -40.7910 H         1 UNK         0.0970 
    116 H116       17.5205  -32.2608  -40.9279 H         1 UNK         0.0612 
    117 H117       18.1489  -32.9759  -42.3941 H         1 UNK         0.0612 
@<TRIPOS>BOND
     1    1    2 1    
     2    1   62 1    
     3    1   63 1    
     4    1   64 1    
     5    2    3 2    
     6    2    4 am   BACKBONE|DICT|INTERRES
     7    4    5 1    
     8    4   65 1    
     9    5    6 1    
    10    5   25 1    
    11    5   66 1    
    12    6    7 1    
    13    6   67 1    
    14    6   68 1    
    15    7    8 1    
    16    8    9 1    
    17    8   69 1    
    18    8   70 1    
    19    9   10 ar   
    20    9   14 ar   
    21   10   11 ar   
    22   10   71 1    
    23   11   12 ar   
    24   11   61 1    
    25   12   13 ar   
    26   12   72 1    
    27   13   14 ar   
    28   13   15 1    
    29   14   73 1    
    30   15   16 1    
    31   15   74 1    
    32   15   75 1    
    33   16   17 1    
    34   17   18 1    
    35   17   76 1    
    36   17   77 1    
    37   18   19 1    
    38   18   27 1    
    39   18   78 1    
    40   19   20 am   BACKBONE|DICT|INTERRES
    41   19   79 1    
    42   20   21 2    
    43   20   22 1    
    44   22   23 1    
    45   22   24 1    
    46   22   80 1    
    47   23   81 1    
    48   23   82 1    
    49   23   83 1    
    50   24   25 am   BACKBONE|DICT|INTERRES
    51   24   84 1    
    52   25   26 2    
    53   27   28 2    
    54   27   29 am   BACKBONE|DICT|INTERRES
    55   29   30 1    
    56   29   85 1    
    57   30   31 1    
    58   30   32 1    
    59   30   86 1    
    60   31   87 1    
    61   31   88 1    
    62   31   89 1    
    63   32   33 2    
    64   32   34 am   BACKBONE|DICT|INTERRES
    65   34   35 1    
    66   34   90 1    
    67   35   36 1    
    68   35   37 1    
    69   35   91 1    
    70   36   92 1    
    71   36   93 1    
    72   36   94 1    
    73   37   38 2    
    74   37   39 am   BACKBONE|DICT|INTERRES
    75   39   40 1    
    76   39   95 1    
    77   40   41 1    
    78   40   42 1    
    79   40   96 1    
    80   41   97 1    
    81   41   98 1    
    82   41   99 1    
    83   42   43 2    
    84   42   44 am   BACKBONE|DICT|INTERRES
    85   44   45 1    
    86   44  100 1    
    87   45   46 1    
    88   45   47 1    
    89   45  101 1    
    90   46  102 1    
    91   46  103 1    
    92   46  104 1    
    93   47   48 2    
    94   47   49 am   BACKBONE|DICT|INTERRES
    95   49   50 1    
    96   49  105 1    
    97   50   51 1    
    98   50   52 1    
    99   50  106 1    
   100   51  107 1    
   101   51  108 1    
   102   51  109 1    
   103   52   53 2    
   104   52   54 am   BACKBONE|DICT|INTERRES
   105   54   55 1    
   106   54  110 1    
   107   55   56 1    
   108   55   59 1    
   109   55  111 1    
   110   56   57 am   BACKBONE|DICT|INTERRES
   111   56   58 2    
   112   57  112 1    
   113   57  113 1    
   114   59   60 1    
   115   59  114 1    
   116   59  115 1    
   117   60   61 1    
   118   61  116 1    
   119   61  117 1    
@<TRIPOS>SUBSTRUCTURE
     1 UNK         1 GROUP             0       ****    0 ROOT    
