@<TRIPOS>MOLECULE
3R8
117   119    1
SMALL
USER_CHARGES


@<TRIPOS>ATOM
      1 CA         20.9740  -26.6861  -38.7238 C.3       0 UNK        -0.2013 
      2 C          19.9155  -26.4516  -39.7890 C.2       0 UNK         0.4866 
      3 O          19.2755  -25.3994  -39.7901 O.2       0 UNK        -0.5176 
      4 N          19.7281  -27.4200  -40.6956 N.am      1 UNK        -0.4884 
      5 CA         18.8500  -27.2852  -41.8630 C.3       1 UNK         0.0853 
      6 C6         18.1226  -28.6055  -42.2130 C.3       10 UNK        -0.0849 
      7 S7         16.5852  -28.2692  -43.1433 S.3       10 UNK        -0.2776 
      8 C8         16.0107  -29.9422  -43.5733 C.3       10 UNK         0.0316 
      9 C9         16.9717  -30.6341  -44.5260 C.ar      10 UNK        -0.0863 
     10 C10        17.8116  -31.6459  -44.0578 C.ar      10 UNK        -0.1009 
     11 C11        18.7407  -32.2502  -44.9077 C.ar      10 UNK        -0.0712 
     12 C12        18.8091  -31.8530  -46.2456 C.ar      10 UNK        -0.0894 
     13 C13        17.9678  -30.8439  -46.7281 C.ar      10 UNK        -0.0745 
     14 C14        17.0436  -30.2454  -45.8665 C.ar      10 UNK        -0.0972 
     15 C15        18.0833  -30.3729  -48.1709 C.3       10 UNK         0.0209 
     16 S16        18.8489  -28.7224  -48.2907 S.3       10 UNK        -0.2568 
     17 C17        20.4969  -29.0317  -47.5704 C.3       10 UNK        -0.0983 
     18 CA         21.2183  -27.7394  -47.1218 C.3       3 UNK         0.0876 
     19 N          20.4103  -26.9367  -46.1956 N.am      3 UNK        -0.4424 
     20 C          20.6918  -25.6735  -45.8522 C.2       2 UNK         0.4918 
     21 O          21.6422  -25.0388  -46.3104 O.2       2 UNK        -0.4875 
     22 CA         19.7720  -24.9863  -44.8251 C.3       2 UNK         0.0481 
     23 CB         18.7066  -24.1510  -45.5531 C.3       2 UNK        -0.1831 
     24 N          19.1083  -25.8459  -43.8343 N.am      2 UNK        -0.4498 
     25 C          19.6889  -26.7564  -43.0398 C.2       1 UNK         0.5027 
     26 O          20.8366  -27.1782  -43.1965 O.2       1 UNK        -0.4969 
     27 C          22.6012  -28.0964  -46.5348 C.2       3 UNK         0.5005 
     28 O          23.5727  -28.1746  -47.2889 O.2       3 UNK        -0.5279 
     29 N          22.6603  -28.3178  -45.2141 N.am      4 UNK        -0.4463 
     30 CA         23.8753  -28.6671  -44.4762 C.3       4 UNK         0.0283 
     31 CB         23.5678  -29.8319  -43.5218 C.3       4 UNK        -0.1875 
     32 C          24.4229  -27.4702  -43.6877 C.2       4 UNK         0.4949 
     33 O          25.6397  -27.3534  -43.5437 O.2       4 UNK        -0.5039 
     34 N          23.5224  -26.6240  -43.1661 N.am      5 UNK        -0.4663 
     35 CA         23.7188  -25.4192  -42.3475 C.3       5 UNK         0.0242 
     36 CB         24.5287  -24.3503  -43.1046 C.3       5 UNK        -0.1982 
     37 C          24.3081  -25.6848  -40.9511 C.2       5 UNK         0.5017 
     38 O          23.8194  -25.1203  -39.9731 O.2       5 UNK        -0.5012 
     39 N          25.3324  -26.5396  -40.8797 N.am      6 UNK        -0.4439 
     40 CA         26.0358  -26.9324  -39.6599 C.3       6 UNK         0.0297 
     41 CB         27.4926  -27.2631  -40.0248 C.3       6 UNK        -0.2006 
     42 C          25.3858  -28.1201  -38.9262 C.2       6 UNK         0.4892 
     43 O          25.8079  -28.4163  -37.8072 O.2       6 UNK        -0.5089 
     44 N          24.4074  -28.7936  -39.5474 N.am      7 UNK        -0.4243 
     45 CA         23.7478  -29.9803  -39.0052 C.3       7 UNK         0.0196 
     46 CB         24.3614  -31.2415  -39.6372 C.3       7 UNK        -0.2007 
     47 C          22.2445  -29.9275  -39.2825 C.2       7 UNK         0.5020 
     48 O          21.8256  -29.4481  -40.3385 O.2       7 UNK        -0.5147 
     49 N          21.4597  -30.4618  -38.3422 N.am      8 UNK        -0.4734 
     50 CA         20.0191  -30.6742  -38.4707 C.3       8 UNK         0.0238 
     51 CB         19.3343  -30.3217  -37.1364 C.3       8 UNK        -0.1912 
     52 C          19.7841  -32.1332  -38.8901 C.2       8 UNK         0.5038 
     53 O          19.3095  -32.9403  -38.0892 O.2       8 UNK        -0.5046 
     54 N          20.1776  -32.4517  -40.1283 N.am      9 UNK        -0.4200 
     55 CA         20.1016  -33.7906  -40.7358 C.3       9 UNK         0.0839 
     56 C          18.6676  -34.3249  -41.0331 C.2       9 UNK         0.5513 
     57 N          17.6067  -33.5503  -40.8417 N.am      9 UNK        -0.7519 
     58 O          18.5160  -35.4752  -41.4359 O.2       9 UNK        -0.4960 
     59 C59        21.0522  -33.9148  -41.9609 C.3       10 UNK        -0.0876 
     60 S60        20.8627  -32.5753  -43.1890 S.3       10 UNK        -0.2414 
     61 C61        19.6791  -33.3123  -44.3600 C.3       10 UNK         0.0169 
     62 H62        20.6723  -27.4889  -38.0531 H         1 UNK         0.0903 
     63 H63        21.9264  -26.9499  -39.1809 H         1 UNK         0.0903 
     64 H64        21.1305  -25.7864  -38.1291 H         1 UNK         0.0903 
     65 H65        20.3667  -28.2126  -40.7057 H         1 UNK         0.3096 
     66 H66        18.0872  -26.5387  -41.6288 H         1 UNK         0.1121 
     67 H67        18.7720  -29.2840  -42.7701 H         1 UNK         0.0849 
     68 H68        17.8415  -29.1333  -41.3003 H         1 UNK         0.0849 
     69 H69        15.8745  -30.5253  -42.6610 H         1 UNK         0.0865 
     70 H70        15.0271  -29.8716  -44.0401 H         1 UNK         0.0865 
     71 H71        17.7685  -31.9438  -43.0202 H         1 UNK         0.1346 
     72 H72        19.5345  -32.3101  -46.9047 H         1 UNK         0.1412 
     73 H73        16.4044  -29.4526  -46.2314 H         1 UNK         0.1426 
     74 H74        17.0897  -30.3364  -48.6197 H         1 UNK         0.0716 
     75 H75        18.6630  -31.0802  -48.7661 H         1 UNK         0.0716 
     76 H76        21.0921  -29.5653  -48.3141 H         1 UNK         0.0695 
     77 H77        20.3989  -29.7032  -46.7175 H         1 UNK         0.0695 
     78 H78        21.3967  -27.1307  -48.0113 H         1 UNK         0.0983 
     79 H79        19.5981  -27.3840  -45.7967 H         1 UNK         0.3095 
     80 H80        20.4032  -24.2996  -44.2575 H         1 UNK         0.0454 
     81 H81        19.1640  -23.4769  -46.2791 H         1 UNK         0.0851 
     82 H82        18.1393  -23.5328  -44.8574 H         1 UNK         0.0851 
     83 H83        18.0017  -24.7826  -46.0952 H         1 UNK         0.0851 
     84 H84        18.1401  -25.6225  -43.6513 H         1 UNK         0.2976 
     85 H85        21.8225  -28.1684  -44.6615 H         1 UNK         0.3116 
     86 H86        24.6574  -28.9947  -45.1643 H         1 UNK         0.0646 
     87 H87        23.2650  -30.7225  -44.0722 H         1 UNK         0.0847 
     88 H88        22.7663  -29.5851  -42.8247 H         1 UNK         0.0847 
     89 H89        24.4460  -30.0992  -42.9329 H         1 UNK         0.0847 
     90 H90        22.5399  -26.8707  -43.2848 H         1 UNK         0.3040 
     91 H91        22.7178  -25.0155  -42.1850 H         1 UNK         0.1015 
     92 H92        24.5841  -23.4251  -42.5295 H         1 UNK         0.0786 
     93 H93        24.0654  -24.1105  -44.0618 H         1 UNK         0.0786 
     94 H94        25.5520  -24.6721  -43.2987 H         1 UNK         0.0786 
     95 H95        25.6592  -26.9369  -41.7590 H         1 UNK         0.3172 
     96 H96        26.0439  -26.0883  -38.9674 H         1 UNK         0.0595 
     97 H97        27.5544  -28.1048  -40.7155 H         1 UNK         0.0839 
     98 H98        28.0701  -27.5262  -39.1376 H         1 UNK         0.0839 
     99 H99        27.9883  -26.4107  -40.4896 H         1 UNK         0.0839 
    100 H100       24.0566  -28.4621  -40.4354 H         1 UNK         0.2998 
    101 H101       23.8890  -30.0237  -37.9229 H         1 UNK         0.0822 
    102 H102       24.2267  -31.2565  -40.7193 H         1 UNK         0.0787 
    103 H103       25.4299  -31.3076  -39.4316 H         1 UNK         0.0787 
    104 H104       23.8982  -32.1454  -39.2393 H         1 UNK         0.0787 
    105 H105       21.8931  -30.8682  -37.5242 H         1 UNK         0.3055 
    106 H106       19.5974  -30.0298  -39.2453 H         1 UNK         0.1106 
    107 H107       19.7092  -30.9297  -36.3120 H         1 UNK         0.0828 
    108 H108       18.2572  -30.4836  -37.1971 H         1 UNK         0.0828 
    109 H109       19.4879  -29.2754  -36.8741 H         1 UNK         0.0828 
    110 H110       20.5683  -31.7299  -40.7186 H         1 UNK         0.2931 
    111 H111       20.4908  -34.4797  -39.9837 H         1 UNK         0.0412 
    112 H112       16.6880  -33.9205  -41.0274 H         1 UNK         0.3472 
    113 H113       17.7124  -32.6202  -40.4732 H         1 UNK         0.3472 
    114 H114       20.9546  -34.8866  -42.4488 H         1 UNK         0.0970 
    115 H115       22.0843  -33.8779  -41.6092 H         1 UNK         0.0970 
    116 H116       19.0855  -34.0866  -43.8746 H         1 UNK         0.0612 
    117 H117       20.2315  -33.8039  -45.1621 H         1 UNK         0.0612 
@<TRIPOS>BOND
     1    1    2 1    
     2    1   62 1    
     3    1   63 1    
     4    1   64 1    
     5    2    3 2    
     6    2    4 am   BACKBONE|DICT|INTERRES
     7    4    5 1    
     8    4   65 1    
     9    5    6 1    
    10    5   25 1    
    11    5   66 1    
    12    6    7 1    
    13    6   67 1    
    14    6   68 1    
    15    7    8 1    
    16    8    9 1    
    17    8   69 1    
    18    8   70 1    
    19    9   10 ar   
    20    9   14 ar   
    21   10   11 ar   
    22   10   71 1    
    23   11   12 ar   
    24   11   61 1    
    25   12   13 ar   
    26   12   72 1    
    27   13   14 ar   
    28   13   15 1    
    29   14   73 1    
    30   15   16 1    
    31   15   74 1    
    32   15   75 1    
    33   16   17 1    
    34   17   18 1    
    35   17   76 1    
    36   17   77 1    
    37   18   19 1    
    38   18   27 1    
    39   18   78 1    
    40   19   20 am   BACKBONE|DICT|INTERRES
    41   19   79 1    
    42   20   21 2    
    43   20   22 1    
    44   22   23 1    
    45   22   24 1    
    46   22   80 1    
    47   23   81 1    
    48   23   82 1    
    49   23   83 1    
    50   24   25 am   BACKBONE|DICT|INTERRES
    51   24   84 1    
    52   25   26 2    
    53   27   28 2    
    54   27   29 am   BACKBONE|DICT|INTERRES
    55   29   30 1    
    56   29   85 1    
    57   30   31 1    
    58   30   32 1    
    59   30   86 1    
    60   31   87 1    
    61   31   88 1    
    62   31   89 1    
    63   32   33 2    
    64   32   34 am   BACKBONE|DICT|INTERRES
    65   34   35 1    
    66   34   90 1    
    67   35   36 1    
    68   35   37 1    
    69   35   91 1    
    70   36   92 1    
    71   36   93 1    
    72   36   94 1    
    73   37   38 2    
    74   37   39 am   BACKBONE|DICT|INTERRES
    75   39   40 1    
    76   39   95 1    
    77   40   41 1    
    78   40   42 1    
    79   40   96 1    
    80   41   97 1    
    81   41   98 1    
    82   41   99 1    
    83   42   43 2    
    84   42   44 am   BACKBONE|DICT|INTERRES
    85   44   45 1    
    86   44  100 1    
    87   45   46 1    
    88   45   47 1    
    89   45  101 1    
    90   46  102 1    
    91   46  103 1    
    92   46  104 1    
    93   47   48 2    
    94   47   49 am   BACKBONE|DICT|INTERRES
    95   49   50 1    
    96   49  105 1    
    97   50   51 1    
    98   50   52 1    
    99   50  106 1    
   100   51  107 1    
   101   51  108 1    
   102   51  109 1    
   103   52   53 2    
   104   52   54 am   BACKBONE|DICT|INTERRES
   105   54   55 1    
   106   54  110 1    
   107   55   56 1    
   108   55   59 1    
   109   55  111 1    
   110   56   57 am   BACKBONE|DICT|INTERRES
   111   56   58 2    
   112   57  112 1    
   113   57  113 1    
   114   59   60 1    
   115   59  114 1    
   116   59  115 1    
   117   60   61 1    
   118   61  116 1    
   119   61  117 1    
@<TRIPOS>SUBSTRUCTURE
     1 UNK         1 GROUP             0       ****    0 ROOT    
