@<TRIPOS>MOLECULE
3R8
117   119    1
SMALL
USER_CHARGES


@<TRIPOS>ATOM
      1 CA         18.4440  -22.9730  -47.9956 C.3       0 UNK        -0.2013 
      2 C          19.0861  -24.3333  -47.7684 C.2       0 UNK         0.4866 
      3 O          20.1967  -24.5725  -48.2424 O.2       0 UNK        -0.5176 
      4 N          18.3980  -25.2263  -47.0431 N.am      1 UNK        -0.4884 
      5 CA         18.8637  -26.5864  -46.7294 C.3       1 UNK         0.0853 
      6 C6         17.6686  -27.5289  -46.4200 C.3       10 UNK        -0.0849 
      7 S7         17.9426  -29.2146  -47.0601 S.3       10 UNK        -0.2776 
      8 C8         16.6893  -30.1664  -46.1422 C.3       10 UNK         0.0316 
      9 C9         17.0304  -30.2975  -44.6640 C.ar      10 UNK        -0.0863 
     10 C10        18.1696  -31.0055  -44.2686 C.ar      10 UNK        -0.1009 
     11 C11        18.4852  -31.1362  -42.9147 C.ar      10 UNK        -0.0712 
     12 C12        17.6399  -30.5826  -41.9523 C.ar      10 UNK        -0.0894 
     13 C13        16.5108  -29.8517  -42.3321 C.ar      10 UNK        -0.0745 
     14 C14        16.2080  -29.7174  -43.6914 C.ar      10 UNK        -0.0972 
     15 C15        15.6181  -29.2057  -41.2781 C.3       10 UNK         0.0209 
     16 S16        16.5540  -28.2731  -40.0167 S.3       10 UNK        -0.2568 
     17 C17        17.3927  -26.9988  -41.0196 C.3       10 UNK        -0.0983 
     18 CA         18.9293  -27.1947  -41.1357 C.3       3 UNK         0.0876 
     19 N          19.4698  -26.3490  -42.2080 N.am      3 UNK        -0.4424 
     20 C          20.7556  -26.2100  -42.5646 C.2       2 UNK         0.4918 
     21 O          21.6982  -26.7522  -41.9868 O.2       2 UNK        -0.4875 
     22 CA         21.0115  -25.2746  -43.7627 C.3       2 UNK         0.0481 
     23 CB         22.4720  -25.3046  -44.2596 C.3       2 UNK        -0.1831 
     24 N          20.0732  -25.5009  -44.8704 N.am      2 UNK        -0.4498 
     25 C          19.9312  -26.6167  -45.6078 C.2       1 UNK         0.5027 
     26 O          20.6009  -27.6362  -45.4402 O.2       1 UNK        -0.4969 
     27 C          19.6410  -26.9814  -39.7806 C.2       3 UNK         0.5005 
     28 O          20.0692  -27.9499  -39.1503 O.2       3 UNK        -0.5279 
     29 N          19.8038  -25.7090  -39.3881 N.am      4 UNK        -0.4463 
     30 CA         20.4400  -25.2878  -38.1351 C.3       4 UNK         0.0283 
     31 CB         20.1999  -23.7829  -37.9327 C.3       4 UNK        -0.1875 
     32 C          21.9448  -25.6050  -38.0415 C.2       4 UNK         0.4949 
     33 O          22.4725  -25.6659  -36.9310 O.2       4 UNK        -0.5039 
     34 N          22.6081  -25.8002  -39.1888 N.am      5 UNK        -0.4663 
     35 CA         24.0294  -26.1435  -39.2822 C.3       5 UNK         0.0242 
     36 CB         24.6318  -25.4040  -40.4898 C.3       5 UNK        -0.1982 
     37 C          24.2633  -27.6595  -39.4109 C.2       5 UNK         0.5017 
     38 O          25.4187  -28.0704  -39.5312 O.2       5 UNK        -0.5012 
     39 N          23.1852  -28.4594  -39.4338 N.am      6 UNK        -0.4439 
     40 CA         23.1144  -29.9002  -39.7139 C.3       6 UNK         0.0297 
     41 CB         23.9509  -30.7412  -38.7300 C.3       6 UNK        -0.2006 
     42 C          23.4372  -30.2468  -41.1769 C.2       6 UNK         0.4892 
     43 O          22.6331  -30.9250  -41.8107 O.2       6 UNK        -0.5089 
     44 N          24.5750  -29.7585  -41.6917 N.am      7 UNK        -0.4243 
     45 CA         25.0156  -29.7933  -43.0907 C.3       7 UNK         0.0196 
     46 CB         24.2819  -28.6852  -43.8792 C.3       7 UNK        -0.2007 
     47 C          24.8975  -31.1940  -43.7256 C.2       7 UNK         0.5020 
     48 O          25.6604  -32.0890  -43.3592 O.2       7 UNK        -0.5147 
     49 N          23.9291  -31.3675  -44.6361 N.am      8 UNK        -0.4734 
     50 CA         23.6191  -32.6175  -45.3372 C.3       8 UNK         0.0238 
     51 CB         22.5337  -32.3398  -46.3908 C.3       8 UNK        -0.1912 
     52 C          23.1869  -33.7796  -44.4227 C.2       8 UNK         0.5038 
     53 O          23.3502  -34.9349  -44.8182 O.2       8 UNK        -0.5046 
     54 N          22.6571  -33.4672  -43.2331 N.am      9 UNK        -0.4200 
     55 CA         22.3001  -34.4477  -42.1971 C.3       9 UNK         0.0839 
     56 C          23.5109  -34.8881  -41.3219 C.2       9 UNK         0.5513 
     57 N          24.6997  -34.3126  -41.4705 N.am      9 UNK        -0.7519 
     58 O          23.3702  -35.7832  -40.4926 O.2       9 UNK        -0.4960 
     59 C59        21.1216  -33.9588  -41.3127 C.3       10 UNK        -0.0876 
     60 S60        19.5931  -33.5989  -42.2501 S.3       10 UNK        -0.2414 
     61 C61        19.7745  -31.8070  -42.4840 C.3       10 UNK         0.0169 
     62 H62        19.0791  -22.1857  -47.5902 H         1 UNK         0.0903 
     63 H63        18.3171  -22.7922  -49.0627 H         1 UNK         0.0903 
     64 H64        17.4657  -22.8978  -47.5210 H         1 UNK         0.0903 
     65 H65        17.4863  -24.9762  -46.6847 H         1 UNK         0.3096 
     66 H66        19.3662  -26.9569  -47.6266 H         1 UNK         0.1121 
     67 H67        16.7580  -27.1650  -46.8990 H         1 UNK         0.0849 
     68 H68        17.4476  -27.5599  -45.3511 H         1 UNK         0.0849 
     69 H69        15.7111  -29.7035  -46.2819 H         1 UNK         0.0865 
     70 H70        16.6182  -31.1645  -46.5769 H         1 UNK         0.0865 
     71 H71        18.8222  -31.4348  -45.0168 H         1 UNK         0.1346 
     72 H72        17.8843  -30.6872  -40.9039 H         1 UNK         0.1412 
     73 H73        15.3308  -29.1610  -43.9930 H         1 UNK         0.1426 
     74 H74        15.0422  -29.9873  -40.7811 H         1 UNK         0.0716 
     75 H75        14.8930  -28.5345  -41.7412 H         1 UNK         0.0716 
     76 H76        17.1566  -26.0204  -40.5970 H         1 UNK         0.0695 
     77 H77        16.9438  -27.0013  -42.0142 H         1 UNK         0.0695 
     78 H78        19.1254  -28.2248  -41.4391 H         1 UNK         0.0983 
     79 H79        18.7849  -25.8489  -42.7545 H         1 UNK         0.3095 
     80 H80        20.8155  -24.2642  -43.4012 H         1 UNK         0.0454 
     81 H81        22.6232  -24.6106  -45.0861 H         1 UNK         0.0851 
     82 H82        22.7639  -26.2974  -44.6005 H         1 UNK         0.0851 
     83 H83        23.1620  -25.0162  -43.4668 H         1 UNK         0.0851 
     84 H84        19.4775  -24.7200  -45.1082 H         1 UNK         0.2976 
     85 H85        19.4430  -24.9761  -39.9821 H         1 UNK         0.3116 
     86 H86        19.9481  -25.8230  -37.3199 H         1 UNK         0.0646 
     87 H87        20.6517  -23.1905  -38.7293 H         1 UNK         0.0847 
     88 H88        19.1356  -23.5495  -37.9001 H         1 UNK         0.0847 
     89 H89        20.6314  -23.4419  -36.9903 H         1 UNK         0.0847 
     90 H90        22.0946  -25.7895  -40.0622 H         1 UNK         0.3040 
     91 H91        24.5544  -25.8109  -38.3839 H         1 UNK         0.1015 
     92 H92        25.7107  -25.5556  -40.5437 H         1 UNK         0.0786 
     93 H93        24.4603  -24.3294  -40.4261 H         1 UNK         0.0786 
     94 H94        24.2080  -25.7589  -41.4294 H         1 UNK         0.0786 
     95 H95        22.2801  -28.0087  -39.3549 H         1 UNK         0.3172 
     96 H96        22.0682  -30.1679  -39.5555 H         1 UNK         0.0595 
     97 H97        25.0209  -30.5629  -38.8369 H         1 UNK         0.0839 
     98 H98        23.7862  -31.8064  -38.8988 H         1 UNK         0.0839 
     99 H99        23.6768  -30.5301  -37.6965 H         1 UNK         0.0839 
    100 H100       25.1620  -29.2286  -41.0535 H         1 UNK         0.2998 
    101 H101       26.0791  -29.5499  -43.0888 H         1 UNK         0.0822 
    102 H102       24.5920  -28.6650  -44.9249 H         1 UNK         0.0787 
    103 H103       23.1974  -28.8047  -43.8499 H         1 UNK         0.0787 
    104 H104       24.5072  -27.7036  -43.4617 H         1 UNK         0.0787 
    105 H105       23.3325  -30.5779  -44.8380 H         1 UNK         0.3055 
    106 H106       24.5272  -32.9388  -45.8520 H         1 UNK         0.1106 
    107 H107       22.8594  -31.5885  -47.1104 H         1 UNK         0.0828 
    108 H108       22.2958  -33.2430  -46.9548 H         1 UNK         0.0828 
    109 H109       21.6076  -31.9889  -45.9330 H         1 UNK         0.0828 
    110 H110       22.6040  -32.4918  -42.9523 H         1 UNK         0.2931 
    111 H111       21.9575  -35.3544  -42.6993 H         1 UNK         0.0412 
    112 H112       25.4679  -34.6211  -40.8961 H         1 UNK         0.3472 
    113 H113       24.8486  -33.5815  -42.1562 H         1 UNK         0.3472 
    114 H114       20.8650  -34.7246  -40.5782 H         1 UNK         0.0970 
    115 H115       21.4167  -33.0847  -40.7300 H         1 UNK         0.0970 
    116 H116       20.1126  -31.3515  -41.5525 H         1 UNK         0.0612 
    117 H117       20.5491  -31.6166  -43.2275 H         1 UNK         0.0612 
@<TRIPOS>BOND
     1    1    2 1    
     2    1   62 1    
     3    1   63 1    
     4    1   64 1    
     5    2    3 2    
     6    2    4 am   BACKBONE|DICT|INTERRES
     7    4    5 1    
     8    4   65 1    
     9    5    6 1    
    10    5   25 1    
    11    5   66 1    
    12    6    7 1    
    13    6   67 1    
    14    6   68 1    
    15    7    8 1    
    16    8    9 1    
    17    8   69 1    
    18    8   70 1    
    19    9   10 ar   
    20    9   14 ar   
    21   10   11 ar   
    22   10   71 1    
    23   11   12 ar   
    24   11   61 1    
    25   12   13 ar   
    26   12   72 1    
    27   13   14 ar   
    28   13   15 1    
    29   14   73 1    
    30   15   16 1    
    31   15   74 1    
    32   15   75 1    
    33   16   17 1    
    34   17   18 1    
    35   17   76 1    
    36   17   77 1    
    37   18   19 1    
    38   18   27 1    
    39   18   78 1    
    40   19   20 am   BACKBONE|DICT|INTERRES
    41   19   79 1    
    42   20   21 2    
    43   20   22 1    
    44   22   23 1    
    45   22   24 1    
    46   22   80 1    
    47   23   81 1    
    48   23   82 1    
    49   23   83 1    
    50   24   25 am   BACKBONE|DICT|INTERRES
    51   24   84 1    
    52   25   26 2    
    53   27   28 2    
    54   27   29 am   BACKBONE|DICT|INTERRES
    55   29   30 1    
    56   29   85 1    
    57   30   31 1    
    58   30   32 1    
    59   30   86 1    
    60   31   87 1    
    61   31   88 1    
    62   31   89 1    
    63   32   33 2    
    64   32   34 am   BACKBONE|DICT|INTERRES
    65   34   35 1    
    66   34   90 1    
    67   35   36 1    
    68   35   37 1    
    69   35   91 1    
    70   36   92 1    
    71   36   93 1    
    72   36   94 1    
    73   37   38 2    
    74   37   39 am   BACKBONE|DICT|INTERRES
    75   39   40 1    
    76   39   95 1    
    77   40   41 1    
    78   40   42 1    
    79   40   96 1    
    80   41   97 1    
    81   41   98 1    
    82   41   99 1    
    83   42   43 2    
    84   42   44 am   BACKBONE|DICT|INTERRES
    85   44   45 1    
    86   44  100 1    
    87   45   46 1    
    88   45   47 1    
    89   45  101 1    
    90   46  102 1    
    91   46  103 1    
    92   46  104 1    
    93   47   48 2    
    94   47   49 am   BACKBONE|DICT|INTERRES
    95   49   50 1    
    96   49  105 1    
    97   50   51 1    
    98   50   52 1    
    99   50  106 1    
   100   51  107 1    
   101   51  108 1    
   102   51  109 1    
   103   52   53 2    
   104   52   54 am   BACKBONE|DICT|INTERRES
   105   54   55 1    
   106   54  110 1    
   107   55   56 1    
   108   55   59 1    
   109   55  111 1    
   110   56   57 am   BACKBONE|DICT|INTERRES
   111   56   58 2    
   112   57  112 1    
   113   57  113 1    
   114   59   60 1    
   115   59  114 1    
   116   59  115 1    
   117   60   61 1    
   118   61  116 1    
   119   61  117 1    
@<TRIPOS>SUBSTRUCTURE
     1 UNK         1 GROUP             0       ****    0 ROOT    
