@<TRIPOS>MOLECULE
3R8
117   119    1
SMALL
USER_CHARGES


@<TRIPOS>ATOM
      1 CA         17.3273  -23.1888  -42.5474 C.3       0 UNK        -0.2013 
      2 C          16.9122  -23.3092  -44.0119 C.2       0 UNK         0.4866 
      3 O          16.4111  -22.3318  -44.5646 O.2       0 UNK        -0.5176 
      4 N          17.0713  -24.4531  -44.6959 N.am      1 UNK        -0.4884 
      5 CA         17.6812  -25.7263  -44.2867 C.3       1 UNK         0.0853 
      6 C6         16.9872  -26.4452  -43.0978 C.3       10 UNK        -0.0849 
      7 S7         15.2198  -26.8143  -43.3476 S.3       10 UNK        -0.2776 
      8 C8         15.2262  -28.0266  -44.7166 C.3       10 UNK         0.0316 
      9 C9         16.2729  -29.1328  -44.5911 C.ar      10 UNK        -0.0863 
     10 C10        16.3764  -29.9067  -43.4279 C.ar      10 UNK        -0.1009 
     11 C11        17.3184  -30.9390  -43.3353 C.ar      10 UNK        -0.0712 
     12 C12        18.1366  -31.2099  -44.4358 C.ar      10 UNK        -0.0894 
     13 C13        18.0524  -30.4424  -45.5994 C.ar      10 UNK        -0.0745 
     14 C14        17.1207  -29.4043  -45.6702 C.ar      10 UNK        -0.0972 
     15 C15        18.9451  -30.7586  -46.7917 C.3       10 UNK         0.0209 
     16 S16        20.3673  -29.6277  -46.9167 S.3       10 UNK        -0.2568 
     17 C17        21.3729  -30.0999  -45.4597 C.3       10 UNK        -0.0983 
     18 CA         21.9934  -28.9220  -44.6441 C.3       3 UNK         0.0876 
     19 N          21.5286  -27.5924  -45.0484 N.am      3 UNK        -0.4424 
     20 C          22.1140  -26.4364  -44.7094 C.2       2 UNK         0.4918 
     21 O          23.1401  -26.3645  -44.0346 O.2       2 UNK        -0.4875 
     22 CA         21.3992  -25.1427  -45.1471 C.3       2 UNK         0.0481 
     23 CB         21.8840  -24.7077  -46.5383 C.3       2 UNK        -0.1831 
     24 N          19.9331  -25.2484  -45.1445 N.am      2 UNK        -0.4498 
     25 C          19.2010  -25.5915  -44.0744 C.2       1 UNK         0.5027 
     26 O          19.6903  -25.8095  -42.9642 O.2       1 UNK        -0.4969 
     27 C          21.8452  -29.1457  -43.1234 C.2       3 UNK         0.5005 
     28 O          22.7073  -29.7915  -42.5300 O.2       3 UNK        -0.5279 
     29 N          20.7872  -28.5927  -42.5098 N.am      4 UNK        -0.4463 
     30 CA         20.5694  -28.6324  -41.0605 C.3       4 UNK         0.0283 
     31 CB         19.1024  -28.3279  -40.7230 C.3       4 UNK        -0.1875 
     32 C          21.5027  -27.6685  -40.3180 C.2       4 UNK         0.4949 
     33 O          21.9959  -28.0209  -39.2483 O.2       4 UNK        -0.5039 
     34 N          21.7748  -26.4977  -40.9139 N.am      5 UNK        -0.4663 
     35 CA         22.7656  -25.5325  -40.4229 C.3       5 UNK         0.0242 
     36 CB         22.6639  -24.2281  -41.2291 C.3       5 UNK        -0.1982 
     37 C          24.1998  -26.0949  -40.4515 C.2       5 UNK         0.5017 
     38 O          24.9669  -25.8492  -39.5207 O.2       5 UNK        -0.5012 
     39 N          24.5123  -26.8815  -41.4911 N.am      6 UNK        -0.4439 
     40 CA         25.7452  -27.6641  -41.6236 C.3       6 UNK         0.0297 
     41 CB         25.9341  -28.0402  -43.1028 C.3       6 UNK        -0.2006 
     42 C          25.7771  -28.9326  -40.7441 C.2       6 UNK         0.4892 
     43 O          26.8373  -29.5503  -40.6383 O.2       6 UNK        -0.5089 
     44 N          24.6314  -29.3052  -40.1519 N.am      7 UNK        -0.4243 
     45 CA         24.3778  -30.4987  -39.3351 C.3       7 UNK         0.0196 
     46 CB         25.1897  -30.4538  -38.0233 C.3       7 UNK        -0.2007 
     47 C          24.5512  -31.8220  -40.1077 C.2       7 UNK         0.5020 
     48 O          24.9267  -32.8342  -39.5146 O.2       7 UNK        -0.5147 
     49 N          24.2559  -31.8062  -41.4141 N.am      8 UNK        -0.4734 
     50 CA         24.3552  -32.9638  -42.3056 C.3       8 UNK         0.0238 
     51 CB         24.3850  -32.4837  -43.7657 C.3       8 UNK        -0.1912 
     52 C          23.2168  -33.9728  -42.0895 C.2       8 UNK         0.5038 
     53 O          23.4564  -35.1766  -42.1897 O.2       8 UNK        -0.5046 
     54 N          22.0133  -33.4682  -41.7853 N.am      9 UNK        -0.4200 
     55 CA         20.8294  -34.2701  -41.4353 C.3       9 UNK         0.0839 
     56 C          20.7125  -34.6096  -39.9193 C.2       9 UNK         0.5513 
     57 N          21.6715  -34.2434  -39.0762 N.am      9 UNK        -0.7519 
     58 O          19.7433  -35.2383  -39.5018 O.2       9 UNK        -0.4960 
     59 C59        19.5271  -33.6730  -42.0345 C.3       10 UNK        -0.0876 
     60 S60        19.1291  -31.9864  -41.4533 S.3       10 UNK        -0.2414 
     61 C61        17.4170  -31.7751  -42.0603 C.3       10 UNK         0.0169 
     62 H62        18.2818  -23.6636  -42.3350 H         1 UNK         0.0903 
     63 H63        17.4276  -22.1390  -42.2727 H         1 UNK         0.0903 
     64 H64        16.5642  -23.6233  -41.9028 H         1 UNK         0.0903 
     65 H65        16.7510  -24.4471  -45.6545 H         1 UNK         0.3096 
     66 H66        17.5786  -26.3866  -45.1488 H         1 UNK         0.1121 
     67 H67        17.0829  -25.8731  -42.1757 H         1 UNK         0.0849 
     68 H68        17.4902  -27.3902  -42.8959 H         1 UNK         0.0849 
     69 H69        14.2395  -28.4879  -44.7749 H         1 UNK         0.0865 
     70 H70        15.3551  -27.4806  -45.6523 H         1 UNK         0.0865 
     71 H71        15.7196  -29.7010  -42.5936 H         1 UNK         0.1346 
     72 H72        18.8471  -32.0202  -44.3895 H         1 UNK         0.1412 
     73 H73        17.0473  -28.8211  -46.5783 H         1 UNK         0.1426 
     74 H74        18.3600  -30.6876  -47.7097 H         1 UNK         0.0716 
     75 H75        19.3063  -31.7872  -46.7433 H         1 UNK         0.0716 
     76 H76        22.1771  -30.7411  -45.8239 H         1 UNK         0.0695 
     77 H77        20.7773  -30.7534  -44.8231 H         1 UNK         0.0695 
     78 H78        23.0675  -28.9338  -44.8433 H         1 UNK         0.0983 
     79 H79        20.7111  -27.5782  -45.6412 H         1 UNK         0.3095 
     80 H80        21.6702  -24.3618  -44.4340 H         1 UNK         0.0454 
     81 H81        21.4633  -23.7432  -46.8226 H         1 UNK         0.0851 
     82 H82        21.6147  -25.4329  -47.3072 H         1 UNK         0.0851 
     83 H83        22.9698  -24.6021  -46.5568 H         1 UNK         0.0851 
     84 H84        19.4619  -25.0536  -46.0168 H         1 UNK         0.2976 
     85 H85        20.1516  -28.0227  -43.0494 H         1 UNK         0.3116 
     86 H86        20.7916  -29.6426  -40.7111 H         1 UNK         0.0646 
     87 H87        18.4213  -28.9656  -41.2851 H         1 UNK         0.0847 
     88 H88        18.8449  -27.2885  -40.9242 H         1 UNK         0.0847 
     89 H89        18.9087  -28.5056  -39.6646 H         1 UNK         0.0847 
     90 H90        21.2732  -26.2605  -41.7639 H         1 UNK         0.3040 
     91 H91        22.5217  -25.3092  -39.3818 H         1 UNK         0.1015 
     92 H92        23.3364  -23.4700  -40.8258 H         1 UNK         0.0786 
     93 H93        21.6543  -23.8178  -41.1960 H         1 UNK         0.0786 
     94 H94        22.9317  -24.3743  -42.2752 H         1 UNK         0.0786 
     95 H95        23.8477  -26.9462  -42.2563 H         1 UNK         0.3172 
     96 H96        26.5850  -27.0351  -41.3214 H         1 UNK         0.0595 
     97 H97        25.1376  -28.6958  -43.4555 H         1 UNK         0.0839 
     98 H98        26.8780  -28.5650  -43.2560 H         1 UNK         0.0839 
     99 H99        25.9483  -27.1561  -43.7405 H         1 UNK         0.0839 
    100 H100       23.8195  -28.7216  -40.3071 H         1 UNK         0.2998 
    101 H101       23.3218  -30.4541  -39.0651 H         1 UNK         0.0822 
    102 H102       25.0330  -29.5141  -37.4936 H         1 UNK         0.0787 
    103 H103       24.8901  -31.2576  -37.3497 H         1 UNK         0.0787 
    104 H104       26.2593  -30.5640  -38.2043 H         1 UNK         0.0787 
    105 H105       23.8705  -30.9512  -41.8162 H         1 UNK         0.3055 
    106 H106       25.2964  -33.4773  -42.0958 H         1 UNK         0.1106 
    107 H107       23.4595  -31.9796  -44.0438 H         1 UNK         0.0828 
    108 H108       24.5167  -33.3234  -44.4493 H         1 UNK         0.0828 
    109 H109       25.2090  -31.7913  -43.9391 H         1 UNK         0.0828 
    110 H110       21.9095  -32.4664  -41.7091 H         1 UNK         0.2931 
    111 H111       20.9426  -35.2445  -41.9140 H         1 UNK         0.0412 
    112 H112       21.5837  -34.4789  -38.1001 H         1 UNK         0.3472 
    113 H113       22.4967  -33.7691  -39.4082 H         1 UNK         0.3472 
    114 H114       19.6135  -33.6604  -43.1203 H         1 UNK         0.0970 
    115 H115       18.6826  -34.3302  -41.8188 H         1 UNK         0.0970 
    116 H116       16.9528  -32.7465  -42.2332 H         1 UNK         0.0612 
    117 H117       16.8434  -31.3031  -41.2612 H         1 UNK         0.0612 
@<TRIPOS>BOND
     1    1    2 1    
     2    1   62 1    
     3    1   63 1    
     4    1   64 1    
     5    2    3 2    
     6    2    4 am   BACKBONE|DICT|INTERRES
     7    4    5 1    
     8    4   65 1    
     9    5    6 1    
    10    5   25 1    
    11    5   66 1    
    12    6    7 1    
    13    6   67 1    
    14    6   68 1    
    15    7    8 1    
    16    8    9 1    
    17    8   69 1    
    18    8   70 1    
    19    9   10 ar   
    20    9   14 ar   
    21   10   11 ar   
    22   10   71 1    
    23   11   12 ar   
    24   11   61 1    
    25   12   13 ar   
    26   12   72 1    
    27   13   14 ar   
    28   13   15 1    
    29   14   73 1    
    30   15   16 1    
    31   15   74 1    
    32   15   75 1    
    33   16   17 1    
    34   17   18 1    
    35   17   76 1    
    36   17   77 1    
    37   18   19 1    
    38   18   27 1    
    39   18   78 1    
    40   19   20 am   BACKBONE|DICT|INTERRES
    41   19   79 1    
    42   20   21 2    
    43   20   22 1    
    44   22   23 1    
    45   22   24 1    
    46   22   80 1    
    47   23   81 1    
    48   23   82 1    
    49   23   83 1    
    50   24   25 am   BACKBONE|DICT|INTERRES
    51   24   84 1    
    52   25   26 2    
    53   27   28 2    
    54   27   29 am   BACKBONE|DICT|INTERRES
    55   29   30 1    
    56   29   85 1    
    57   30   31 1    
    58   30   32 1    
    59   30   86 1    
    60   31   87 1    
    61   31   88 1    
    62   31   89 1    
    63   32   33 2    
    64   32   34 am   BACKBONE|DICT|INTERRES
    65   34   35 1    
    66   34   90 1    
    67   35   36 1    
    68   35   37 1    
    69   35   91 1    
    70   36   92 1    
    71   36   93 1    
    72   36   94 1    
    73   37   38 2    
    74   37   39 am   BACKBONE|DICT|INTERRES
    75   39   40 1    
    76   39   95 1    
    77   40   41 1    
    78   40   42 1    
    79   40   96 1    
    80   41   97 1    
    81   41   98 1    
    82   41   99 1    
    83   42   43 2    
    84   42   44 am   BACKBONE|DICT|INTERRES
    85   44   45 1    
    86   44  100 1    
    87   45   46 1    
    88   45   47 1    
    89   45  101 1    
    90   46  102 1    
    91   46  103 1    
    92   46  104 1    
    93   47   48 2    
    94   47   49 am   BACKBONE|DICT|INTERRES
    95   49   50 1    
    96   49  105 1    
    97   50   51 1    
    98   50   52 1    
    99   50  106 1    
   100   51  107 1    
   101   51  108 1    
   102   51  109 1    
   103   52   53 2    
   104   52   54 am   BACKBONE|DICT|INTERRES
   105   54   55 1    
   106   54  110 1    
   107   55   56 1    
   108   55   59 1    
   109   55  111 1    
   110   56   57 am   BACKBONE|DICT|INTERRES
   111   56   58 2    
   112   57  112 1    
   113   57  113 1    
   114   59   60 1    
   115   59  114 1    
   116   59  115 1    
   117   60   61 1    
   118   61  116 1    
   119   61  117 1    
@<TRIPOS>SUBSTRUCTURE
     1 UNK         1 GROUP             0       ****    0 ROOT    
