@<TRIPOS>MOLECULE
3R8
117   119    1
SMALL
USER_CHARGES


@<TRIPOS>ATOM
      1 CA         13.7110  -26.9534  -45.0670 C.3       0 UNK        -0.2013 
      2 C          14.9055  -26.2973  -44.3909 C.2       0 UNK         0.4866 
      3 O          14.7671  -25.2053  -43.8396 O.2       0 UNK        -0.5176 
      4 N          16.0722  -26.9571  -44.4376 N.am      1 UNK        -0.4884 
      5 CA         17.3493  -26.5283  -43.8429 C.3       1 UNK         0.0853 
      6 C6         17.3346  -26.4911  -42.2880 C.3       10 UNK        -0.0849 
      7 S7         16.9408  -28.1067  -41.5330 S.3       10 UNK        -0.2776 
      8 C8         18.5741  -28.6533  -40.9357 C.3       10 UNK         0.0316 
      9 C9         19.4038  -29.2718  -42.0510 C.ar      10 UNK        -0.0863 
     10 C10        19.3474  -30.6495  -42.2816 C.ar      10 UNK        -0.1009 
     11 C11        20.1107  -31.2336  -43.2968 C.ar      10 UNK        -0.0712 
     12 C12        20.9356  -30.4289  -44.0875 C.ar      10 UNK        -0.0894 
     13 C13        21.0019  -29.0505  -43.8638 C.ar      10 UNK        -0.0745 
     14 C14        20.2380  -28.4772  -42.8428 C.ar      10 UNK        -0.0972 
     15 C15        21.9033  -28.1751  -44.7156 C.3       10 UNK         0.0209 
     16 S16        20.9569  -27.3948  -46.0525 S.3       10 UNK        -0.2568 
     17 C17        22.1236  -26.1096  -46.6331 C.3       10 UNK        -0.0983 
     18 CA         21.9093  -24.6954  -46.0124 C.3       3 UNK         0.0876 
     19 N          20.5050  -24.3105  -45.9154 N.am      3 UNK        -0.4424 
     20 C          19.6725  -24.0717  -46.9312 C.2       2 UNK         0.4918 
     21 O          20.0318  -24.0215  -48.1090 O.2       2 UNK        -0.4875 
     22 CA         18.1832  -23.9002  -46.5622 C.3       2 UNK         0.0481 
     23 CB         17.2818  -23.7212  -47.7979 C.3       2 UNK        -0.1831 
     24 N          17.6896  -25.0373  -45.7759 N.am      2 UNK        -0.4498 
     25 C          17.8795  -25.2122  -44.4596 C.2       1 UNK         0.5027 
     26 O          18.4667  -24.3883  -43.7556 O.2       1 UNK        -0.4969 
     27 C          22.5251  -24.5784  -44.6079 C.2       3 UNK         0.5005 
     28 O          21.8150  -24.7476  -43.6129 O.2       3 UNK        -0.5279 
     29 N          23.8337  -24.2975  -44.5472 N.am      4 UNK        -0.4463 
     30 CA         24.5834  -24.1451  -43.2950 C.3       4 UNK         0.0283 
     31 CB         25.8219  -23.2707  -43.5502 C.3       4 UNK        -0.1875 
     32 C          25.0036  -25.4855  -42.6673 C.2       4 UNK         0.4949 
     33 O          25.2118  -25.5441  -41.4549 O.2       4 UNK        -0.5039 
     34 N          25.1338  -26.5366  -43.4885 N.am      5 UNK        -0.4663 
     35 CA         25.6010  -27.8736  -43.1038 C.3       5 UNK         0.0242 
     36 CB         26.1388  -28.5847  -44.3602 C.3       5 UNK        -0.1982 
     37 C          24.5246  -28.7023  -42.3725 C.2       5 UNK         0.5017 
     38 O          24.2022  -29.8100  -42.8055 O.2       5 UNK        -0.5012 
     39 N          23.9732  -28.1439  -41.2882 N.am      6 UNK        -0.4439 
     40 CA         22.9392  -28.7422  -40.4426 C.3       6 UNK         0.0297 
     41 CB         22.2560  -27.6324  -39.6238 C.3       6 UNK        -0.2006 
     42 C          23.5059  -29.8696  -39.5623 C.2       6 UNK         0.4892 
     43 O          23.7478  -29.6693  -38.3701 O.2       6 UNK        -0.5089 
     44 N          23.7367  -31.0255  -40.1915 N.am      7 UNK        -0.4243 
     45 CA         24.2126  -32.2612  -39.5743 C.3       7 UNK         0.0196 
     46 CB         24.9068  -33.0999  -40.6659 C.3       7 UNK        -0.2007 
     47 C          23.0710  -33.0392  -38.8893 C.2       7 UNK         0.5020 
     48 O          21.9423  -32.5516  -38.7861 O.2       7 UNK        -0.5147 
     49 N          23.3791  -34.2720  -38.4609 N.am      8 UNK        -0.4734 
     50 CA         22.4612  -35.2177  -37.8066 C.3       8 UNK         0.0238 
     51 CB         23.2588  -36.4536  -37.3574 C.3       8 UNK        -0.1912 
     52 C          21.2390  -35.6408  -38.6493 C.2       8 UNK         0.5038 
     53 O          20.3062  -36.2259  -38.0971 O.2       8 UNK        -0.5046 
     54 N          21.2538  -35.3286  -39.9513 N.am      9 UNK        -0.4200 
     55 CA         20.1060  -35.4093  -40.8636 C.3       9 UNK         0.0839 
     56 C          18.9179  -34.4674  -40.4995 C.2       9 UNK         0.5513 
     57 N          19.1179  -33.4190  -39.7072 N.am      9 UNK        -0.7519 
     58 O          17.7961  -34.7013  -40.9410 O.2       9 UNK        -0.4960 
     59 C59        20.5533  -35.2281  -42.3394 C.3       10 UNK        -0.0876 
     60 S60        21.3574  -33.6154  -42.6622 S.3       10 UNK        -0.2414 
     61 C61        20.0311  -32.7319  -43.5411 C.3       10 UNK         0.0169 
     62 H62        12.9156  -27.1210  -44.3413 H         1 UNK         0.0903 
     63 H63        13.3234  -26.3069  -45.8540 H         1 UNK         0.0903 
     64 H64        13.9694  -27.9135  -45.5133 H         1 UNK         0.0903 
     65 H65        16.1023  -27.8553  -44.9008 H         1 UNK         0.3096 
     66 H66        18.0780  -27.2835  -44.1407 H         1 UNK         0.1121 
     67 H67        16.6046  -25.7622  -41.9323 H         1 UNK         0.0849 
     68 H68        18.2965  -26.1526  -41.8998 H         1 UNK         0.0849 
     69 H69        19.1090  -27.8221  -40.4738 H         1 UNK         0.0865 
     70 H70        18.4257  -29.3863  -40.1411 H         1 UNK         0.0865 
     71 H71        18.7079  -31.2708  -41.6695 H         1 UNK         0.1346 
     72 H72        21.5299  -30.8766  -44.8721 H         1 UNK         0.1412 
     73 H73        20.2975  -27.4112  -42.6681 H         1 UNK         0.1426 
     74 H74        22.7218  -28.7588  -45.1394 H         1 UNK         0.0716 
     75 H75        22.3590  -27.4124  -44.0852 H         1 UNK         0.0716 
     76 H76        23.1501  -26.4549  -46.4965 H         1 UNK         0.0695 
     77 H77        21.9919  -26.0385  -47.7137 H         1 UNK         0.0695 
     78 H78        22.4050  -23.9574  -46.6468 H         1 UNK         0.0983 
     79 H79        20.1379  -24.3214  -44.9671 H         1 UNK         0.3095 
     80 H80        18.1019  -22.9917  -45.9620 H         1 UNK         0.0454 
     81 H81        17.5895  -22.8543  -48.3840 H         1 UNK         0.0851 
     82 H82        17.3198  -24.5902  -48.4560 H         1 UNK         0.0851 
     83 H83        16.2423  -23.5621  -47.5109 H         1 UNK         0.0851 
     84 H84        17.2171  -25.7686  -46.2877 H         1 UNK         0.2976 
     85 H85        24.3500  -24.1604  -45.4054 H         1 UNK         0.3116 
     86 H86        23.9527  -23.6279  -42.5683 H         1 UNK         0.0646 
     87 H87        26.3857  -23.1153  -42.6291 H         1 UNK         0.0847 
     88 H88        25.5430  -22.2858  -43.9251 H         1 UNK         0.0847 
     89 H89        26.5001  -23.7268  -44.2725 H         1 UNK         0.0847 
     90 H90        24.9229  -26.3997  -44.4654 H         1 UNK         0.3040 
     91 H91        26.4353  -27.7610  -42.4075 H         1 UNK         0.1015 
     92 H92        26.9428  -28.0148  -44.8264 H         1 UNK         0.0786 
     93 H93        25.3570  -28.7355  -45.1056 H         1 UNK         0.0786 
     94 H94        26.5450  -29.5661  -44.1109 H         1 UNK         0.0786 
     95 H95        24.3150  -27.2253  -41.0201 H         1 UNK         0.3172 
     96 H96        22.1833  -29.1923  -41.0866 H         1 UNK         0.0595 
     97 H97        21.7847  -26.8949  -40.2741 H         1 UNK         0.0839 
     98 H98        22.9639  -27.1090  -38.9799 H         1 UNK         0.0839 
     99 H99        21.4755  -28.0464  -38.9842 H         1 UNK         0.0839 
    100 H100       23.5468  -31.0572  -41.1868 H         1 UNK         0.2998 
    101 H101       24.9481  -32.0089  -38.8075 H         1 UNK         0.0822 
    102 H102       25.6723  -32.5185  -41.1809 H         1 UNK         0.0787 
    103 H103       25.4058  -33.9755  -40.2498 H         1 UNK         0.0787 
    104 H104       24.1984  -33.4499  -41.4178 H         1 UNK         0.0787 
    105 H105       24.3268  -34.5963  -38.5925 H         1 UNK         0.3055 
    106 H106       22.0653  -34.7231  -36.9169 H         1 UNK         0.1106 
    107 H107       24.0641  -36.1820  -36.6747 H         1 UNK         0.0828 
    108 H108       22.6190  -37.1632  -36.8305 H         1 UNK         0.0828 
    109 H109       23.6980  -36.9803  -38.2055 H         1 UNK         0.0828 
    110 H110       22.0550  -34.8296  -40.3066 H         1 UNK         0.2931 
    111 H111       19.7164  -36.4252  -40.7737 H         1 UNK         0.0412 
    112 H112       20.0493  -33.1946  -39.3747 H         1 UNK         0.3472 
    113 H113       18.3401  -32.8277  -39.4639 H         1 UNK         0.3472 
    114 H114       19.7110  -35.3736  -43.0184 H         1 UNK         0.0970 
    115 H115       21.2663  -36.0119  -42.5994 H         1 UNK         0.0970 
    116 H116       20.1020  -32.9470  -44.6083 H         1 UNK         0.0612 
    117 H117       19.0562  -33.0999  -43.2182 H         1 UNK         0.0612 
@<TRIPOS>BOND
     1    1    2 1    
     2    1   62 1    
     3    1   63 1    
     4    1   64 1    
     5    2    3 2    
     6    2    4 am   BACKBONE|DICT|INTERRES
     7    4    5 1    
     8    4   65 1    
     9    5    6 1    
    10    5   25 1    
    11    5   66 1    
    12    6    7 1    
    13    6   67 1    
    14    6   68 1    
    15    7    8 1    
    16    8    9 1    
    17    8   69 1    
    18    8   70 1    
    19    9   10 ar   
    20    9   14 ar   
    21   10   11 ar   
    22   10   71 1    
    23   11   12 ar   
    24   11   61 1    
    25   12   13 ar   
    26   12   72 1    
    27   13   14 ar   
    28   13   15 1    
    29   14   73 1    
    30   15   16 1    
    31   15   74 1    
    32   15   75 1    
    33   16   17 1    
    34   17   18 1    
    35   17   76 1    
    36   17   77 1    
    37   18   19 1    
    38   18   27 1    
    39   18   78 1    
    40   19   20 am   BACKBONE|DICT|INTERRES
    41   19   79 1    
    42   20   21 2    
    43   20   22 1    
    44   22   23 1    
    45   22   24 1    
    46   22   80 1    
    47   23   81 1    
    48   23   82 1    
    49   23   83 1    
    50   24   25 am   BACKBONE|DICT|INTERRES
    51   24   84 1    
    52   25   26 2    
    53   27   28 2    
    54   27   29 am   BACKBONE|DICT|INTERRES
    55   29   30 1    
    56   29   85 1    
    57   30   31 1    
    58   30   32 1    
    59   30   86 1    
    60   31   87 1    
    61   31   88 1    
    62   31   89 1    
    63   32   33 2    
    64   32   34 am   BACKBONE|DICT|INTERRES
    65   34   35 1    
    66   34   90 1    
    67   35   36 1    
    68   35   37 1    
    69   35   91 1    
    70   36   92 1    
    71   36   93 1    
    72   36   94 1    
    73   37   38 2    
    74   37   39 am   BACKBONE|DICT|INTERRES
    75   39   40 1    
    76   39   95 1    
    77   40   41 1    
    78   40   42 1    
    79   40   96 1    
    80   41   97 1    
    81   41   98 1    
    82   41   99 1    
    83   42   43 2    
    84   42   44 am   BACKBONE|DICT|INTERRES
    85   44   45 1    
    86   44  100 1    
    87   45   46 1    
    88   45   47 1    
    89   45  101 1    
    90   46  102 1    
    91   46  103 1    
    92   46  104 1    
    93   47   48 2    
    94   47   49 am   BACKBONE|DICT|INTERRES
    95   49   50 1    
    96   49  105 1    
    97   50   51 1    
    98   50   52 1    
    99   50  106 1    
   100   51  107 1    
   101   51  108 1    
   102   51  109 1    
   103   52   53 2    
   104   52   54 am   BACKBONE|DICT|INTERRES
   105   54   55 1    
   106   54  110 1    
   107   55   56 1    
   108   55   59 1    
   109   55  111 1    
   110   56   57 am   BACKBONE|DICT|INTERRES
   111   56   58 2    
   112   57  112 1    
   113   57  113 1    
   114   59   60 1    
   115   59  114 1    
   116   59  115 1    
   117   60   61 1    
   118   61  116 1    
   119   61  117 1    
@<TRIPOS>SUBSTRUCTURE
     1 UNK         1 GROUP             0       ****    0 ROOT    
