@<TRIPOS>MOLECULE
3R8
117   119    1
SMALL
USER_CHARGES


@<TRIPOS>ATOM
      1 CA         16.0407  -23.0970  -47.2506 C.3       0 UNK        -0.2013 
      2 C          16.7777  -24.2305  -46.5541 C.2       0 UNK         0.4866 
      3 O          17.8720  -24.6040  -46.9774 O.2       0 UNK        -0.5176 
      4 N          16.2004  -24.7728  -45.4746 N.am      1 UNK        -0.4884 
      5 CA         16.7195  -25.9027  -44.6874 C.3       1 UNK         0.0853 
      6 C6         15.5754  -26.6520  -43.9560 C.3       10 UNK        -0.0849 
      7 S7         14.4038  -27.3865  -45.1500 S.3       10 UNK        -0.2776 
      8 C8         14.4054  -29.1522  -44.6836 C.3       10 UNK         0.0316 
      9 C9         15.7858  -29.8069  -44.6692 C.ar      10 UNK        -0.0863 
     10 C10        16.1307  -30.6491  -43.6058 C.ar      10 UNK        -0.1009 
     11 C11        17.3723  -31.2890  -43.5783 C.ar      10 UNK        -0.0712 
     12 C12        18.2692  -31.0913  -44.6290 C.ar      10 UNK        -0.0894 
     13 C13        17.9628  -30.2145  -45.6725 C.ar      10 UNK        -0.0745 
     14 C14        16.7093  -29.5939  -45.7017 C.ar      10 UNK        -0.0972 
     15 C15        19.0008  -29.9279  -46.7500 C.3       10 UNK         0.0209 
     16 S16        20.0039  -28.4500  -46.3661 S.3       10 UNK        -0.2568 
     17 C17        20.8991  -28.9731  -44.8571 C.3       10 UNK        -0.0983 
     18 CA         21.6524  -27.8409  -44.1113 C.3       3 UNK         0.0876 
     19 N          20.8444  -26.6167  -44.0606 N.am      3 UNK        -0.4424 
     20 C          21.1056  -25.4624  -43.4321 C.2       2 UNK         0.4918 
     21 O          22.0974  -25.2738  -42.7296 O.2       2 UNK        -0.4875 
     22 CA         20.0802  -24.3258  -43.6074 C.3       2 UNK         0.0481 
     23 CB         20.6998  -23.1605  -44.3947 C.3       2 UNK        -0.1831 
     24 N          18.8525  -24.7562  -44.2843 N.am      2 UNK        -0.4498 
     25 C          17.8625  -25.4740  -43.7368 C.2       1 UNK         0.5027 
     26 O          17.8480  -25.8043  -42.5499 O.2       1 UNK        -0.4969 
     27 C          22.1031  -28.3488  -42.7213 C.2       3 UNK         0.5005 
     28 O          23.1939  -28.9087  -42.5913 O.2       3 UNK        -0.5279 
     29 N          21.2673  -28.1143  -41.6984 N.am      4 UNK        -0.4463 
     30 CA         21.5279  -28.4247  -40.2918 C.3       4 UNK         0.0283 
     31 CB         20.2777  -28.0970  -39.4614 C.3       4 UNK        -0.1875 
     32 C          22.7607  -27.7094  -39.7091 C.2       4 UNK         0.4949 
     33 O          23.3794  -28.2506  -38.7942 O.2       4 UNK        -0.5039 
     34 N          23.1389  -26.5467  -40.2645 N.am      5 UNK        -0.4663 
     35 CA         24.3581  -25.8168  -39.8939 C.3       5 UNK         0.0242 
     36 CB         24.3117  -24.3989  -40.4848 C.3       5 UNK        -0.1982 
     37 C          25.6486  -26.5384  -40.3253 C.2       5 UNK         0.5017 
     38 O          26.6900  -26.3270  -39.7039 O.2       5 UNK        -0.5012 
     39 N          25.5520  -27.3950  -41.3524 N.am      6 UNK        -0.4439 
     40 CA         26.6154  -28.2966  -41.8013 C.3       6 UNK         0.0297 
     41 CB         26.5559  -28.4055  -43.3355 C.3       6 UNK        -0.2006 
     42 C          26.5090  -29.6893  -41.1472 C.2       6 UNK         0.4892 
     43 O          27.3010  -30.5675  -41.4905 O.2       6 UNK        -0.5089 
     44 N          25.5309  -29.8761  -40.2441 N.am      7 UNK        -0.4243 
     45 CA         25.1647  -31.1177  -39.5515 C.3       7 UNK         0.0196 
     46 CB         26.3042  -31.5946  -38.6260 C.3       7 UNK        -0.2007 
     47 C          24.6592  -32.2271  -40.4950 C.2       7 UNK         0.5020 
     48 O          24.7171  -33.4041  -40.1346 O.2       7 UNK        -0.5147 
     49 N          24.1438  -31.8476  -41.6751 N.am      8 UNK        -0.4734 
     50 CA         23.6759  -32.7749  -42.7130 C.3       8 UNK         0.0238 
     51 CB         23.3943  -31.9879  -43.9996 C.3       8 UNK        -0.1912 
     52 C          22.4348  -33.5886  -42.3075 C.2       8 UNK         0.5038 
     53 O          22.2320  -34.6817  -42.8375 O.2       8 UNK        -0.5046 
     54 N          21.6412  -33.0464  -41.3761 N.am      9 UNK        -0.4200 
     55 CA         20.4663  -33.7007  -40.7834 C.3       9 UNK         0.0839 
     56 C          20.8098  -34.7985  -39.7333 C.2       9 UNK         0.5513 
     57 N          22.0644  -34.9809  -39.3345 N.am      9 UNK        -0.7519 
     58 O          19.9159  -35.5046  -39.2741 O.2       9 UNK        -0.4960 
     59 C59        19.4539  -32.6730  -40.2073 C.3       10 UNK        -0.0876 
     60 S60        19.0202  -31.3433  -41.3790 S.3       10 UNK        -0.2414 
     61 C61        17.7689  -32.1727  -42.4070 C.3       10 UNK         0.0169 
     62 H62        15.8253  -23.3698  -48.2833 H         1 UNK         0.0903 
     63 H63        15.0975  -22.8604  -46.7585 H         1 UNK         0.0903 
     64 H64        16.6557  -22.1974  -47.2566 H         1 UNK         0.0903 
     65 H65        15.3084  -24.4125  -45.1653 H         1 UNK         0.3096 
     66 H66        17.1754  -26.6138  -45.3809 H         1 UNK         0.1121 
     67 H67        15.0301  -25.9760  -43.2952 H         1 UNK         0.0849 
     68 H68        15.9745  -27.4409  -43.3157 H         1 UNK         0.0849 
     69 H69        13.7709  -29.6979  -45.3830 H         1 UNK         0.0865 
     70 H70        13.9286  -29.2432  -43.7062 H         1 UNK         0.0865 
     71 H71        15.4326  -30.8080  -42.7950 H         1 UNK         0.1346 
     72 H72        19.2331  -31.5814  -44.6026 H         1 UNK         0.1412 
     73 H73        16.4599  -28.9317  -46.5196 H         1 UNK         0.1426 
     74 H74        18.5027  -29.7759  -47.7087 H         1 UNK         0.0716 
     75 H75        19.6606  -30.7868  -46.8829 H         1 UNK         0.0716 
     76 H76        21.5922  -29.7634  -45.1443 H         1 UNK         0.0695 
     77 H77        20.1769  -29.4200  -44.1761 H         1 UNK         0.0695 
     78 H78        22.5559  -27.5967  -44.6731 H         1 UNK         0.0983 
     79 H79        20.0159  -26.6475  -44.6362 H         1 UNK         0.3095 
     80 H80        19.8194  -23.9648  -42.6106 H         1 UNK         0.0454 
     81 H81        20.9807  -23.4598  -45.4053 H         1 UNK         0.0851 
     82 H82        21.5999  -22.7895  -43.9023 H         1 UNK         0.0851 
     83 H83        20.0075  -22.3221  -44.4731 H         1 UNK         0.0851 
     84 H84        18.7689  -24.5414  -45.2753 H         1 UNK         0.2976 
     85 H85        20.3944  -27.6486  -41.9029 H         1 UNK         0.3116 
     86 H86        21.7117  -29.4990  -40.2241 H         1 UNK         0.0646 
     87 H87        19.4119  -28.6638  -39.8041 H         1 UNK         0.0847 
     88 H88        20.0262  -27.0368  -39.5108 H         1 UNK         0.0847 
     89 H89        20.4302  -28.3478  -38.4107 H         1 UNK         0.0847 
     90 H90        22.6047  -26.1683  -41.0421 H         1 UNK         0.3040 
     91 H91        24.3811  -25.7314  -38.8050 H         1 UNK         0.1015 
     92 H92        25.1628  -23.8078  -40.1441 H         1 UNK         0.0786 
     93 H93        23.4076  -23.8701  -40.1826 H         1 UNK         0.0786 
     94 H94        24.3438  -24.4140  -41.5748 H         1 UNK         0.0786 
     95 H95        24.6452  -27.5332  -41.7849 H         1 UNK         0.3172 
     96 H96        27.5892  -27.8839  -41.5302 H         1 UNK         0.0595 
     97 H97        25.6302  -28.8714  -43.6745 H         1 UNK         0.0839 
     98 H98        27.3803  -29.0091  -43.7173 H         1 UNK         0.0839 
     99 H99        26.6306  -27.4253  -43.8066 H         1 UNK         0.0839 
    100 H100       24.9457  -29.0816  -40.0159 H         1 UNK         0.2998 
    101 H101       24.3153  -30.8644  -38.9155 H         1 UNK         0.0822 
    102 H102       26.6375  -30.7956  -37.9637 H         1 UNK         0.0787 
    103 H103       25.9756  -32.4205  -37.9939 H         1 UNK         0.0787 
    104 H104       27.1676  -31.9447  -39.1922 H         1 UNK         0.0787 
    105 H105       24.0997  -30.8587  -41.8947 H         1 UNK         0.3055 
    106 H106       24.4807  -33.4863  -42.9116 H         1 UNK         0.1106 
    107 H107       23.1241  -32.6564  -44.8182 H         1 UNK         0.0828 
    108 H108       24.2638  -31.4131  -44.3194 H         1 UNK         0.0828 
    109 H109       22.5658  -31.2973  -43.8547 H         1 UNK         0.0828 
    110 H110       21.8852  -32.1410  -41.0061 H         1 UNK         0.2931 
    111 H111       19.9557  -34.2271  -41.5917 H         1 UNK         0.0412 
    112 H112       22.8203  -34.4213  -39.7085 H         1 UNK         0.3472 
    113 H113       22.2636  -35.6996  -38.6566 H         1 UNK         0.3472 
    114 H114       18.5362  -33.1724  -39.8902 H         1 UNK         0.0970 
    115 H115       19.8638  -32.2027  -39.3116 H         1 UNK         0.0970 
    116 H116       16.9016  -32.4209  -41.7933 H         1 UNK         0.0612 
    117 H117       18.1679  -33.1147  -42.7853 H         1 UNK         0.0612 
@<TRIPOS>BOND
     1    1    2 1    
     2    1   62 1    
     3    1   63 1    
     4    1   64 1    
     5    2    3 2    
     6    2    4 am   BACKBONE|DICT|INTERRES
     7    4    5 1    
     8    4   65 1    
     9    5    6 1    
    10    5   25 1    
    11    5   66 1    
    12    6    7 1    
    13    6   67 1    
    14    6   68 1    
    15    7    8 1    
    16    8    9 1    
    17    8   69 1    
    18    8   70 1    
    19    9   10 ar   
    20    9   14 ar   
    21   10   11 ar   
    22   10   71 1    
    23   11   12 ar   
    24   11   61 1    
    25   12   13 ar   
    26   12   72 1    
    27   13   14 ar   
    28   13   15 1    
    29   14   73 1    
    30   15   16 1    
    31   15   74 1    
    32   15   75 1    
    33   16   17 1    
    34   17   18 1    
    35   17   76 1    
    36   17   77 1    
    37   18   19 1    
    38   18   27 1    
    39   18   78 1    
    40   19   20 am   BACKBONE|DICT|INTERRES
    41   19   79 1    
    42   20   21 2    
    43   20   22 1    
    44   22   23 1    
    45   22   24 1    
    46   22   80 1    
    47   23   81 1    
    48   23   82 1    
    49   23   83 1    
    50   24   25 am   BACKBONE|DICT|INTERRES
    51   24   84 1    
    52   25   26 2    
    53   27   28 2    
    54   27   29 am   BACKBONE|DICT|INTERRES
    55   29   30 1    
    56   29   85 1    
    57   30   31 1    
    58   30   32 1    
    59   30   86 1    
    60   31   87 1    
    61   31   88 1    
    62   31   89 1    
    63   32   33 2    
    64   32   34 am   BACKBONE|DICT|INTERRES
    65   34   35 1    
    66   34   90 1    
    67   35   36 1    
    68   35   37 1    
    69   35   91 1    
    70   36   92 1    
    71   36   93 1    
    72   36   94 1    
    73   37   38 2    
    74   37   39 am   BACKBONE|DICT|INTERRES
    75   39   40 1    
    76   39   95 1    
    77   40   41 1    
    78   40   42 1    
    79   40   96 1    
    80   41   97 1    
    81   41   98 1    
    82   41   99 1    
    83   42   43 2    
    84   42   44 am   BACKBONE|DICT|INTERRES
    85   44   45 1    
    86   44  100 1    
    87   45   46 1    
    88   45   47 1    
    89   45  101 1    
    90   46  102 1    
    91   46  103 1    
    92   46  104 1    
    93   47   48 2    
    94   47   49 am   BACKBONE|DICT|INTERRES
    95   49   50 1    
    96   49  105 1    
    97   50   51 1    
    98   50   52 1    
    99   50  106 1    
   100   51  107 1    
   101   51  108 1    
   102   51  109 1    
   103   52   53 2    
   104   52   54 am   BACKBONE|DICT|INTERRES
   105   54   55 1    
   106   54  110 1    
   107   55   56 1    
   108   55   59 1    
   109   55  111 1    
   110   56   57 am   BACKBONE|DICT|INTERRES
   111   56   58 2    
   112   57  112 1    
   113   57  113 1    
   114   59   60 1    
   115   59  114 1    
   116   59  115 1    
   117   60   61 1    
   118   61  116 1    
   119   61  117 1    
@<TRIPOS>SUBSTRUCTURE
     1 UNK         1 GROUP             0       ****    0 ROOT    
