@<TRIPOS>MOLECULE
3R8
117   119    1
SMALL
USER_CHARGES


@<TRIPOS>ATOM
      1 CA         18.8944  -27.7496  -41.3653 C.3       0 UNK        -0.2013 
      2 C          18.4182  -27.0294  -42.6169 C.2       0 UNK         0.4866 
      3 O          19.1576  -26.9705  -43.5986 O.2       0 UNK        -0.5176 
      4 N          17.2000  -26.4710  -42.5794 N.am      1 UNK        -0.4884 
      5 CA         16.5157  -25.7710  -43.6793 C.3       1 UNK         0.0853 
      6 C6         15.9841  -26.7400  -44.7762 C.3       10 UNK        -0.0849 
      7 S7         14.9045  -28.0521  -44.1105 S.3       10 UNK        -0.2776 
      8 C8         15.3589  -29.4703  -45.1634 C.3       10 UNK         0.0316 
      9 C9         16.8020  -29.9115  -44.9557 C.ar      10 UNK        -0.0863 
     10 C10        17.1872  -30.4976  -43.7479 C.ar      10 UNK        -0.1009 
     11 C11        18.5050  -30.9175  -43.5498 C.ar      10 UNK        -0.0712 
     12 C12        19.4466  -30.7393  -44.5692 C.ar      10 UNK        -0.0894 
     13 C13        19.0728  -30.1600  -45.7873 C.ar      10 UNK        -0.0745 
     14 C14        17.7474  -29.7529  -45.9744 C.ar      10 UNK        -0.0972 
     15 C15        20.0845  -30.0220  -46.9204 C.3       10 UNK         0.0209 
     16 S16        20.3418  -28.2952  -47.4467 S.3       10 UNK        -0.2568 
     17 C17        21.3349  -27.6441  -46.0654 C.3       10 UNK        -0.0983 
     18 CA         21.4122  -26.0946  -46.0627 C.3       3 UNK         0.0876 
     19 N          20.0949  -25.4504  -46.0477 N.am      3 UNK        -0.4424 
     20 C          19.8705  -24.1672  -46.3712 C.2       2 UNK         0.4918 
     21 O          20.7537  -23.3996  -46.7550 O.2       2 UNK        -0.4875 
     22 CA         18.4252  -23.6384  -46.2806 C.3       2 UNK         0.0481 
     23 CB         17.8622  -23.3799  -47.6882 C.3       2 UNK        -0.1831 
     24 N          17.5263  -24.5521  -45.5748 N.am      2 UNK        -0.4498 
     25 C          17.3821  -24.6167  -44.2433 C.2       1 UNK         0.5027 
     26 O          17.9149  -23.8237  -43.4631 O.2       1 UNK        -0.4969 
     27 C          22.2594  -25.5916  -44.8808 C.2       3 UNK         0.5005 
     28 O          23.3911  -25.1500  -45.0861 O.2       3 UNK        -0.5279 
     29 N          21.6703  -25.6507  -43.6746 N.am      4 UNK        -0.4463 
     30 CA         22.1964  -25.1648  -42.3912 C.3       4 UNK         0.0283 
     31 CB         22.2021  -23.6224  -42.3710 C.3       4 UNK        -0.1875 
     32 C          23.5623  -25.7706  -42.0037 C.2       4 UNK         0.4949 
     33 O          24.3819  -25.0977  -41.3770 O.2       4 UNK        -0.5039 
     34 N          23.7857  -27.0348  -42.3894 N.am      5 UNK        -0.4663 
     35 CA         25.0539  -27.7495  -42.2126 C.3       5 UNK         0.0242 
     36 CB         25.0881  -28.9450  -43.1782 C.3       5 UNK        -0.1982 
     37 C          25.3196  -28.2143  -40.7703 C.2       5 UNK         0.5017 
     38 O          26.4643  -28.5380  -40.4527 O.2       5 UNK        -0.5012 
     39 N          24.2669  -28.2757  -39.9401 N.am      6 UNK        -0.4439 
     40 CA         24.2183  -28.6756  -38.5231 C.3       6 UNK         0.0297 
     41 CB         25.0967  -27.7606  -37.6477 C.3       6 UNK        -0.2006 
     42 C          24.5261  -30.1615  -38.2523 C.2       6 UNK         0.4892 
     43 O          23.8399  -30.7740  -37.4343 O.2       6 UNK        -0.5089 
     44 N          25.5307  -30.7179  -38.9398 N.am      7 UNK        -0.4243 
     45 CA         25.8930  -32.1368  -38.9104 C.3       7 UNK         0.0196 
     46 CB         27.3263  -32.2989  -39.4417 C.3       7 UNK        -0.2007 
     47 C          24.9189  -33.0161  -39.7149 C.2       7 UNK         0.5020 
     48 O          24.8013  -34.2076  -39.4254 O.2       7 UNK        -0.5147 
     49 N          24.2437  -32.4249  -40.7108 N.am      8 UNK        -0.4734 
     50 CA         23.2025  -33.0754  -41.5079 C.3       8 UNK         0.0238 
     51 CB         22.8931  -32.2144  -42.7436 C.3       8 UNK        -0.1912 
     52 C          21.9261  -33.3000  -40.6818 C.2       8 UNK         0.5038 
     53 O          21.6061  -32.4786  -39.8196 O.2       8 UNK        -0.5046 
     54 N          21.2110  -34.3875  -40.9933 N.am      9 UNK        -0.4200 
     55 CA         19.9575  -34.8160  -40.3455 C.3       9 UNK         0.0839 
     56 C          20.1204  -35.3164  -38.8766 C.2       9 UNK         0.5513 
     57 N          21.3294  -35.5668  -38.3877 N.am      9 UNK        -0.7519 
     58 O          19.1316  -35.5169  -38.1755 O.2       9 UNK        -0.4960 
     59 C59        18.7973  -33.7878  -40.4958 C.3       10 UNK        -0.0876 
     60 S60        18.4546  -33.3368  -42.2320 S.3       10 UNK        -0.2414 
     61 C61        18.8955  -31.5716  -42.2346 C.3       10 UNK         0.0169 
     62 H62        18.0610  -28.0423  -40.7271 H         1 UNK         0.0903 
     63 H63        19.5609  -27.1068  -40.7916 H         1 UNK         0.0903 
     64 H64        19.4418  -28.6510  -41.6385 H         1 UNK         0.0903 
     65 H65        16.6648  -26.5341  -41.7250 H         1 UNK         0.3096 
     66 H66        15.6493  -25.2824  -43.2304 H         1 UNK         0.1121 
     67 H67        15.3974  -26.1991  -45.5210 H         1 UNK         0.0849 
     68 H68        16.8207  -27.1963  -45.3065 H         1 UNK         0.0849 
     69 H69        14.6954  -30.3056  -44.9352 H         1 UNK         0.0865 
     70 H70        15.1755  -29.2141  -46.2081 H         1 UNK         0.0865 
     71 H71        16.4569  -30.6316  -42.9614 H         1 UNK         0.1346 
     72 H72        20.4652  -31.0686  -44.4200 H         1 UNK         0.1412 
     73 H73        17.4561  -29.3119  -46.9180 H         1 UNK         0.1426 
     74 H74        21.0461  -30.4571  -46.6433 H         1 UNK         0.0716 
     75 H75        19.7266  -30.5956  -47.7764 H         1 UNK         0.0716 
     76 H76        22.3363  -28.0720  -46.1419 H         1 UNK         0.0695 
     77 H77        20.9156  -28.0197  -45.1316 H         1 UNK         0.0695 
     78 H78        21.9208  -25.7885  -46.9799 H         1 UNK         0.0983 
     79 H79        19.3375  -26.0110  -45.6817 H         1 UNK         0.3095 
     80 H80        18.4567  -22.6849  -45.7494 H         1 UNK         0.0454 
     81 H81        16.8578  -22.9587  -47.6435 H         1 UNK         0.0851 
     82 H82        17.8185  -24.2940  -48.2817 H         1 UNK         0.0851 
     83 H83        18.4842  -22.6685  -48.2333 H         1 UNK         0.0851 
     84 H84        17.0461  -25.2320  -46.1461 H         1 UNK         0.2976 
     85 H85        20.7382  -26.0653  -43.6397 H         1 UNK         0.3116 
     86 H86        21.4917  -25.5001  -41.6293 H         1 UNK         0.0646 
     87 H87        21.2195  -23.2200  -42.6185 H         1 UNK         0.0847 
     88 H88        22.4668  -23.2419  -41.3837 H         1 UNK         0.0847 
     89 H89        22.9208  -23.2131  -43.0818 H         1 UNK         0.0847 
     90 H90        23.0607  -27.5075  -42.9095 H         1 UNK         0.3040 
     91 H91        25.8680  -27.0722  -42.4817 H         1 UNK         0.1015 
     92 H92        24.2720  -29.6400  -42.9865 H         1 UNK         0.0786 
     93 H93        26.0219  -29.5016  -43.0842 H         1 UNK         0.0786 
     94 H94        25.0128  -28.6177  -44.2155 H         1 UNK         0.0786 
     95 H95        23.3760  -28.0114  -40.3367 H         1 UNK         0.3172 
     96 H96        23.1830  -28.5166  -38.2165 H         1 UNK         0.0595 
     97 H97        24.9681  -27.9954  -36.5902 H         1 UNK         0.0839 
     98 H98        24.8322  -26.7116  -37.7810 H         1 UNK         0.0839 
     99 H99        26.1574  -27.8702  -37.8750 H         1 UNK         0.0839 
    100 H100       26.0628  -30.1086  -39.5569 H         1 UNK         0.2998 
    101 H101       25.8687  -32.4800  -37.8738 H         1 UNK         0.0822 
    102 H102       27.6368  -33.3445  -39.4151 H         1 UNK         0.0787 
    103 H103       27.4153  -31.9574  -40.4740 H         1 UNK         0.0787 
    104 H104       28.0384  -31.7347  -38.8392 H         1 UNK         0.0787 
    105 H105       24.3718  -31.4341  -40.8457 H         1 UNK         0.3055 
    106 H106       23.5843  -34.0435  -41.8409 H         1 UNK         0.1106 
    107 H107       23.7816  -32.0648  -43.3571 H         1 UNK         0.0828 
    108 H108       22.1448  -32.6956  -43.3751 H         1 UNK         0.0828 
    109 H109       22.5012  -31.2352  -42.4657 H         1 UNK         0.0828 
    110 H110       21.5488  -35.0021  -41.7197 H         1 UNK         0.2931 
    111 H111       19.6561  -35.7077  -40.8964 H         1 UNK         0.0412 
    112 H112       22.1542  -35.4025  -38.9439 H         1 UNK         0.3472 
    113 H113       21.4184  -35.9017  -37.4411 H         1 UNK         0.3472 
    114 H114       17.8729  -34.2021  -40.0895 H         1 UNK         0.0970 
    115 H115       18.9993  -32.8917  -39.9071 H         1 UNK         0.0970 
    116 H116       18.3862  -31.0679  -41.4116 H         1 UNK         0.0612 
    117 H117       19.9647  -31.4598  -42.0535 H         1 UNK         0.0612 
@<TRIPOS>BOND
     1    1    2 1    
     2    1   62 1    
     3    1   63 1    
     4    1   64 1    
     5    2    3 2    
     6    2    4 am   BACKBONE|DICT|INTERRES
     7    4    5 1    
     8    4   65 1    
     9    5    6 1    
    10    5   25 1    
    11    5   66 1    
    12    6    7 1    
    13    6   67 1    
    14    6   68 1    
    15    7    8 1    
    16    8    9 1    
    17    8   69 1    
    18    8   70 1    
    19    9   10 ar   
    20    9   14 ar   
    21   10   11 ar   
    22   10   71 1    
    23   11   12 ar   
    24   11   61 1    
    25   12   13 ar   
    26   12   72 1    
    27   13   14 ar   
    28   13   15 1    
    29   14   73 1    
    30   15   16 1    
    31   15   74 1    
    32   15   75 1    
    33   16   17 1    
    34   17   18 1    
    35   17   76 1    
    36   17   77 1    
    37   18   19 1    
    38   18   27 1    
    39   18   78 1    
    40   19   20 am   BACKBONE|DICT|INTERRES
    41   19   79 1    
    42   20   21 2    
    43   20   22 1    
    44   22   23 1    
    45   22   24 1    
    46   22   80 1    
    47   23   81 1    
    48   23   82 1    
    49   23   83 1    
    50   24   25 am   BACKBONE|DICT|INTERRES
    51   24   84 1    
    52   25   26 2    
    53   27   28 2    
    54   27   29 am   BACKBONE|DICT|INTERRES
    55   29   30 1    
    56   29   85 1    
    57   30   31 1    
    58   30   32 1    
    59   30   86 1    
    60   31   87 1    
    61   31   88 1    
    62   31   89 1    
    63   32   33 2    
    64   32   34 am   BACKBONE|DICT|INTERRES
    65   34   35 1    
    66   34   90 1    
    67   35   36 1    
    68   35   37 1    
    69   35   91 1    
    70   36   92 1    
    71   36   93 1    
    72   36   94 1    
    73   37   38 2    
    74   37   39 am   BACKBONE|DICT|INTERRES
    75   39   40 1    
    76   39   95 1    
    77   40   41 1    
    78   40   42 1    
    79   40   96 1    
    80   41   97 1    
    81   41   98 1    
    82   41   99 1    
    83   42   43 2    
    84   42   44 am   BACKBONE|DICT|INTERRES
    85   44   45 1    
    86   44  100 1    
    87   45   46 1    
    88   45   47 1    
    89   45  101 1    
    90   46  102 1    
    91   46  103 1    
    92   46  104 1    
    93   47   48 2    
    94   47   49 am   BACKBONE|DICT|INTERRES
    95   49   50 1    
    96   49  105 1    
    97   50   51 1    
    98   50   52 1    
    99   50  106 1    
   100   51  107 1    
   101   51  108 1    
   102   51  109 1    
   103   52   53 2    
   104   52   54 am   BACKBONE|DICT|INTERRES
   105   54   55 1    
   106   54  110 1    
   107   55   56 1    
   108   55   59 1    
   109   55  111 1    
   110   56   57 am   BACKBONE|DICT|INTERRES
   111   56   58 2    
   112   57  112 1    
   113   57  113 1    
   114   59   60 1    
   115   59  114 1    
   116   59  115 1    
   117   60   61 1    
   118   61  116 1    
   119   61  117 1    
@<TRIPOS>SUBSTRUCTURE
     1 UNK         1 GROUP             0       ****    0 ROOT    
