@<TRIPOS>MOLECULE
3R8
117   119    1
SMALL
USER_CHARGES


@<TRIPOS>ATOM
      1 CA         15.7297  -29.6417  -39.4726 C.3       0 UNK        -0.2013 
      2 C          16.4662  -28.9457  -40.6065 C.2       0 UNK         0.4866 
      3 O          17.6341  -29.2416  -40.8438 O.2       0 UNK        -0.5176 
      4 N          15.8041  -28.0058  -41.2957 N.am      1 UNK        -0.4884 
      5 CA         16.2872  -27.2228  -42.4474 C.3       1 UNK         0.0853 
      6 C6         16.7224  -28.1099  -43.6470 C.3       10 UNK        -0.0849 
      7 S7         16.4822  -27.2922  -45.2638 S.3       10 UNK        -0.2776 
      8 C8         16.5428  -28.7064  -46.4162 C.3       10 UNK         0.0316 
      9 C9         17.8820  -29.4229  -46.3391 C.ar      10 UNK        -0.0863 
     10 C10        18.0075  -30.5921  -45.5841 C.ar      10 UNK        -0.1009 
     11 C11        19.2574  -31.1906  -45.4081 C.ar      10 UNK        -0.0712 
     12 C12        20.3817  -30.6319  -46.0202 C.ar      10 UNK        -0.0894 
     13 C13        20.2677  -29.4629  -46.7783 C.ar      10 UNK        -0.0745 
     14 C14        19.0105  -28.8767  -46.9577 C.ar      10 UNK        -0.0972 
     15 C15        21.5197  -28.7768  -47.3081 C.3       10 UNK         0.0209 
     16 S16        21.8417  -27.1746  -46.4847 S.3       10 UNK        -0.2568 
     17 C17        21.4080  -27.5202  -44.7438 C.3       10 UNK        -0.0983 
     18 CA         21.6318  -26.3047  -43.8153 C.3       3 UNK         0.0876 
     19 N          20.7848  -26.4001  -42.6271 N.am      3 UNK        -0.4424 
     20 C          20.3991  -25.3605  -41.8796 C.2       2 UNK         0.4918 
     21 O          20.7423  -24.1963  -42.0947 O.2       2 UNK        -0.4875 
     22 CA         19.4310  -25.6909  -40.7271 C.3       2 UNK         0.0481 
     23 CB         18.9509  -24.4424  -39.9567 C.3       2 UNK        -0.1831 
     24 N          18.2954  -26.5005  -41.1909 N.am      2 UNK        -0.4498 
     25 C          17.3563  -26.1611  -42.0890 C.2       1 UNK         0.5027 
     26 O          17.2881  -25.0498  -42.6162 O.2       1 UNK        -0.4969 
     27 C          23.1067  -26.1963  -43.4016 C.2       3 UNK         0.5005 
     28 O          23.5459  -26.9566  -42.5381 O.2       3 UNK        -0.5279 
     29 N          23.8766  -25.3250  -44.0662 N.am      4 UNK        -0.4463 
     30 CA         25.3152  -25.1432  -43.8241 C.3       4 UNK         0.0283 
     31 CB         25.8317  -23.9820  -44.6887 C.3       4 UNK        -0.1875 
     32 C          26.1629  -26.4093  -44.0653 C.2       4 UNK         0.4949 
     33 O          27.2419  -26.5335  -43.4861 O.2       4 UNK        -0.5039 
     34 N          25.6575  -27.3217  -44.9051 N.am      5 UNK        -0.4663 
     35 CA         26.3018  -28.5853  -45.2564 C.3       5 UNK         0.0242 
     36 CB         25.9416  -28.9163  -46.7154 C.3       5 UNK        -0.1982 
     37 C          25.9224  -29.7629  -44.3378 C.2       5 UNK         0.5017 
     38 O          26.5573  -30.8116  -44.4620 O.2       5 UNK        -0.5012 
     39 N          24.8985  -29.6191  -43.4790 N.am      6 UNK        -0.4439 
     40 CA         24.3151  -30.7502  -42.7381 C.3       6 UNK         0.0297 
     41 CB         23.1701  -31.3590  -43.5674 C.3       6 UNK        -0.2006 
     42 C          23.8305  -30.4326  -41.3137 C.2       6 UNK         0.4892 
     43 O          23.5308  -31.3759  -40.5790 O.2       6 UNK        -0.5089 
     44 N          23.7338  -29.1496  -40.9371 N.am      7 UNK        -0.4243 
     45 CA         23.1433  -28.6448  -39.6942 C.3       7 UNK         0.0196 
     46 CB         24.0038  -29.0290  -38.4673 C.3       7 UNK        -0.2007 
     47 C          21.6612  -29.0533  -39.6039 C.2       7 UNK         0.5020 
     48 O          20.8955  -28.7088  -40.5042 O.2       7 UNK        -0.5147 
     49 N          21.2919  -29.7886  -38.5480 N.am      8 UNK        -0.4734 
     50 CA         19.9519  -30.3444  -38.3351 C.3       8 UNK         0.0238 
     51 CB         19.7347  -30.5398  -36.8241 C.3       8 UNK        -0.1912 
     52 C          19.6909  -31.6569  -39.1050 C.2       8 UNK         0.5038 
     53 O          18.5966  -32.2089  -38.9724 O.2       8 UNK        -0.5046 
     54 N          20.6806  -32.1385  -39.8724 N.am      9 UNK        -0.4200 
     55 CA         20.6403  -33.3578  -40.6981 C.3       9 UNK         0.0839 
     56 C          20.6357  -34.6688  -39.8552 C.2       9 UNK         0.5513 
     57 N          20.4563  -35.8241  -40.4831 N.am      9 UNK        -0.7519 
     58 O          20.8373  -34.6660  -38.6418 O.2       9 UNK        -0.4960 
     59 C59        19.5299  -33.3234  -41.7944 C.3       10 UNK        -0.0876 
     60 S60        19.5426  -31.7796  -42.7666 S.3       10 UNK        -0.2414 
     61 C61        19.4019  -32.3797  -44.4748 C.3       10 UNK         0.0169 
     62 H62        16.2132  -29.4207  -38.5213 H         1 UNK         0.0903 
     63 H63        15.7535  -30.7213  -39.6209 H         1 UNK         0.0903 
     64 H64        14.6875  -29.3296  -39.4080 H         1 UNK         0.0903 
     65 H65        14.8574  -27.7873  -41.0147 H         1 UNK         0.3096 
     66 H66        15.4085  -26.6570  -42.7631 H         1 UNK         0.1121 
     67 H67        17.7621  -28.4302  -43.5480 H         1 UNK         0.0849 
     68 H68        16.1306  -29.0264  -43.6582 H         1 UNK         0.0849 
     69 H69        15.7224  -29.3916  -46.1967 H         1 UNK         0.0865 
     70 H70        16.3769  -28.3469  -47.4328 H         1 UNK         0.0865 
     71 H71        17.1441  -31.0043  -45.0798 H         1 UNK         0.1346 
     72 H72        21.3534  -31.0763  -45.8588 H         1 UNK         0.1412 
     73 H73        18.9246  -27.9533  -47.5144 H         1 UNK         0.1426 
     74 H74        21.4188  -28.6130  -48.3817 H         1 UNK         0.0716 
     75 H75        22.3925  -29.4177  -47.1759 H         1 UNK         0.0716 
     76 H76        20.3493  -27.7833  -44.7214 H         1 UNK         0.0695 
     77 H77        21.9425  -28.4063  -44.3966 H         1 UNK         0.0695 
     78 H78        21.3450  -25.3970  -44.3516 H         1 UNK         0.0983 
     79 H79        20.5446  -27.3318  -42.3103 H         1 UNK         0.3095 
     80 H80        19.9846  -26.3082  -40.0200 H         1 UNK         0.0454 
     81 H81        19.7952  -23.9099  -39.5175 H         1 UNK         0.0851 
     82 H82        18.2800  -24.7132  -39.1417 H         1 UNK         0.0851 
     83 H83        18.4270  -23.7378  -40.6029 H         1 UNK         0.0851 
     84 H84        18.2775  -27.4676  -40.8714 H         1 UNK         0.2976 
     85 H85        23.4597  -24.7510  -44.7860 H         1 UNK         0.3116 
     86 H86        25.4389  -24.8686  -42.7744 H         1 UNK         0.0646 
     87 H87        25.7116  -24.1861  -45.7534 H         1 UNK         0.0847 
     88 H88        25.3087  -23.0527  -44.4619 H         1 UNK         0.0847 
     89 H89        26.8932  -23.8043  -44.5097 H         1 UNK         0.0847 
     90 H90        24.7671  -27.1271  -45.3407 H         1 UNK         0.3040 
     91 H91        27.3863  -28.4679  -45.1945 H         1 UNK         0.1015 
     92 H92        26.4318  -29.8341  -47.0434 H         1 UNK         0.0786 
     93 H93        26.2603  -28.1235  -47.3925 H         1 UNK         0.0786 
     94 H94        24.8678  -29.0566  -46.8444 H         1 UNK         0.0786 
     95 H95        24.4528  -28.7138  -43.3904 H         1 UNK         0.3172 
     96 H96        25.0755  -31.5223  -42.6041 H         1 UNK         0.0595 
     97 H97        22.3460  -30.6551  -43.6823 H         1 UNK         0.0839 
     98 H98        22.7667  -32.2504  -43.0862 H         1 UNK         0.0839 
     99 H99        23.5066  -31.6557  -44.5606 H         1 UNK         0.0839 
    100 H100       23.8992  -28.4162  -41.6233 H         1 UNK         0.2998 
    101 H101       23.1501  -27.5566  -39.7739 H         1 UNK         0.0822 
    102 H102       23.6140  -28.5754  -37.5551 H         1 UNK         0.0787 
    103 H103       25.0266  -28.6708  -38.5857 H         1 UNK         0.0787 
    104 H104       24.0531  -30.1068  -38.3100 H         1 UNK         0.0787 
    105 H105       21.9999  -30.0431  -37.8740 H         1 UNK         0.3055 
    106 H106       19.2152  -29.6220  -38.6934 H         1 UNK         0.1106 
    107 H107       19.8674  -29.6052  -36.2790 H         1 UNK         0.0828 
    108 H108       18.7232  -30.8910  -36.6156 H         1 UNK         0.0828 
    109 H109       20.4259  -31.2745  -36.4093 H         1 UNK         0.0828 
    110 H110       21.5591  -31.6349  -39.9036 H         1 UNK         0.2931 
    111 H111       21.6011  -33.3653  -41.2129 H         1 UNK         0.0412 
    112 H112       20.4690  -36.6769  -39.9450 H         1 UNK         0.3472 
    113 H113       20.3221  -35.8671  -41.4808 H         1 UNK         0.3472 
    114 H114       19.6453  -34.1637  -42.4798 H         1 UNK         0.0970 
    115 H115       18.5417  -33.4339  -41.3452 H         1 UNK         0.0970 
    116 H116       18.5359  -33.0372  -44.5657 H         1 UNK         0.0612 
    117 H117       20.2825  -32.9707  -44.7313 H         1 UNK         0.0612 
@<TRIPOS>BOND
     1    1    2 1    
     2    1   62 1    
     3    1   63 1    
     4    1   64 1    
     5    2    3 2    
     6    2    4 am   BACKBONE|DICT|INTERRES
     7    4    5 1    
     8    4   65 1    
     9    5    6 1    
    10    5   25 1    
    11    5   66 1    
    12    6    7 1    
    13    6   67 1    
    14    6   68 1    
    15    7    8 1    
    16    8    9 1    
    17    8   69 1    
    18    8   70 1    
    19    9   10 ar   
    20    9   14 ar   
    21   10   11 ar   
    22   10   71 1    
    23   11   12 ar   
    24   11   61 1    
    25   12   13 ar   
    26   12   72 1    
    27   13   14 ar   
    28   13   15 1    
    29   14   73 1    
    30   15   16 1    
    31   15   74 1    
    32   15   75 1    
    33   16   17 1    
    34   17   18 1    
    35   17   76 1    
    36   17   77 1    
    37   18   19 1    
    38   18   27 1    
    39   18   78 1    
    40   19   20 am   BACKBONE|DICT|INTERRES
    41   19   79 1    
    42   20   21 2    
    43   20   22 1    
    44   22   23 1    
    45   22   24 1    
    46   22   80 1    
    47   23   81 1    
    48   23   82 1    
    49   23   83 1    
    50   24   25 am   BACKBONE|DICT|INTERRES
    51   24   84 1    
    52   25   26 2    
    53   27   28 2    
    54   27   29 am   BACKBONE|DICT|INTERRES
    55   29   30 1    
    56   29   85 1    
    57   30   31 1    
    58   30   32 1    
    59   30   86 1    
    60   31   87 1    
    61   31   88 1    
    62   31   89 1    
    63   32   33 2    
    64   32   34 am   BACKBONE|DICT|INTERRES
    65   34   35 1    
    66   34   90 1    
    67   35   36 1    
    68   35   37 1    
    69   35   91 1    
    70   36   92 1    
    71   36   93 1    
    72   36   94 1    
    73   37   38 2    
    74   37   39 am   BACKBONE|DICT|INTERRES
    75   39   40 1    
    76   39   95 1    
    77   40   41 1    
    78   40   42 1    
    79   40   96 1    
    80   41   97 1    
    81   41   98 1    
    82   41   99 1    
    83   42   43 2    
    84   42   44 am   BACKBONE|DICT|INTERRES
    85   44   45 1    
    86   44  100 1    
    87   45   46 1    
    88   45   47 1    
    89   45  101 1    
    90   46  102 1    
    91   46  103 1    
    92   46  104 1    
    93   47   48 2    
    94   47   49 am   BACKBONE|DICT|INTERRES
    95   49   50 1    
    96   49  105 1    
    97   50   51 1    
    98   50   52 1    
    99   50  106 1    
   100   51  107 1    
   101   51  108 1    
   102   51  109 1    
   103   52   53 2    
   104   52   54 am   BACKBONE|DICT|INTERRES
   105   54   55 1    
   106   54  110 1    
   107   55   56 1    
   108   55   59 1    
   109   55  111 1    
   110   56   57 am   BACKBONE|DICT|INTERRES
   111   56   58 2    
   112   57  112 1    
   113   57  113 1    
   114   59   60 1    
   115   59  114 1    
   116   59  115 1    
   117   60   61 1    
   118   61  116 1    
   119   61  117 1    
@<TRIPOS>SUBSTRUCTURE
     1 UNK         1 GROUP             0       ****    0 ROOT    
