@<TRIPOS>MOLECULE
3R8
117   119    1
SMALL
USER_CHARGES


@<TRIPOS>ATOM
      1 CA         21.2060  -29.9137  -44.0765 C.3       0 UNK        -0.2013 
      2 C          20.7290  -28.7545  -43.2227 C.2       0 UNK         0.4866 
      3 O          21.5467  -27.8986  -42.8944 O.2       0 UNK        -0.5176 
      4 N          19.4316  -28.7001  -42.8793 N.am      1 UNK        -0.4884 
      5 CA         18.8459  -27.7371  -41.9279 C.3       1 UNK         0.0853 
      6 C6         17.3397  -28.0065  -41.6600 C.3       10 UNK        -0.0849 
      7 S7         16.2063  -27.6045  -43.0419 S.3       10 UNK        -0.2776 
      8 C8         15.5884  -29.2335  -43.5625 C.3       10 UNK         0.0316 
      9 C9         16.6235  -30.0191  -44.3534 C.ar      10 UNK        -0.0863 
     10 C10        17.1514  -31.2035  -43.8355 C.ar      10 UNK        -0.1009 
     11 C11        18.0530  -31.9643  -44.5836 C.ar      10 UNK        -0.0712 
     12 C12        18.4358  -31.5269  -45.8573 C.ar      10 UNK        -0.0894 
     13 C13        17.9366  -30.3268  -46.3784 C.ar      10 UNK        -0.0745 
     14 C14        17.0187  -29.5869  -45.6238 C.ar      10 UNK        -0.0972 
     15 C15        18.3349  -29.8730  -47.7818 C.3       10 UNK         0.0209 
     16 S16        18.8533  -28.1230  -47.8774 S.3       10 UNK        -0.2568 
     17 C17        20.6125  -28.2054  -47.3982 C.3       10 UNK        -0.0983 
     18 CA         21.1593  -26.8390  -46.9034 C.3       3 UNK         0.0876 
     19 N          20.3751  -26.3175  -45.7811 N.am      3 UNK        -0.4424 
     20 C          20.3390  -25.0392  -45.3756 C.2       2 UNK         0.4918 
     21 O          21.0106  -24.1429  -45.8855 O.2       2 UNK        -0.4875 
     22 CA         19.3911  -24.6992  -44.2107 C.3       2 UNK         0.0481 
     23 CB         18.1787  -23.9018  -44.7180 C.3       2 UNK        -0.1831 
     24 N          18.9186  -25.9163  -43.5503 N.am      2 UNK        -0.4498 
     25 C          19.1448  -26.2607  -42.2781 C.2       1 UNK         0.5027 
     26 O          19.6263  -25.5098  -41.4287 O.2       1 UNK        -0.4969 
     27 C          22.6705  -26.9202  -46.5875 C.2       3 UNK         0.5005 
     28 O          23.4751  -26.9146  -47.5206 O.2       3 UNK        -0.5279 
     29 N          23.0323  -26.9891  -45.2978 N.am      4 UNK        -0.4463 
     30 CA         24.4115  -27.0253  -44.8032 C.3       4 UNK         0.0283 
     31 CB         24.8267  -28.4800  -44.5242 C.3       4 UNK        -0.1875 
     32 C          24.5989  -26.1651  -43.5439 C.2       4 UNK         0.4949 
     33 O          25.7045  -25.6719  -43.3213 O.2       4 UNK        -0.5039 
     34 N          23.5437  -26.0217  -42.7270 N.am      5 UNK        -0.4663 
     35 CA         23.4449  -25.3060  -41.4465 C.3       5 UNK         0.0242 
     36 CB         23.8457  -23.8230  -41.5697 C.3       5 UNK        -0.1982 
     37 C          24.1871  -26.0097  -40.2984 C.2       5 UNK         0.5017 
     38 O          23.6126  -26.1832  -39.2236 O.2       5 UNK        -0.5012 
     39 N          25.4246  -26.4490  -40.5516 N.am      6 UNK        -0.4439 
     40 CA         26.2311  -27.2903  -39.6673 C.3       6 UNK         0.0297 
     41 CB         27.7204  -26.9931  -39.9233 C.3       6 UNK        -0.2006 
     42 C          25.8758  -28.7760  -39.8732 C.2       6 UNK         0.4892 
     43 O          26.7291  -29.5649  -40.2838 O.2       6 UNK        -0.5089 
     44 N          24.6114  -29.1245  -39.6137 N.am      7 UNK        -0.4243 
     45 CA         24.0372  -30.4568  -39.7804 C.3       7 UNK         0.0196 
     46 CB         23.7060  -30.6974  -41.2646 C.3       7 UNK        -0.2007 
     47 C          22.7800  -30.5739  -38.9103 C.2       7 UNK         0.5020 
     48 O          22.2218  -29.5538  -38.4990 O.2       7 UNK        -0.5147 
     49 N          22.3502  -31.8147  -38.6574 N.am      8 UNK        -0.4734 
     50 CA         21.1818  -32.1446  -37.8356 C.3       8 UNK         0.0238 
     51 CB         21.6193  -32.3577  -36.3723 C.3       8 UNK        -0.1912 
     52 C          20.4217  -33.3478  -38.4202 C.2       8 UNK         0.5038 
     53 O          19.9609  -34.2092  -37.6692 O.2       8 UNK        -0.5046 
     54 N          20.3174  -33.3946  -39.7546 N.am      9 UNK        -0.4200 
     55 CA         19.6011  -34.4341  -40.5140 C.3       9 UNK         0.0839 
     56 C          18.0467  -34.3602  -40.4391 C.2       9 UNK         0.5513 
     57 N          17.4525  -33.2941  -39.9160 N.am      9 UNK        -0.7519 
     58 O          17.3693  -35.2953  -40.8578 O.2       9 UNK        -0.4960 
     59 C59        20.1102  -34.5199  -41.9782 C.3       10 UNK        -0.0876 
     60 S60        19.9840  -32.9365  -42.8780 S.3       10 UNK        -0.2414 
     61 C61        18.5968  -33.2619  -44.0062 C.3       10 UNK         0.0169 
     62 H62        21.6651  -30.6749  -43.4496 H         1 UNK         0.0903 
     63 H63        20.3903  -30.3673  -44.6266 H         1 UNK         0.0903 
     64 H64        21.9574  -29.5859  -44.7920 H         1 UNK         0.0903 
     65 H65        18.7989  -29.4117  -43.2225 H         1 UNK         0.3096 
     66 H66        19.3657  -27.9196  -40.9842 H         1 UNK         0.1121 
     67 H67        17.0168  -27.4226  -40.7961 H         1 UNK         0.0849 
     68 H68        17.1998  -29.0480  -41.3664 H         1 UNK         0.0849 
     69 H69        15.2467  -29.7916  -42.6892 H         1 UNK         0.0865 
     70 H70        14.7071  -29.0873  -44.1888 H         1 UNK         0.0865 
     71 H71        16.8497  -31.5482  -42.8551 H         1 UNK         0.1346 
     72 H72        19.1294  -32.1196  -46.4383 H         1 UNK         0.1412 
     73 H73        16.6012  -28.6756  -46.0307 H         1 UNK         0.1426 
     74 H74        17.4745  -30.0107  -48.4379 H         1 UNK         0.0716 
     75 H75        19.1296  -30.5016  -48.1868 H         1 UNK         0.0716 
     76 H76        21.1781  -28.5507  -48.2658 H         1 UNK         0.0695 
     77 H77        20.7271  -28.9726  -46.6350 H         1 UNK         0.0695 
     78 H78        21.0589  -26.1276  -47.7267 H         1 UNK         0.0983 
     79 H79        19.7824  -26.9872  -45.3193 H         1 UNK         0.3095 
     80 H80        19.9510  -24.0768  -43.5097 H         1 UNK         0.0454 
     81 H81        18.4937  -22.9774  -45.2040 H         1 UNK         0.0851 
     82 H82        17.5165  -23.6262  -43.8972 H         1 UNK         0.0851 
     83 H83        17.5946  -24.4701  -45.4429 H         1 UNK         0.0851 
     84 H84        18.4183  -26.5833  -44.1207 H         1 UNK         0.2976 
     85 H85        22.3045  -26.9963  -44.5942 H         1 UNK         0.3116 
     86 H86        25.0812  -26.6143  -45.5618 H         1 UNK         0.0646 
     87 H87        24.7621  -29.0911  -45.4243 H         1 UNK         0.0847 
     88 H88        24.1977  -28.9377  -43.7605 H         1 UNK         0.0847 
     89 H89        25.8573  -28.5316  -44.1701 H         1 UNK         0.0847 
     90 H90        22.7370  -26.6199  -42.9016 H         1 UNK         0.3040 
     91 H91        22.3851  -25.3330  -41.1861 H         1 UNK         0.1015 
     92 H92        23.6412  -23.2903  -40.6402 H         1 UNK         0.0786 
     93 H93        23.2817  -23.3261  -42.3590 H         1 UNK         0.0786 
     94 H94        24.9071  -23.6979  -41.7844 H         1 UNK         0.0786 
     95 H95        25.7915  -26.2681  -41.4823 H         1 UNK         0.3172 
     96 H96        26.0146  -27.0401  -38.6266 H         1 UNK         0.0595 
     97 H97        28.0070  -27.2167  -40.9518 H         1 UNK         0.0839 
     98 H98        28.3563  -27.5909  -39.2690 H         1 UNK         0.0839 
     99 H99        27.9540  -25.9458  -39.7312 H         1 UNK         0.0839 
    100 H100       23.9663  -28.4289  -39.2505 H         1 UNK         0.2998 
    101 H101       24.7588  -31.2018  -39.4379 H         1 UNK         0.0822 
    102 H102       23.0438  -29.9205  -41.6453 H         1 UNK         0.0787 
    103 H103       24.6069  -30.6971  -41.8782 H         1 UNK         0.0787 
    104 H104       23.2130  -31.6583  -41.4170 H         1 UNK         0.0787 
    105 H105       22.8560  -32.6010  -39.0445 H         1 UNK         0.3055 
    106 H106       20.4739  -31.3125  -37.8571 H         1 UNK         0.1106 
    107 H107       22.3074  -33.1984  -36.2772 H         1 UNK         0.0828 
    108 H108       20.7615  -32.5611  -35.7298 H         1 UNK         0.0828 
    109 H109       22.1144  -31.4722  -35.9735 H         1 UNK         0.0828 
    110 H110       20.7008  -32.6387  -40.3030 H         1 UNK         0.2931 
    111 H111       19.8580  -35.3876  -40.0482 H         1 UNK         0.0412 
    112 H112       16.4464  -33.2653  -39.8661 H         1 UNK         0.3472 
    113 H113       17.9979  -32.5217  -39.5711 H         1 UNK         0.3472 
    114 H114       19.5929  -35.3086  -42.5281 H         1 UNK         0.0970 
    115 H115       21.1608  -34.8139  -41.9766 H         1 UNK         0.0970 
    116 H116       17.8009  -33.7822  -43.4710 H         1 UNK         0.0612 
    117 H117       18.9268  -33.9317  -44.8017 H         1 UNK         0.0612 
@<TRIPOS>BOND
     1    1    2 1    
     2    1   62 1    
     3    1   63 1    
     4    1   64 1    
     5    2    3 2    
     6    2    4 am   BACKBONE|DICT|INTERRES
     7    4    5 1    
     8    4   65 1    
     9    5    6 1    
    10    5   25 1    
    11    5   66 1    
    12    6    7 1    
    13    6   67 1    
    14    6   68 1    
    15    7    8 1    
    16    8    9 1    
    17    8   69 1    
    18    8   70 1    
    19    9   10 ar   
    20    9   14 ar   
    21   10   11 ar   
    22   10   71 1    
    23   11   12 ar   
    24   11   61 1    
    25   12   13 ar   
    26   12   72 1    
    27   13   14 ar   
    28   13   15 1    
    29   14   73 1    
    30   15   16 1    
    31   15   74 1    
    32   15   75 1    
    33   16   17 1    
    34   17   18 1    
    35   17   76 1    
    36   17   77 1    
    37   18   19 1    
    38   18   27 1    
    39   18   78 1    
    40   19   20 am   BACKBONE|DICT|INTERRES
    41   19   79 1    
    42   20   21 2    
    43   20   22 1    
    44   22   23 1    
    45   22   24 1    
    46   22   80 1    
    47   23   81 1    
    48   23   82 1    
    49   23   83 1    
    50   24   25 am   BACKBONE|DICT|INTERRES
    51   24   84 1    
    52   25   26 2    
    53   27   28 2    
    54   27   29 am   BACKBONE|DICT|INTERRES
    55   29   30 1    
    56   29   85 1    
    57   30   31 1    
    58   30   32 1    
    59   30   86 1    
    60   31   87 1    
    61   31   88 1    
    62   31   89 1    
    63   32   33 2    
    64   32   34 am   BACKBONE|DICT|INTERRES
    65   34   35 1    
    66   34   90 1    
    67   35   36 1    
    68   35   37 1    
    69   35   91 1    
    70   36   92 1    
    71   36   93 1    
    72   36   94 1    
    73   37   38 2    
    74   37   39 am   BACKBONE|DICT|INTERRES
    75   39   40 1    
    76   39   95 1    
    77   40   41 1    
    78   40   42 1    
    79   40   96 1    
    80   41   97 1    
    81   41   98 1    
    82   41   99 1    
    83   42   43 2    
    84   42   44 am   BACKBONE|DICT|INTERRES
    85   44   45 1    
    86   44  100 1    
    87   45   46 1    
    88   45   47 1    
    89   45  101 1    
    90   46  102 1    
    91   46  103 1    
    92   46  104 1    
    93   47   48 2    
    94   47   49 am   BACKBONE|DICT|INTERRES
    95   49   50 1    
    96   49  105 1    
    97   50   51 1    
    98   50   52 1    
    99   50  106 1    
   100   51  107 1    
   101   51  108 1    
   102   51  109 1    
   103   52   53 2    
   104   52   54 am   BACKBONE|DICT|INTERRES
   105   54   55 1    
   106   54  110 1    
   107   55   56 1    
   108   55   59 1    
   109   55  111 1    
   110   56   57 am   BACKBONE|DICT|INTERRES
   111   56   58 2    
   112   57  112 1    
   113   57  113 1    
   114   59   60 1    
   115   59  114 1    
   116   59  115 1    
   117   60   61 1    
   118   61  116 1    
   119   61  117 1    
@<TRIPOS>SUBSTRUCTURE
     1 UNK         1 GROUP             0       ****    0 ROOT    
