@<TRIPOS>MOLECULE
3R8
117   119    1
SMALL
USER_CHARGES


@<TRIPOS>ATOM
      1 CA         17.9359  -22.7692  -42.8785 C.3       0 UNK        -0.2013 
      2 C          17.1528  -23.9697  -42.3509 C.2       0 UNK         0.4866 
      3 O          16.5097  -23.8542  -41.3092 O.2       0 UNK        -0.5176 
      4 N          17.1516  -25.1294  -43.0245 N.am      1 UNK        -0.4884 
      5 CA         17.9047  -25.4693  -44.2392 C.3       1 UNK         0.0853 
      6 C6         17.5042  -26.8668  -44.7700 C.3       10 UNK        -0.0849 
      7 S7         15.8283  -26.9027  -45.4876 S.3       10 UNK        -0.2776 
      8 C8         15.1484  -28.4673  -44.8254 C.3       10 UNK         0.0316 
      9 C9         16.0672  -29.6851  -44.9557 C.ar      10 UNK        -0.0863 
     10 C10        16.0451  -30.6580  -43.9505 C.ar      10 UNK        -0.1009 
     11 C11        16.8854  -31.7742  -44.0033 C.ar      10 UNK        -0.0712 
     12 C12        17.7518  -31.9147  -45.0945 C.ar      10 UNK        -0.0894 
     13 C13        17.8120  -30.9379  -46.0908 C.ar      10 UNK        -0.0745 
     14 C14        16.9429  -29.8455  -46.0377 C.ar      10 UNK        -0.0972 
     15 C15        18.8732  -31.0344  -47.1790 C.3       10 UNK         0.0209 
     16 S16        20.2648  -29.8786  -46.8995 S.3       10 UNK        -0.2568 
     17 C17        20.6830  -30.1497  -45.1373 C.3       10 UNK        -0.0983 
     18 CA         21.7188  -29.1504  -44.5552 C.3       3 UNK         0.0876 
     19 N          21.4526  -27.7708  -44.9759 N.am      3 UNK        -0.4424 
     20 C          22.1993  -26.6970  -44.6837 C.2       2 UNK         0.4918 
     21 O          23.2461  -26.7422  -44.0424 O.2       2 UNK        -0.4875 
     22 CA         21.6494  -25.3308  -45.1332 C.3       2 UNK         0.0481 
     23 CB         22.1544  -24.9892  -46.5431 C.3       2 UNK        -0.1831 
     24 N          20.1842  -25.2539  -45.1009 N.am      2 UNK        -0.4498 
     25 C          19.4288  -25.4508  -44.0098 C.2       1 UNK         0.5027 
     26 O          19.8914  -25.6886  -42.8909 O.2       1 UNK        -0.4969 
     27 C          21.7496  -29.2827  -43.0163 C.2       3 UNK         0.5005 
     28 O          22.6204  -29.9605  -42.4682 O.2       3 UNK        -0.5279 
     29 N          20.7926  -28.6235  -42.3473 N.am      4 UNK        -0.4463 
     30 CA         20.6782  -28.5812  -40.8914 C.3       4 UNK         0.0283 
     31 CB         19.2497  -28.1813  -40.4910 C.3       4 UNK        -0.1875 
     32 C          21.7168  -27.6398  -40.2675 C.2       4 UNK         0.4949 
     33 O          22.3061  -27.9935  -39.2478 O.2       4 UNK        -0.5039 
     34 N          21.9640  -26.4873  -40.9087 N.am      5 UNK        -0.4663 
     35 CA         22.9882  -25.5151  -40.5051 C.3       5 UNK         0.0242 
     36 CB         22.8662  -24.2487  -41.3662 C.3       5 UNK        -0.1982 
     37 C          24.4188  -26.0831  -40.5687 C.2       5 UNK         0.5017 
     38 O          25.2268  -25.7921  -39.6870 O.2       5 UNK        -0.5012 
     39 N          24.6869  -26.9182  -41.5822 N.am      6 UNK        -0.4439 
     40 CA         25.9237  -27.6867  -41.7507 C.3       6 UNK         0.0297 
     41 CB         26.0246  -28.1445  -43.2160 C.3       6 UNK        -0.2006 
     42 C          26.0386  -28.9017  -40.8076 C.2       6 UNK         0.4892 
     43 O          27.0930  -29.5379  -40.7934 O.2       6 UNK        -0.5089 
     44 N          24.9657  -29.2172  -40.0645 N.am      7 UNK        -0.4243 
     45 CA         24.8083  -30.3546  -39.1502 C.3       7 UNK         0.0196 
     46 CB         25.8119  -30.2777  -37.9795 C.3       7 UNK        -0.2007 
     47 C          24.8122  -31.7257  -39.8553 C.2       7 UNK         0.5020 
     48 O          25.0817  -32.7397  -39.2101 O.2       7 UNK        -0.5147 
     49 N          24.4755  -31.7499  -41.1520 N.am      8 UNK        -0.4734 
     50 CA         24.2866  -32.9742  -41.9346 C.3       8 UNK         0.0238 
     51 CB         24.5466  -32.6730  -43.4201 C.3       8 UNK        -0.1912 
     52 C          22.8781  -33.5602  -41.7400 C.2       8 UNK         0.5038 
     53 O          22.7090  -34.7736  -41.8637 O.2       8 UNK        -0.5046 
     54 N          21.9078  -32.6901  -41.4352 N.am      9 UNK        -0.4200 
     55 CA         20.4954  -33.0149  -41.1915 C.3       9 UNK         0.0839 
     56 C          19.9506  -32.3713  -39.8830 C.2       9 UNK         0.5513 
     57 N          20.8046  -31.9829  -38.9427 N.am      9 UNK        -0.7519 
     58 O          18.7446  -32.2222  -39.7068 O.2       9 UNK        -0.4960 
     59 C59        19.6384  -32.7007  -42.4482 C.3       10 UNK        -0.0876 
     60 S60        18.2789  -33.8931  -42.7017 S.3       10 UNK        -0.2414 
     61 C61        16.8334  -32.7842  -42.8524 C.3       10 UNK         0.0169 
     62 H62        18.9906  -22.8581  -42.6188 H         1 UNK         0.0903 
     63 H63        17.8448  -22.6638  -43.9584 H         1 UNK         0.0903 
     64 H64        17.5610  -21.8487  -42.4312 H         1 UNK         0.0903 
     65 H65        16.6101  -25.8904  -42.6419 H         1 UNK         0.3096 
     66 H66        17.6688  -24.7270  -45.0043 H         1 UNK         0.1121 
     67 H67        17.5879  -27.6099  -43.9740 H         1 UNK         0.0849 
     68 H68        18.1784  -27.1997  -45.5621 H         1 UNK         0.0849 
     69 H69        14.2090  -28.6835  -45.3357 H         1 UNK         0.0865 
     70 H70        14.8957  -28.3017  -43.7768 H         1 UNK         0.0865 
     71 H71        15.3747  -30.5409  -43.1094 H         1 UNK         0.1346 
     72 H72        18.4192  -32.7617  -45.1573 H         1 UNK         0.1412 
     73 H73        16.9874  -29.0979  -46.8175 H         1 UNK         0.1426 
     74 H74        18.4227  -30.8209  -48.1493 H         1 UNK         0.0716 
     75 H75        19.2670  -32.0500  -47.2425 H         1 UNK         0.0716 
     76 H76        21.0418  -31.1740  -45.0231 H         1 UNK         0.0695 
     77 H77        19.7570  -30.0813  -44.5652 H         1 UNK         0.0695 
     78 H78        22.7091  -29.4180  -44.9296 H         1 UNK         0.0983 
     79 H79        20.6368  -27.6452  -45.5558 H         1 UNK         0.3095 
     80 H80        22.0310  -24.5746  -44.4459 H         1 UNK         0.0454 
     81 H81        21.7829  -25.6923  -47.2897 H         1 UNK         0.0851 
     82 H82        23.2443  -25.0181  -46.5835 H         1 UNK         0.0851 
     83 H83        21.8493  -23.9867  -46.8431 H         1 UNK         0.0851 
     84 H84        19.7290  -25.0685  -45.9840 H         1 UNK         0.2976 
     85 H85        20.1579  -28.0334  -42.8659 H         1 UNK         0.3116 
     86 H86        20.8665  -29.5831  -40.5030 H         1 UNK         0.0646 
     87 H87        18.5165  -28.8843  -40.8871 H         1 UNK         0.0847 
     88 H88        18.9877  -27.1844  -40.8470 H         1 UNK         0.0847 
     89 H89        19.1389  -28.1783  -39.4058 H         1 UNK         0.0847 
     90 H90        21.3933  -26.2502  -41.7149 H         1 UNK         0.3040 
     91 H91        22.7890  -25.2424  -39.4662 H         1 UNK         0.1015 
     92 H92        23.5398  -23.4697  -41.0071 H         1 UNK         0.0786 
     93 H93        21.8547  -23.8425  -41.3399 H         1 UNK         0.0786 
     94 H94        23.1245  -24.4442  -42.4064 H         1 UNK         0.0786 
     95 H95        23.9879  -27.0251  -42.3137 H         1 UNK         0.3172 
     96 H96        26.7689  -27.0289  -41.5386 H         1 UNK         0.0595 
     97 H97        25.2006  -28.8060  -43.4878 H         1 UNK         0.0839 
     98 H98        26.9529  -28.6881  -43.3970 H         1 UNK         0.0839 
     99 H99        26.0109  -27.2950  -43.8991 H         1 UNK         0.0839 
    100 H100       24.1502  -28.6201  -40.1380 H         1 UNK         0.2998 
    101 H101       23.8097  -30.2500  -38.7239 H         1 UNK         0.0822 
    102 H102       25.7823  -29.3011  -37.4963 H         1 UNK         0.0787 
    103 H103       25.5807  -31.0218  -37.2164 H         1 UNK         0.0787 
    104 H104       26.8353  -30.4599  -38.3083 H         1 UNK         0.0787 
    105 H105       24.1985  -30.8820  -41.6006 H         1 UNK         0.3055 
    106 H106       25.0082  -33.7263  -41.6068 H         1 UNK         0.1106 
    107 H107       24.4567  -33.5786  -44.0216 H         1 UNK         0.0828 
    108 H108       25.5517  -32.2803  -43.5743 H         1 UNK         0.0828 
    109 H109       23.8382  -31.9465  -43.8195 H         1 UNK         0.0828 
    110 H110       22.1473  -31.7058  -41.4044 H         1 UNK         0.2931 
    111 H111       20.4336  -34.0876  -40.9999 H         1 UNK         0.0412 
    112 H112       21.7915  -32.1567  -39.0425 H         1 UNK         0.3472 
    113 H113       20.4459  -31.5724  -38.0947 H         1 UNK         0.3472 
    114 H114       19.2608  -31.6764  -42.4204 H         1 UNK         0.0970 
    115 H115       20.2545  -32.7589  -43.3464 H         1 UNK         0.0970 
    116 H116       16.7187  -32.2530  -41.9060 H         1 UNK         0.0612 
    117 H117       15.9410  -33.3993  -42.9732 H         1 UNK         0.0612 
@<TRIPOS>BOND
     1    1    2 1    
     2    1   62 1    
     3    1   63 1    
     4    1   64 1    
     5    2    3 2    
     6    2    4 am   BACKBONE|DICT|INTERRES
     7    4    5 1    
     8    4   65 1    
     9    5    6 1    
    10    5   25 1    
    11    5   66 1    
    12    6    7 1    
    13    6   67 1    
    14    6   68 1    
    15    7    8 1    
    16    8    9 1    
    17    8   69 1    
    18    8   70 1    
    19    9   10 ar   
    20    9   14 ar   
    21   10   11 ar   
    22   10   71 1    
    23   11   12 ar   
    24   11   61 1    
    25   12   13 ar   
    26   12   72 1    
    27   13   14 ar   
    28   13   15 1    
    29   14   73 1    
    30   15   16 1    
    31   15   74 1    
    32   15   75 1    
    33   16   17 1    
    34   17   18 1    
    35   17   76 1    
    36   17   77 1    
    37   18   19 1    
    38   18   27 1    
    39   18   78 1    
    40   19   20 am   BACKBONE|DICT|INTERRES
    41   19   79 1    
    42   20   21 2    
    43   20   22 1    
    44   22   23 1    
    45   22   24 1    
    46   22   80 1    
    47   23   81 1    
    48   23   82 1    
    49   23   83 1    
    50   24   25 am   BACKBONE|DICT|INTERRES
    51   24   84 1    
    52   25   26 2    
    53   27   28 2    
    54   27   29 am   BACKBONE|DICT|INTERRES
    55   29   30 1    
    56   29   85 1    
    57   30   31 1    
    58   30   32 1    
    59   30   86 1    
    60   31   87 1    
    61   31   88 1    
    62   31   89 1    
    63   32   33 2    
    64   32   34 am   BACKBONE|DICT|INTERRES
    65   34   35 1    
    66   34   90 1    
    67   35   36 1    
    68   35   37 1    
    69   35   91 1    
    70   36   92 1    
    71   36   93 1    
    72   36   94 1    
    73   37   38 2    
    74   37   39 am   BACKBONE|DICT|INTERRES
    75   39   40 1    
    76   39   95 1    
    77   40   41 1    
    78   40   42 1    
    79   40   96 1    
    80   41   97 1    
    81   41   98 1    
    82   41   99 1    
    83   42   43 2    
    84   42   44 am   BACKBONE|DICT|INTERRES
    85   44   45 1    
    86   44  100 1    
    87   45   46 1    
    88   45   47 1    
    89   45  101 1    
    90   46  102 1    
    91   46  103 1    
    92   46  104 1    
    93   47   48 2    
    94   47   49 am   BACKBONE|DICT|INTERRES
    95   49   50 1    
    96   49  105 1    
    97   50   51 1    
    98   50   52 1    
    99   50  106 1    
   100   51  107 1    
   101   51  108 1    
   102   51  109 1    
   103   52   53 2    
   104   52   54 am   BACKBONE|DICT|INTERRES
   105   54   55 1    
   106   54  110 1    
   107   55   56 1    
   108   55   59 1    
   109   55  111 1    
   110   56   57 am   BACKBONE|DICT|INTERRES
   111   56   58 2    
   112   57  112 1    
   113   57  113 1    
   114   59   60 1    
   115   59  114 1    
   116   59  115 1    
   117   60   61 1    
   118   61  116 1    
   119   61  117 1    
@<TRIPOS>SUBSTRUCTURE
     1 UNK         1 GROUP             0       ****    0 ROOT    
