@<TRIPOS>MOLECULE
3R8
117   119    1
SMALL
USER_CHARGES


@<TRIPOS>ATOM
      1 CA         13.5548  -22.7379  -47.2192 C.3       0 UNK        -0.2013 
      2 C          14.2501  -23.9359  -47.8479 C.2       0 UNK         0.4866 
      3 O          14.5954  -23.8947  -49.0287 O.2       0 UNK        -0.5176 
      4 N          14.4650  -25.0026  -47.0671 N.am      1 UNK        -0.4884 
      5 CA         15.1119  -26.2491  -47.5020 C.3       1 UNK         0.0853 
      6 C6         14.6095  -27.4648  -46.6785 C.3       10 UNK        -0.0849 
      7 S7         14.9296  -27.3449  -44.8820 S.3       10 UNK        -0.2776 
      8 C8         16.3415  -28.4937  -44.7180 C.3       10 UNK         0.0316 
      9 C9         16.9641  -28.5635  -43.3241 C.ar      10 UNK        -0.0863 
     10 C10        17.6732  -29.7143  -42.9634 C.ar      10 UNK        -0.1009 
     11 C11        18.3146  -29.8034  -41.7244 C.ar      10 UNK        -0.0712 
     12 C12        18.2556  -28.7226  -40.8414 C.ar      10 UNK        -0.0894 
     13 C13        17.5626  -27.5606  -41.1911 C.ar      10 UNK        -0.0745 
     14 C14        16.9040  -27.4932  -42.4224 C.ar      10 UNK        -0.0972 
     15 C15        17.5623  -26.3626  -40.2552 C.3       10 UNK         0.0209 
     16 S16        19.1169  -25.4225  -40.3908 S.3       10 UNK        -0.2568 
     17 C17        18.9542  -24.6271  -42.0274 C.3       10 UNK        -0.0983 
     18 CA         19.5547  -25.4439  -43.2028 C.3       3 UNK         0.0876 
     19 N          19.0793  -24.9174  -44.4846 N.am      3 UNK        -0.4424 
     20 C          19.1958  -25.5320  -45.6682 C.2       2 UNK         0.4918 
     21 O          19.6736  -26.6574  -45.8200 O.2       2 UNK        -0.4875 
     22 CA         18.6484  -24.7470  -46.8724 C.3       2 UNK         0.0481 
     23 CB         19.4868  -24.9509  -48.1523 C.3       2 UNK        -0.1831 
     24 N          17.2251  -25.0376  -47.0814 N.am      2 UNK        -0.4498 
     25 C          16.6573  -26.1681  -47.5347 C.2       1 UNK         0.5027 
     26 O          17.2877  -27.1358  -47.9622 O.2       1 UNK        -0.4969 
     27 C          21.0948  -25.5245  -43.1528 C.2       3 UNK         0.5005 
     28 O          21.7808  -24.7073  -43.7741 O.2       3 UNK        -0.5279 
     29 N          21.5998  -26.5097  -42.4056 N.am      4 UNK        -0.4463 
     30 CA         23.0128  -26.8069  -42.2088 C.3       4 UNK         0.0283 
     31 CB         23.4888  -27.7678  -43.3151 C.3       4 UNK        -0.1875 
     32 C          23.1971  -27.4132  -40.8104 C.2       4 UNK         0.4949 
     33 O          22.2142  -27.6357  -40.0982 O.2       4 UNK        -0.5039 
     34 N          24.4588  -27.6610  -40.4390 N.am      5 UNK        -0.4663 
     35 CA         24.8461  -28.3073  -39.1826 C.3       5 UNK         0.0242 
     36 CB         26.3740  -28.2135  -39.0321 C.3       5 UNK        -0.1982 
     37 C          24.4004  -29.7784  -39.1193 C.2       5 UNK         0.5017 
     38 O          24.2601  -30.4243  -40.1600 O.2       5 UNK        -0.5012 
     39 N          24.2642  -30.3069  -37.8955 N.am      6 UNK        -0.4439 
     40 CA         23.8633  -31.6919  -37.6125 C.3       6 UNK         0.0297 
     41 CB         23.7432  -31.8849  -36.0922 C.3       6 UNK        -0.2006 
     42 C          24.7886  -32.7667  -38.2175 C.2       6 UNK         0.4892 
     43 O          24.3218  -33.8709  -38.4935 O.2       6 UNK        -0.5089 
     44 N          26.0677  -32.4229  -38.4241 N.am      7 UNK        -0.4243 
     45 CA         27.0582  -33.2626  -39.1007 C.3       7 UNK         0.0196 
     46 CB         28.4668  -32.7845  -38.7117 C.3       7 UNK        -0.2007 
     47 C          26.9023  -33.2736  -40.6337 C.2       7 UNK         0.5020 
     48 O          27.3442  -34.2314  -41.2688 O.2       7 UNK        -0.5147 
     49 N          26.3062  -32.2178  -41.2056 N.am      8 UNK        -0.4734 
     50 CA         26.0397  -32.0937  -42.6411 C.3       8 UNK         0.0238 
     51 CB         26.1112  -30.6140  -43.0512 C.3       8 UNK        -0.1912 
     52 C          24.6770  -32.6985  -43.0103 C.2       8 UNK         0.5038 
     53 O          24.5659  -33.3339  -44.0597 O.2       8 UNK        -0.5046 
     54 N          23.6776  -32.5027  -42.1397 N.am      9 UNK        -0.4200 
     55 CA         22.3521  -33.1347  -42.2066 C.3       9 UNK         0.0839 
     56 C          22.4150  -34.6869  -42.1283 C.2       9 UNK         0.5513 
     57 N          21.4695  -35.3722  -42.7573 N.am      9 UNK        -0.7519 
     58 O          23.2777  -35.2727  -41.4783 O.2       9 UNK        -0.4960 
     59 C59        21.4161  -32.5688  -41.1078 C.3       10 UNK        -0.0876 
     60 S60        20.8664  -30.8686  -41.4819 S.3       10 UNK        -0.2414 
     61 C61        19.0628  -31.0696  -41.3368 C.3       10 UNK         0.0169 
     62 H62        14.1946  -21.8578  -47.2793 H         1 UNK         0.0903 
     63 H63        12.6279  -22.5218  -47.7498 H         1 UNK         0.0903 
     64 H64        13.3123  -22.9102  -46.1707 H         1 UNK         0.0903 
     65 H65        14.1636  -24.9901  -46.1016 H         1 UNK         0.3096 
     66 H66        14.8149  -26.4309  -48.5378 H         1 UNK         0.1121 
     67 H67        13.5312  -27.5653  -46.8125 H         1 UNK         0.0849 
     68 H68        15.0297  -28.3937  -47.0695 H         1 UNK         0.0849 
     69 H69        16.0078  -29.4879  -45.0199 H         1 UNK         0.0865 
     70 H70        17.1258  -28.2034  -45.4178 H         1 UNK         0.0865 
     71 H71        17.7352  -30.5438  -43.6550 H         1 UNK         0.1346 
     72 H72        18.7702  -28.7778  -39.8913 H         1 UNK         0.1412 
     73 H73        16.3871  -26.5828  -42.6911 H         1 UNK         0.1426 
     74 H74        16.7132  -25.7074  -40.4561 H         1 UNK         0.0716 
     75 H75        17.4461  -26.7053  -39.2260 H         1 UNK         0.0716 
     76 H76        19.4173  -23.6399  -41.9750 H         1 UNK         0.0695 
     77 H77        17.8930  -24.4438  -42.2036 H         1 UNK         0.0695 
     78 H78        19.1946  -26.4702  -43.1453 H         1 UNK         0.0983 
     79 H79        18.6969  -23.9839  -44.4619 H         1 UNK         0.3095 
     80 H80        18.7041  -23.6846  -46.6288 H         1 UNK         0.0454 
     81 H81        19.0753  -24.3888  -48.9904 H         1 UNK         0.0851 
     82 H82        19.5483  -25.9981  -48.4485 H         1 UNK         0.0851 
     83 H83        20.5095  -24.6045  -47.9993 H         1 UNK         0.0851 
     84 H84        16.5876  -24.3237  -46.7581 H         1 UNK         0.2976 
     85 H85        20.9805  -27.0657  -41.8258 H         1 UNK         0.3116 
     86 H86        23.5888  -25.8802  -42.2528 H         1 UNK         0.0646 
     87 H87        23.2510  -27.3838  -44.3073 H         1 UNK         0.0847 
     88 H88        24.5693  -27.9040  -43.2796 H         1 UNK         0.0847 
     89 H89        23.0271  -28.7519  -43.2185 H         1 UNK         0.0847 
     90 H90        25.2038  -27.4621  -41.0902 H         1 UNK         0.3040 
     91 H91        24.3705  -27.7646  -38.3625 H         1 UNK         0.1015 
     92 H92        26.8922  -28.7456  -39.8315 H         1 UNK         0.0786 
     93 H93        26.7057  -28.6434  -38.0860 H         1 UNK         0.0786 
     94 H94        26.7111  -27.1768  -39.0465 H         1 UNK         0.0786 
     95 H95        24.4199  -29.7130  -37.0931 H         1 UNK         0.3172 
     96 H96        22.8735  -31.8352  -38.0497 H         1 UNK         0.0595 
     97 H97        24.6956  -31.7205  -35.5867 H         1 UNK         0.0839 
     98 H98        23.4188  -32.8987  -35.8521 H         1 UNK         0.0839 
     99 H99        23.0097  -31.2037  -35.6604 H         1 UNK         0.0839 
    100 H100       26.3649  -31.4999  -38.1445 H         1 UNK         0.2998 
    101 H101       26.9384  -34.2908  -38.7517 H         1 UNK         0.0822 
    102 H102       28.6201  -32.8357  -37.6335 H         1 UNK         0.0787 
    103 H103       29.2323  -33.4082  -39.1758 H         1 UNK         0.0787 
    104 H104       28.6475  -31.7568  -39.0297 H         1 UNK         0.0787 
    105 H105       25.8964  -31.5049  -40.6130 H         1 UNK         0.3055 
    106 H106       26.8051  -32.6352  -43.2021 H         1 UNK         0.1106 
    107 H107       27.0967  -30.1942  -42.8495 H         1 UNK         0.0828 
    108 H108       25.9191  -30.4946  -44.1183 H         1 UNK         0.0828 
    109 H109       25.3759  -30.0127  -42.5180 H         1 UNK         0.0828 
    110 H110       23.8501  -31.9106  -41.3337 H         1 UNK         0.2931 
    111 H111       21.9319  -32.8808  -43.1822 H         1 UNK         0.0412 
    112 H112       20.7520  -34.9044  -43.2897 H         1 UNK         0.3472 
    113 H113       21.4805  -36.3794  -42.7097 H         1 UNK         0.3472 
    114 H114       20.5347  -33.2019  -40.9884 H         1 UNK         0.0970 
    115 H115       21.9149  -32.5758  -40.1375 H         1 UNK         0.0970 
    116 H116       18.7419  -31.9024  -41.9648 H         1 UNK         0.0612 
    117 H117       18.8134  -31.3412  -40.3100 H         1 UNK         0.0612 
@<TRIPOS>BOND
     1    1    2 1    
     2    1   62 1    
     3    1   63 1    
     4    1   64 1    
     5    2    3 2    
     6    2    4 am   BACKBONE|DICT|INTERRES
     7    4    5 1    
     8    4   65 1    
     9    5    6 1    
    10    5   25 1    
    11    5   66 1    
    12    6    7 1    
    13    6   67 1    
    14    6   68 1    
    15    7    8 1    
    16    8    9 1    
    17    8   69 1    
    18    8   70 1    
    19    9   10 ar   
    20    9   14 ar   
    21   10   11 ar   
    22   10   71 1    
    23   11   12 ar   
    24   11   61 1    
    25   12   13 ar   
    26   12   72 1    
    27   13   14 ar   
    28   13   15 1    
    29   14   73 1    
    30   15   16 1    
    31   15   74 1    
    32   15   75 1    
    33   16   17 1    
    34   17   18 1    
    35   17   76 1    
    36   17   77 1    
    37   18   19 1    
    38   18   27 1    
    39   18   78 1    
    40   19   20 am   BACKBONE|DICT|INTERRES
    41   19   79 1    
    42   20   21 2    
    43   20   22 1    
    44   22   23 1    
    45   22   24 1    
    46   22   80 1    
    47   23   81 1    
    48   23   82 1    
    49   23   83 1    
    50   24   25 am   BACKBONE|DICT|INTERRES
    51   24   84 1    
    52   25   26 2    
    53   27   28 2    
    54   27   29 am   BACKBONE|DICT|INTERRES
    55   29   30 1    
    56   29   85 1    
    57   30   31 1    
    58   30   32 1    
    59   30   86 1    
    60   31   87 1    
    61   31   88 1    
    62   31   89 1    
    63   32   33 2    
    64   32   34 am   BACKBONE|DICT|INTERRES
    65   34   35 1    
    66   34   90 1    
    67   35   36 1    
    68   35   37 1    
    69   35   91 1    
    70   36   92 1    
    71   36   93 1    
    72   36   94 1    
    73   37   38 2    
    74   37   39 am   BACKBONE|DICT|INTERRES
    75   39   40 1    
    76   39   95 1    
    77   40   41 1    
    78   40   42 1    
    79   40   96 1    
    80   41   97 1    
    81   41   98 1    
    82   41   99 1    
    83   42   43 2    
    84   42   44 am   BACKBONE|DICT|INTERRES
    85   44   45 1    
    86   44  100 1    
    87   45   46 1    
    88   45   47 1    
    89   45  101 1    
    90   46  102 1    
    91   46  103 1    
    92   46  104 1    
    93   47   48 2    
    94   47   49 am   BACKBONE|DICT|INTERRES
    95   49   50 1    
    96   49  105 1    
    97   50   51 1    
    98   50   52 1    
    99   50  106 1    
   100   51  107 1    
   101   51  108 1    
   102   51  109 1    
   103   52   53 2    
   104   52   54 am   BACKBONE|DICT|INTERRES
   105   54   55 1    
   106   54  110 1    
   107   55   56 1    
   108   55   59 1    
   109   55  111 1    
   110   56   57 am   BACKBONE|DICT|INTERRES
   111   56   58 2    
   112   57  112 1    
   113   57  113 1    
   114   59   60 1    
   115   59  114 1    
   116   59  115 1    
   117   60   61 1    
   118   61  116 1    
   119   61  117 1    
@<TRIPOS>SUBSTRUCTURE
     1 UNK         1 GROUP             0       ****    0 ROOT    
