@<TRIPOS>MOLECULE
3R8
117   119    1
SMALL
USER_CHARGES


@<TRIPOS>ATOM
      1 CA         16.6530  -22.7819  -40.2822 C.3       0 UNK        -0.2013 
      2 C          17.2480  -23.5254  -41.4688 C.2       0 UNK         0.4866 
      3 O          18.4242  -23.3374  -41.7815 O.2       0 UNK        -0.5176 
      4 N          16.4437  -24.3618  -42.1371 N.am      1 UNK        -0.4884 
      5 CA         16.8700  -25.2121  -43.2527 C.3       1 UNK         0.0853 
      6 C6         15.6505  -25.7278  -44.0529 C.3       10 UNK        -0.0849 
      7 S7         16.0974  -26.2878  -45.7318 S.3       10 UNK        -0.2776 
      8 C8         15.3376  -27.9415  -45.7917 C.3       10 UNK         0.0316 
      9 C9         16.2864  -29.0445  -45.3397 C.ar      10 UNK        -0.0863 
     10 C10        16.2810  -29.5012  -44.0177 C.ar      10 UNK        -0.1009 
     11 C11        17.0764  -30.5886  -43.6333 C.ar      10 UNK        -0.0712 
     12 C12        17.8925  -31.2089  -44.5873 C.ar      10 UNK        -0.0894 
     13 C13        17.9199  -30.7499  -45.9076 C.ar      10 UNK        -0.0745 
     14 C14        17.1187  -29.6654  -46.2744 C.ar      10 UNK        -0.0972 
     15 C15        18.7484  -31.4659  -46.9651 C.3       10 UNK         0.0209 
     16 S16        20.1696  -30.4748  -47.5243 S.3       10 UNK        -0.2568 
     17 C17        21.4789  -30.9670  -46.3568 C.3       10 UNK        -0.0983 
     18 CA         22.0474  -29.7601  -45.5713 C.3       3 UNK         0.0876 
     19 N          21.1170  -29.2919  -44.5495 N.am      3 UNK        -0.4424 
     20 C          20.4884  -28.1169  -44.5306 C.2       2 UNK         0.4918 
     21 O          20.5429  -27.2757  -45.4319 O.2       2 UNK        -0.4875 
     22 CA         19.6943  -27.8250  -43.2536 C.3       2 UNK         0.0481 
     23 CB         20.6342  -27.5148  -42.0739 C.3       2 UNK        -0.1831 
     24 N          18.7917  -26.7081  -43.4982 N.am      2 UNK        -0.4498 
     25 C          17.7409  -26.3769  -42.7421 C.2       1 UNK         0.5027 
     26 O          17.4276  -26.9570  -41.6987 O.2       1 UNK        -0.4969 
     27 C          23.3495  -30.1559  -44.8557 C.2       3 UNK         0.5005 
     28 O          23.3179  -30.4912  -43.6669 O.2       3 UNK        -0.5279 
     29 N          24.4646  -30.1364  -45.5981 N.am      4 UNK        -0.4463 
     30 CA         25.8419  -30.4585  -45.1935 C.3       4 UNK         0.0283 
     31 CB         25.9592  -31.8764  -44.5976 C.3       4 UNK        -0.1875 
     32 C          26.4851  -29.4099  -44.2691 C.2       4 UNK         0.4949 
     33 O          27.5941  -28.9590  -44.5570 O.2       4 UNK        -0.5039 
     34 N          25.7858  -29.0266  -43.1981 N.am      5 UNK        -0.4663 
     35 CA         26.1882  -28.0197  -42.2197 C.3       5 UNK         0.0242 
     36 CB         27.2804  -28.5819  -41.2876 C.3       5 UNK        -0.1982 
     37 C          24.9521  -27.5665  -41.4330 C.2       5 UNK         0.5017 
     38 O          23.9020  -28.2107  -41.5161 O.2       5 UNK        -0.5012 
     39 N          25.1009  -26.4682  -40.6797 N.am      6 UNK        -0.4439 
     40 CA         24.0611  -25.8517  -39.8508 C.3       6 UNK         0.0297 
     41 CB         24.6413  -24.6198  -39.1354 C.3       6 UNK        -0.2006 
     42 C          23.4531  -26.8419  -38.8416 C.2       6 UNK         0.4892 
     43 O          24.1471  -27.2787  -37.9219 O.2       6 UNK        -0.5089 
     44 N          22.1797  -27.1880  -39.0743 N.am      7 UNK        -0.4243 
     45 CA         21.3559  -28.1564  -38.3397 C.3       7 UNK         0.0196 
     46 CB         21.1254  -27.6879  -36.8865 C.3       7 UNK        -0.2007 
     47 C          21.8495  -29.6182  -38.4125 C.2       7 UNK         0.5020 
     48 O          21.3780  -30.4408  -37.6257 O.2       7 UNK        -0.5147 
     49 N          22.7641  -29.9406  -39.3408 N.am      8 UNK        -0.4734 
     50 CA         23.2695  -31.3040  -39.5334 C.3       8 UNK         0.0238 
     51 CB         24.6396  -31.2700  -40.2267 C.3       8 UNK        -0.1912 
     52 C          22.2803  -32.1760  -40.3181 C.2       8 UNK         0.5038 
     53 O          22.0390  -33.3170  -39.9218 O.2       8 UNK        -0.5046 
     54 N          21.7258  -31.6135  -41.4012 N.am      9 UNK        -0.4200 
     55 CA         20.7778  -32.2661  -42.3216 C.3       9 UNK         0.0839 
     56 C          21.3890  -33.4949  -43.0574 C.2       9 UNK         0.5513 
     57 N          22.6403  -33.4043  -43.4898 N.am      9 UNK        -0.7519 
     58 O          20.7355  -34.5153  -43.2578 O.2       9 UNK        -0.4960 
     59 C59        19.3945  -32.5369  -41.6658 C.3       10 UNK        -0.0876 
     60 S60        18.5294  -30.9801  -41.2560 S.3       10 UNK        -0.2414 
     61 C61        16.9812  -31.1322  -42.2094 C.3       10 UNK         0.0169 
     62 H62        16.7261  -21.7059  -40.4384 H         1 UNK         0.0903 
     63 H63        15.6032  -23.0313  -40.1284 H         1 UNK         0.0903 
     64 H64        17.1976  -23.0320  -39.3721 H         1 UNK         0.0903 
     65 H65        15.4976  -24.5037  -41.8127 H         1 UNK         0.3096 
     66 H66        17.4778  -24.5900  -43.9147 H         1 UNK         0.1121 
     67 H67        14.9241  -24.9231  -44.1797 H         1 UNK         0.0849 
     68 H68        15.1269  -26.5133  -43.5045 H         1 UNK         0.0849 
     69 H69        14.4188  -27.9602  -45.2036 H         1 UNK         0.0865 
     70 H70        15.0259  -28.1350  -46.8194 H         1 UNK         0.0865 
     71 H71        15.6301  -29.0302  -43.2939 H         1 UNK         0.1346 
     72 H72        18.4856  -32.0683  -44.3146 H         1 UNK         0.1412 
     73 H73        17.1217  -29.3244  -47.3010 H         1 UNK         0.1426 
     74 H74        18.1119  -31.6675  -47.8279 H         1 UNK         0.0716 
     75 H75        19.0853  -32.4416  -46.6116 H         1 UNK         0.0716 
     76 H76        22.2590  -31.4470  -46.9512 H         1 UNK         0.0695 
     77 H77        21.1096  -31.7336  -45.6738 H         1 UNK         0.0695 
     78 H78        22.2832  -28.9498  -46.2649 H         1 UNK         0.0983 
     79 H79        21.0883  -29.8705  -43.7248 H         1 UNK         0.3095 
     80 H80        19.0953  -28.7049  -43.0203 H         1 UNK         0.0454 
     81 H81        21.2694  -28.3707  -41.8463 H         1 UNK         0.0851 
     82 H82        20.0713  -27.2862  -41.1700 H         1 UNK         0.0851 
     83 H83        21.2868  -26.6684  -42.2918 H         1 UNK         0.0851 
     84 H84        18.9626  -26.2280  -44.3740 H         1 UNK         0.2976 
     85 H85        24.3765  -29.8318  -46.5584 H         1 UNK         0.3116 
     86 H86        26.4201  -30.4537  -46.1190 H         1 UNK         0.0646 
     87 H87        25.4738  -31.9579  -43.6249 H         1 UNK         0.0847 
     88 H88        25.5188  -32.6236  -45.2574 H         1 UNK         0.0847 
     89 H89        27.0058  -32.1475  -44.4535 H         1 UNK         0.0847 
     90 H90        24.8522  -29.4106  -43.0593 H         1 UNK         0.3040 
     91 H91        26.5779  -27.1511  -42.7551 H         1 UNK         0.1015 
     92 H92        27.5549  -27.8648  -40.5133 H         1 UNK         0.0786 
     93 H93        28.1909  -28.8165  -41.8389 H         1 UNK         0.0786 
     94 H94        26.9548  -29.4931  -40.7881 H         1 UNK         0.0786 
     95 H95        26.0083  -26.0262  -40.6536 H         1 UNK         0.3172 
     96 H96        23.2738  -25.5056  -40.5240 H         1 UNK         0.0595 
     97 H97        25.4737  -24.8857  -38.4824 H         1 UNK         0.0839 
     98 H98        23.8843  -24.1372  -38.5156 H         1 UNK         0.0839 
     99 H99        24.9967  -23.8750  -39.8477 H         1 UNK         0.0839 
    100 H100       21.7337  -26.7762  -39.8813 H         1 UNK         0.2998 
    101 H101       20.3843  -28.1567  -38.8359 H         1 UNK         0.0822 
    102 H102       20.3851  -28.3123  -36.3847 H         1 UNK         0.0787 
    103 H103       20.7556  -26.6631  -36.8534 H         1 UNK         0.0787 
    104 H104       22.0408  -27.7343  -36.2960 H         1 UNK         0.0787 
    105 H105       23.1122  -29.2233  -39.9702 H         1 UNK         0.3055 
    106 H106       23.4082  -31.7666  -38.5532 H         1 UNK         0.1106 
    107 H107       25.3616  -30.7143  -39.6297 H         1 UNK         0.0828 
    108 H108       25.0353  -32.2779  -40.3582 H         1 UNK         0.0828 
    109 H109       24.5878  -30.8118  -41.2140 H         1 UNK         0.0828 
    110 H110       22.0725  -30.7087  -41.6856 H         1 UNK         0.2931 
    111 H111       20.6035  -31.5492  -43.1217 H         1 UNK         0.0412 
    112 H112       23.1465  -32.5349  -43.3748 H         1 UNK         0.3472 
    113 H113       23.0609  -34.1842  -43.9688 H         1 UNK         0.3472 
    114 H114       18.7615  -33.1364  -42.3203 H         1 UNK         0.0970 
    115 H115       19.5057  -33.1270  -40.7554 H         1 UNK         0.0970 
    116 H116       16.2070  -30.5957  -41.6588 H         1 UNK         0.0612 
    117 H117       16.6551  -32.1726  -42.2354 H         1 UNK         0.0612 
@<TRIPOS>BOND
     1    1    2 1    
     2    1   62 1    
     3    1   63 1    
     4    1   64 1    
     5    2    3 2    
     6    2    4 am   BACKBONE|DICT|INTERRES
     7    4    5 1    
     8    4   65 1    
     9    5    6 1    
    10    5   25 1    
    11    5   66 1    
    12    6    7 1    
    13    6   67 1    
    14    6   68 1    
    15    7    8 1    
    16    8    9 1    
    17    8   69 1    
    18    8   70 1    
    19    9   10 ar   
    20    9   14 ar   
    21   10   11 ar   
    22   10   71 1    
    23   11   12 ar   
    24   11   61 1    
    25   12   13 ar   
    26   12   72 1    
    27   13   14 ar   
    28   13   15 1    
    29   14   73 1    
    30   15   16 1    
    31   15   74 1    
    32   15   75 1    
    33   16   17 1    
    34   17   18 1    
    35   17   76 1    
    36   17   77 1    
    37   18   19 1    
    38   18   27 1    
    39   18   78 1    
    40   19   20 am   BACKBONE|DICT|INTERRES
    41   19   79 1    
    42   20   21 2    
    43   20   22 1    
    44   22   23 1    
    45   22   24 1    
    46   22   80 1    
    47   23   81 1    
    48   23   82 1    
    49   23   83 1    
    50   24   25 am   BACKBONE|DICT|INTERRES
    51   24   84 1    
    52   25   26 2    
    53   27   28 2    
    54   27   29 am   BACKBONE|DICT|INTERRES
    55   29   30 1    
    56   29   85 1    
    57   30   31 1    
    58   30   32 1    
    59   30   86 1    
    60   31   87 1    
    61   31   88 1    
    62   31   89 1    
    63   32   33 2    
    64   32   34 am   BACKBONE|DICT|INTERRES
    65   34   35 1    
    66   34   90 1    
    67   35   36 1    
    68   35   37 1    
    69   35   91 1    
    70   36   92 1    
    71   36   93 1    
    72   36   94 1    
    73   37   38 2    
    74   37   39 am   BACKBONE|DICT|INTERRES
    75   39   40 1    
    76   39   95 1    
    77   40   41 1    
    78   40   42 1    
    79   40   96 1    
    80   41   97 1    
    81   41   98 1    
    82   41   99 1    
    83   42   43 2    
    84   42   44 am   BACKBONE|DICT|INTERRES
    85   44   45 1    
    86   44  100 1    
    87   45   46 1    
    88   45   47 1    
    89   45  101 1    
    90   46  102 1    
    91   46  103 1    
    92   46  104 1    
    93   47   48 2    
    94   47   49 am   BACKBONE|DICT|INTERRES
    95   49   50 1    
    96   49  105 1    
    97   50   51 1    
    98   50   52 1    
    99   50  106 1    
   100   51  107 1    
   101   51  108 1    
   102   51  109 1    
   103   52   53 2    
   104   52   54 am   BACKBONE|DICT|INTERRES
   105   54   55 1    
   106   54  110 1    
   107   55   56 1    
   108   55   59 1    
   109   55  111 1    
   110   56   57 am   BACKBONE|DICT|INTERRES
   111   56   58 2    
   112   57  112 1    
   113   57  113 1    
   114   59   60 1    
   115   59  114 1    
   116   59  115 1    
   117   60   61 1    
   118   61  116 1    
   119   61  117 1    
@<TRIPOS>SUBSTRUCTURE
     1 UNK         1 GROUP             0       ****    0 ROOT    
