@<TRIPOS>MOLECULE
3R8
117   119    1
SMALL
USER_CHARGES


@<TRIPOS>ATOM
      1 CA         18.2649  -23.0539  -46.9371 C.3       0 UNK        -0.2013 
      2 C          18.0307  -24.3061  -46.1055 C.2       0 UNK         0.4866 
      3 O          18.5680  -24.4147  -45.0058 O.2       0 UNK        -0.5176 
      4 N          17.2387  -25.2497  -46.6288 N.am      1 UNK        -0.4884 
      5 CA         16.8520  -26.5028  -45.9720 C.3       1 UNK         0.0853 
      6 C6         16.2416  -27.4616  -47.0272 C.3       10 UNK        -0.0849 
      7 S7         15.8075  -29.1249  -46.4106 S.3       10 UNK        -0.2776 
      8 C8         17.1163  -30.1584  -47.1370 C.3       10 UNK         0.0316 
      9 C9         18.3633  -30.1643  -46.2683 C.ar      10 UNK        -0.0863 
     10 C10        18.4715  -31.0826  -45.2211 C.ar      10 UNK        -0.1009 
     11 C11        19.6168  -31.1190  -44.4224 C.ar      10 UNK        -0.0712 
     12 C12        20.6602  -30.2229  -44.6751 C.ar      10 UNK        -0.0894 
     13 C13        20.5732  -29.3148  -45.7353 C.ar      10 UNK        -0.0745 
     14 C14        19.4181  -29.2833  -46.5235 C.ar      10 UNK        -0.0972 
     15 C15        21.7487  -28.4099  -46.0737 C.3       10 UNK         0.0209 
     16 S16        21.5088  -26.7088  -45.4796 S.3       10 UNK        -0.2568 
     17 C17        21.8540  -26.8745  -43.6970 C.3       10 UNK        -0.0983 
     18 CA         20.6862  -26.3543  -42.8270 C.3       3 UNK         0.0876 
     19 N          19.4683  -27.1359  -43.0570 N.am      3 UNK        -0.4424 
     20 C          18.2402  -26.7525  -42.6976 C.2       2 UNK         0.4918 
     21 O          17.9895  -25.7310  -42.0528 O.2       2 UNK        -0.4875 
     22 CA         17.0879  -27.6637  -43.1453 C.3       2 UNK         0.0481 
     23 CB         16.6100  -28.5294  -41.9699 C.3       2 UNK        -0.1831 
     24 N          15.9702  -26.8506  -43.6326 N.am      2 UNK        -0.4498 
     25 C          15.8587  -26.2181  -44.8127 C.2       1 UNK         0.5027 
     26 O          14.9327  -25.4315  -45.0204 O.2       1 UNK        -0.4969 
     27 C          21.0923  -26.3150  -41.3384 C.2       3 UNK         0.5005 
     28 O          20.6022  -27.1068  -40.5300 O.2       3 UNK        -0.5279 
     29 N          22.0259  -25.4152  -41.0005 N.am      4 UNK        -0.4463 
     30 CA         22.6092  -25.2619  -39.6641 C.3       4 UNK         0.0283 
     31 CB         23.1990  -23.8446  -39.5375 C.3       4 UNK        -0.1875 
     32 C          23.6479  -26.3621  -39.3636 C.2       4 UNK         0.4949 
     33 O          24.8406  -26.0730  -39.2622 O.2       4 UNK        -0.5039 
     34 N          23.1688  -27.6099  -39.2603 N.am      5 UNK        -0.4663 
     35 CA         23.9114  -28.8460  -38.9649 C.3       5 UNK         0.0242 
     36 CB         24.5632  -28.7796  -37.5675 C.3       5 UNK        -0.1982 
     37 C          24.9148  -29.2704  -40.0582 C.2       5 UNK         0.5017 
     38 O          25.7785  -30.1082  -39.7921 O.2       5 UNK        -0.5012 
     39 N          24.7857  -28.7063  -41.2688 N.am      6 UNK        -0.4439 
     40 CA         25.7097  -28.8939  -42.3947 C.3       6 UNK         0.0297 
     41 CB         25.3792  -27.8862  -43.5065 C.3       6 UNK        -0.2006 
     42 C          25.7426  -30.3236  -42.9637 C.2       6 UNK         0.4892 
     43 O          26.7559  -30.7092  -43.5479 O.2       6 UNK        -0.5089 
     44 N          24.6562  -31.0814  -42.7748 N.am      7 UNK        -0.4243 
     45 CA         24.5537  -32.4988  -43.1199 C.3       7 UNK         0.0196 
     46 CB         23.7520  -32.6627  -44.4253 C.3       7 UNK        -0.2007 
     47 C          23.9408  -33.2463  -41.9290 C.2       7 UNK         0.5020 
     48 O          22.9680  -33.9840  -42.0955 O.2       7 UNK        -0.5147 
     49 N          24.4853  -32.9826  -40.7303 N.am      8 UNK        -0.4734 
     50 CA         24.0358  -33.4081  -39.3945 C.3       8 UNK         0.0238 
     51 CB         23.9962  -34.9427  -39.2522 C.3       8 UNK        -0.1912 
     52 C          22.7047  -32.7602  -38.9772 C.2       8 UNK         0.5038 
     53 O          22.6396  -32.1457  -37.9124 O.2       8 UNK        -0.5046 
     54 N          21.6907  -32.8698  -39.8414 N.am      9 UNK        -0.4200 
     55 CA         20.4585  -32.0763  -39.8106 C.3       9 UNK         0.0839 
     56 C          20.7523  -30.5969  -40.1996 C.2       9 UNK         0.5513 
     57 N          19.9830  -29.6608  -39.6656 N.am      9 UNK        -0.7519 
     58 O          21.6476  -30.3010  -40.9933 O.2       9 UNK        -0.4960 
     59 C59        19.3238  -32.7872  -40.6263 C.3       10 UNK        -0.0876 
     60 S60        18.5258  -31.8725  -41.9952 S.3       10 UNK        -0.2414 
     61 C61        19.7405  -32.1555  -43.3164 C.3       10 UNK         0.0169 
     62 H62        17.9195  -22.1741  -46.3947 H         1 UNK         0.0903 
     63 H63        19.3289  -22.9333  -47.1397 H         1 UNK         0.0903 
     64 H64        17.7402  -23.0919  -47.8915 H         1 UNK         0.0903 
     65 H65        16.8006  -25.0763  -47.5223 H         1 UNK         0.3096 
     66 H66        17.7716  -26.9476  -45.5935 H         1 UNK         0.1121 
     67 H67        16.9300  -27.5651  -47.8671 H         1 UNK         0.0849 
     68 H68        15.3347  -27.0246  -47.4503 H         1 UNK         0.0849 
     69 H69        16.7381  -31.1772  -47.2356 H         1 UNK         0.0865 
     70 H70        17.3482  -29.8308  -48.1514 H         1 UNK         0.0865 
     71 H71        17.6636  -31.7752  -45.0269 H         1 UNK         0.1346 
     72 H72        21.5520  -30.2528  -44.0642 H         1 UNK         0.1412 
     73 H73        19.3500  -28.5835  -47.3455 H         1 UNK         0.1426 
     74 H74        21.8780  -28.3823  -47.1566 H         1 UNK         0.0716 
     75 H75        22.6796  -28.8136  -45.6726 H         1 UNK         0.0716 
     76 H76        22.7669  -26.3091  -43.5035 H         1 UNK         0.0695 
     77 H77        22.0777  -27.9133  -43.4484 H         1 UNK         0.0695 
     78 H78        20.4702  -25.3247  -43.1229 H         1 UNK         0.0983 
     79 H79        19.5914  -28.0031  -43.5594 H         1 UNK         0.3095 
     80 H80        17.4297  -28.3395  -43.9305 H         1 UNK         0.0454 
     81 H81        15.8392  -29.2335  -42.2835 H         1 UNK         0.0851 
     82 H82        17.4343  -29.1137  -41.5589 H         1 UNK         0.0851 
     83 H83        16.2072  -27.9250  -41.1563 H         1 UNK         0.0851 
     84 H84        15.2843  -26.6205  -42.9293 H         1 UNK         0.2976 
     85 H85        22.3995  -24.8105  -41.7186 H         1 UNK         0.3116 
     86 H86        21.8140  -25.3538  -38.9208 H         1 UNK         0.0646 
     87 H87        22.4343  -23.0815  -39.6828 H         1 UNK         0.0847 
     88 H88        23.9929  -23.6678  -40.2643 H         1 UNK         0.0847 
     89 H89        23.6253  -23.6873  -38.5458 H         1 UNK         0.0847 
     90 H90        22.1756  -27.7282  -39.4422 H         1 UNK         0.3040 
     91 H91        23.1674  -29.6398  -38.9250 H         1 UNK         0.1015 
     92 H92        25.3867  -28.0657  -37.5359 H         1 UNK         0.0786 
     93 H93        24.9650  -29.7515  -37.2777 H         1 UNK         0.0786 
     94 H94        23.8386  -28.4933  -36.8052 H         1 UNK         0.0786 
     95 H95        24.0365  -28.0420  -41.3907 H         1 UNK         0.3172 
     96 H96        26.7129  -28.6698  -42.0260 H         1 UNK         0.0595 
     97 H97        24.4226  -28.1061  -43.9784 H         1 UNK         0.0839 
     98 H98        26.1358  -27.9174  -44.2919 H         1 UNK         0.0839 
     99 H99        25.3503  -26.8638  -43.1294 H         1 UNK         0.0839 
    100 H100       23.8774  -30.6900  -42.2589 H         1 UNK         0.2998 
    101 H101       25.5469  -32.9266  -43.2730 H         1 UNK         0.0822 
    102 H102       24.2106  -32.1085  -45.2443 H         1 UNK         0.0787 
    103 H103       23.7087  -33.7101  -44.7264 H         1 UNK         0.0787 
    104 H104       22.7262  -32.3136  -44.3174 H         1 UNK         0.0787 
    105 H105       25.2497  -32.3177  -40.7161 H         1 UNK         0.3055 
    106 H106       24.7909  -33.0366  -38.6989 H         1 UNK         0.1106 
    107 H107       23.2419  -35.3998  -39.8929 H         1 UNK         0.0828 
    108 H108       23.7618  -35.2292  -38.2262 H         1 UNK         0.0828 
    109 H109       24.9597  -35.3877  -39.5000 H         1 UNK         0.0828 
    110 H110       21.8934  -33.3528  -40.7126 H         1 UNK         0.2931 
    111 H111       20.1345  -32.0616  -38.7675 H         1 UNK         0.0412 
    112 H112       19.2360  -29.8911  -39.0309 H         1 UNK         0.3472 
    113 H113       20.1331  -28.6939  -39.9496 H         1 UNK         0.3472 
    114 H114       19.6653  -33.7449  -41.0237 H         1 UNK         0.0970 
    115 H115       18.5236  -33.0559  -39.9352 H         1 UNK         0.0970 
    116 H116       20.7456  -32.1395  -42.8931 H         1 UNK         0.0612 
    117 H117       19.5966  -33.1541  -43.7310 H         1 UNK         0.0612 
@<TRIPOS>BOND
     1    1    2 1    
     2    1   62 1    
     3    1   63 1    
     4    1   64 1    
     5    2    3 2    
     6    2    4 am   BACKBONE|DICT|INTERRES
     7    4    5 1    
     8    4   65 1    
     9    5    6 1    
    10    5   25 1    
    11    5   66 1    
    12    6    7 1    
    13    6   67 1    
    14    6   68 1    
    15    7    8 1    
    16    8    9 1    
    17    8   69 1    
    18    8   70 1    
    19    9   10 ar   
    20    9   14 ar   
    21   10   11 ar   
    22   10   71 1    
    23   11   12 ar   
    24   11   61 1    
    25   12   13 ar   
    26   12   72 1    
    27   13   14 ar   
    28   13   15 1    
    29   14   73 1    
    30   15   16 1    
    31   15   74 1    
    32   15   75 1    
    33   16   17 1    
    34   17   18 1    
    35   17   76 1    
    36   17   77 1    
    37   18   19 1    
    38   18   27 1    
    39   18   78 1    
    40   19   20 am   BACKBONE|DICT|INTERRES
    41   19   79 1    
    42   20   21 2    
    43   20   22 1    
    44   22   23 1    
    45   22   24 1    
    46   22   80 1    
    47   23   81 1    
    48   23   82 1    
    49   23   83 1    
    50   24   25 am   BACKBONE|DICT|INTERRES
    51   24   84 1    
    52   25   26 2    
    53   27   28 2    
    54   27   29 am   BACKBONE|DICT|INTERRES
    55   29   30 1    
    56   29   85 1    
    57   30   31 1    
    58   30   32 1    
    59   30   86 1    
    60   31   87 1    
    61   31   88 1    
    62   31   89 1    
    63   32   33 2    
    64   32   34 am   BACKBONE|DICT|INTERRES
    65   34   35 1    
    66   34   90 1    
    67   35   36 1    
    68   35   37 1    
    69   35   91 1    
    70   36   92 1    
    71   36   93 1    
    72   36   94 1    
    73   37   38 2    
    74   37   39 am   BACKBONE|DICT|INTERRES
    75   39   40 1    
    76   39   95 1    
    77   40   41 1    
    78   40   42 1    
    79   40   96 1    
    80   41   97 1    
    81   41   98 1    
    82   41   99 1    
    83   42   43 2    
    84   42   44 am   BACKBONE|DICT|INTERRES
    85   44   45 1    
    86   44  100 1    
    87   45   46 1    
    88   45   47 1    
    89   45  101 1    
    90   46  102 1    
    91   46  103 1    
    92   46  104 1    
    93   47   48 2    
    94   47   49 am   BACKBONE|DICT|INTERRES
    95   49   50 1    
    96   49  105 1    
    97   50   51 1    
    98   50   52 1    
    99   50  106 1    
   100   51  107 1    
   101   51  108 1    
   102   51  109 1    
   103   52   53 2    
   104   52   54 am   BACKBONE|DICT|INTERRES
   105   54   55 1    
   106   54  110 1    
   107   55   56 1    
   108   55   59 1    
   109   55  111 1    
   110   56   57 am   BACKBONE|DICT|INTERRES
   111   56   58 2    
   112   57  112 1    
   113   57  113 1    
   114   59   60 1    
   115   59  114 1    
   116   59  115 1    
   117   60   61 1    
   118   61  116 1    
   119   61  117 1    
@<TRIPOS>SUBSTRUCTURE
     1 UNK         1 GROUP             0       ****    0 ROOT    
