@<TRIPOS>MOLECULE
3R8
117   119    1
SMALL
USER_CHARGES


@<TRIPOS>ATOM
      1 CA         14.8551  -22.7552  -42.6658 C.3       0 UNK        -0.2013 
      2 C          15.6505  -23.0923  -43.9179 C.2       0 UNK         0.4866 
      3 O          15.9636  -22.1987  -44.7046 O.2       0 UNK        -0.5176 
      4 N          15.9817  -24.3759  -44.1095 N.am      1 UNK        -0.4884 
      5 CA         16.7556  -24.8835  -45.2506 C.3       1 UNK         0.0853 
      6 C6         16.5398  -26.4051  -45.4614 C.3       10 UNK        -0.0849 
      7 S7         16.8881  -27.4206  -43.9812 S.3       10 UNK        -0.2776 
      8 C8         16.4287  -29.0828  -44.5734 C.3       10 UNK         0.0316 
      9 C9         17.6549  -29.9512  -44.8189 C.ar      10 UNK        -0.0863 
     10 C10        17.9486  -31.0163  -43.9616 C.ar      10 UNK        -0.1009 
     11 C11        19.0797  -31.8120  -44.1719 C.ar      10 UNK        -0.0712 
     12 C12        19.9208  -31.5331  -45.2549 C.ar      10 UNK        -0.0894 
     13 C13        19.6279  -30.4835  -46.1316 C.ar      10 UNK        -0.0745 
     14 C14        18.4883  -29.7031  -45.9122 C.ar      10 UNK        -0.0972 
     15 C15        20.5187  -30.2185  -47.3392 C.3       10 UNK         0.0209 
     16 S16        22.0171  -29.2682  -46.9213 S.3       10 UNK        -0.2568 
     17 C17        21.3239  -27.6397  -46.4581 C.3       10 UNK        -0.0983 
     18 CA         21.7806  -27.0577  -45.0926 C.3       3 UNK         0.0876 
     19 N          21.0111  -25.8480  -44.7841 N.am      3 UNK        -0.4424 
     20 C          21.1521  -25.0337  -43.7313 C.2       2 UNK         0.4918 
     21 O          22.0004  -25.1930  -42.8538 O.2       2 UNK        -0.4875 
     22 CA         20.1473  -23.8720  -43.6034 C.3       2 UNK         0.0481 
     23 CB         20.6489  -22.6252  -44.3558 C.3       2 UNK        -0.1831 
     24 N          18.7617  -24.2090  -43.9756 N.am      2 UNK        -0.4498 
     25 C          18.2578  -24.5351  -45.1781 C.2       1 UNK         0.5027 
     26 O          18.9353  -24.6056  -46.2047 O.2       1 UNK        -0.4969 
     27 C          21.7769  -28.0802  -43.9322 C.2       3 UNK         0.5005 
     28 O          22.7978  -28.7320  -43.7085 O.2       3 UNK        -0.5279 
     29 N          20.6833  -28.1394  -43.1558 N.am      4 UNK        -0.4463 
     30 CA         20.5524  -28.9631  -41.9500 C.3       4 UNK         0.0283 
     31 CB         19.1696  -28.7454  -41.3177 C.3       4 UNK        -0.1875 
     32 C          21.6494  -28.7374  -40.8939 C.2       4 UNK         0.4949 
     33 O          22.0342  -29.6914  -40.2194 O.2       4 UNK        -0.5039 
     34 N          22.1582  -27.5009  -40.7853 N.am      5 UNK        -0.4663 
     35 CA         23.2537  -27.1470  -39.8788 C.3       5 UNK         0.0242 
     36 CB         23.2841  -25.6228  -39.6841 C.3       5 UNK        -0.1982 
     37 C          24.6226  -27.6568  -40.3628 C.2       5 UNK         0.5017 
     38 O          25.4948  -27.9048  -39.5301 O.2       5 UNK        -0.5012 
     39 N          24.7876  -27.8082  -41.6844 N.am      6 UNK        -0.4439 
     40 CA         25.9868  -28.3669  -42.3105 C.3       6 UNK         0.0297 
     41 CB         26.1440  -27.8002  -43.7314 C.3       6 UNK        -0.2006 
     42 C          25.9342  -29.9018  -42.3344 C.2       6 UNK         0.4892 
     43 O          26.9469  -30.5457  -42.0590 O.2       6 UNK        -0.5089 
     44 N          24.7541  -30.4557  -42.6484 N.am      7 UNK        -0.4243 
     45 CA         24.4756  -31.8931  -42.6599 C.3       7 UNK         0.0196 
     46 CB         23.1270  -32.1357  -43.3571 C.3       7 UNK        -0.2007 
     47 C          24.4739  -32.5236  -41.2564 C.2       7 UNK         0.5020 
     48 O          24.8035  -33.7030  -41.1311 O.2       7 UNK        -0.5147 
     49 N          24.0929  -31.7340  -40.2401 N.am      8 UNK        -0.4734 
     50 CA         23.9449  -32.0993  -38.8244 C.3       8 UNK         0.0238 
     51 CB         25.3044  -32.4867  -38.2042 C.3       8 UNK        -0.1912 
     52 C          22.8458  -33.1543  -38.5843 C.2       8 UNK         0.5038 
     53 O          22.9468  -33.9480  -37.6463 O.2       8 UNK        -0.5046 
     54 N          21.8194  -33.1440  -39.4425 N.am      9 UNK        -0.4200 
     55 CA         20.6346  -34.0056  -39.3679 C.3       9 UNK         0.0839 
     56 C          19.6551  -33.5988  -38.2311 C.2       9 UNK         0.5513 
     57 N          18.7838  -34.5086  -37.8159 N.am      9 UNK        -0.7519 
     58 O          19.6604  -32.4738  -37.7342 O.2       9 UNK        -0.4960 
     59 C59        19.9351  -34.1221  -40.7492 C.3       10 UNK        -0.0876 
     60 S60        19.5188  -32.5157  -41.5109 S.3       10 UNK        -0.2414 
     61 C61        19.3682  -32.9986  -43.2595 C.3       10 UNK         0.0169 
     62 H62        14.6483  -23.6394  -42.0631 H         1 UNK         0.0903 
     63 H63        15.4076  -22.0463  -42.0497 H         1 UNK         0.0903 
     64 H64        13.9029  -22.3005  -42.9378 H         1 UNK         0.0903 
     65 H65        15.6985  -25.0768  -43.4374 H         1 UNK         0.3096 
     66 H66        16.3831  -24.3806  -46.1464 H         1 UNK         0.1121 
     67 H67        15.5014  -26.5771  -45.7497 H         1 UNK         0.0849 
     68 H68        17.1395  -26.7694  -46.2976 H         1 UNK         0.0849 
     69 H69        15.7786  -29.5455  -43.8293 H         1 UNK         0.0865 
     70 H70        15.8369  -29.0171  -45.4875 H         1 UNK         0.0865 
     71 H71        17.2989  -31.2289  -43.1235 H         1 UNK         0.1346 
     72 H72        20.7956  -32.1437  -45.4306 H         1 UNK         0.1412 
     73 H73        18.2480  -28.8980  -46.5919 H         1 UNK         0.1426 
     74 H74        19.9647  -29.6909  -48.1172 H         1 UNK         0.0716 
     75 H75        20.8217  -31.1698  -47.7791 H         1 UNK         0.0716 
     76 H76        21.5891  -26.9387  -47.2510 H         1 UNK         0.0695 
     77 H77        20.2367  -27.6947  -46.4833 H         1 UNK         0.0695 
     78 H78        22.8200  -26.7422  -45.2044 H         1 UNK         0.0983 
     79 H79        20.2944  -25.5871  -45.4566 H         1 UNK         0.3095 
     80 H80        20.1067  -23.6156  -42.5435 H         1 UNK         0.0454 
     81 H81        21.6313  -22.3217  -43.9915 H         1 UNK         0.0851 
     82 H82        20.7437  -22.8017  -45.4275 H         1 UNK         0.0851 
     83 H83        19.9759  -21.7797  -44.2139 H         1 UNK         0.0851 
     84 H84        18.1060  -24.2195  -43.2066 H         1 UNK         0.2976 
     85 H85        19.8826  -27.5810  -43.4137 H         1 UNK         0.3116 
     86 H86        20.6257  -30.0002  -42.2753 H         1 UNK         0.0646 
     87 H87        19.0562  -29.3465  -40.4142 H         1 UNK         0.0847 
     88 H88        18.3714  -29.0422  -41.9949 H         1 UNK         0.0847 
     89 H89        19.0085  -27.7029  -41.0414 H         1 UNK         0.0847 
     90 H90        21.8273  -26.7727  -41.4085 H         1 UNK         0.3040 
     91 H91        23.0580  -27.6091  -38.9083 H         1 UNK         0.1015 
     92 H92        22.3313  -25.2506  -39.3073 H         1 UNK         0.0786 
     93 H93        23.5048  -25.1000  -40.6154 H         1 UNK         0.0786 
     94 H94        24.0513  -25.3382  -38.9626 H         1 UNK         0.0786 
     95 H95        23.9912  -27.6501  -42.2899 H         1 UNK         0.3172 
     96 H96        26.8643  -28.0673  -41.7332 H         1 UNK         0.0595 
     97 H97        27.0544  -28.1766  -44.1998 H         1 UNK         0.0839 
     98 H98        26.2128  -26.7124  -43.7188 H         1 UNK         0.0839 
     99 H99        25.3101  -28.0755  -44.3779 H         1 UNK         0.0839 
    100 H100       23.9920  -29.8415  -42.9337 H         1 UNK         0.2998 
    101 H101       25.2582  -32.3836  -43.2426 H         1 UNK         0.0822 
    102 H102       22.3069  -31.6530  -42.8250 H         1 UNK         0.0787 
    103 H103       23.1331  -31.7489  -44.3766 H         1 UNK         0.0787 
    104 H104       22.8999  -33.2010  -43.4125 H         1 UNK         0.0787 
    105 H105       23.7570  -30.8045  -40.4703 H         1 UNK         0.3055 
    106 H106       23.5994  -31.1966  -38.3175 H         1 UNK         0.1106 
    107 H107       25.6812  -33.4273  -38.6065 H         1 UNK         0.0828 
    108 H108       26.0557  -31.7181  -38.3861 H         1 UNK         0.0828 
    109 H109       25.2209  -32.6073  -37.1235 H         1 UNK         0.0828 
    110 H110       21.7886  -32.4167  -40.1427 H         1 UNK         0.2931 
    111 H111       20.9939  -35.0051  -39.1135 H         1 UNK         0.0412 
    112 H112       18.1335  -34.2655  -37.0846 H         1 UNK         0.3472 
    113 H113       18.7676  -35.4363  -38.2108 H         1 UNK         0.3472 
    114 H114       20.5949  -34.6633  -41.4291 H         1 UNK         0.0970 
    115 H115       19.0282  -34.7256  -40.6807 H         1 UNK         0.0970 
    116 H116       20.2858  -33.5022  -43.5670 H         1 UNK         0.0612 
    117 H117       18.5629  -33.7274  -43.3603 H         1 UNK         0.0612 
@<TRIPOS>BOND
     1    1    2 1    
     2    1   62 1    
     3    1   63 1    
     4    1   64 1    
     5    2    3 2    
     6    2    4 am   BACKBONE|DICT|INTERRES
     7    4    5 1    
     8    4   65 1    
     9    5    6 1    
    10    5   25 1    
    11    5   66 1    
    12    6    7 1    
    13    6   67 1    
    14    6   68 1    
    15    7    8 1    
    16    8    9 1    
    17    8   69 1    
    18    8   70 1    
    19    9   10 ar   
    20    9   14 ar   
    21   10   11 ar   
    22   10   71 1    
    23   11   12 ar   
    24   11   61 1    
    25   12   13 ar   
    26   12   72 1    
    27   13   14 ar   
    28   13   15 1    
    29   14   73 1    
    30   15   16 1    
    31   15   74 1    
    32   15   75 1    
    33   16   17 1    
    34   17   18 1    
    35   17   76 1    
    36   17   77 1    
    37   18   19 1    
    38   18   27 1    
    39   18   78 1    
    40   19   20 am   BACKBONE|DICT|INTERRES
    41   19   79 1    
    42   20   21 2    
    43   20   22 1    
    44   22   23 1    
    45   22   24 1    
    46   22   80 1    
    47   23   81 1    
    48   23   82 1    
    49   23   83 1    
    50   24   25 am   BACKBONE|DICT|INTERRES
    51   24   84 1    
    52   25   26 2    
    53   27   28 2    
    54   27   29 am   BACKBONE|DICT|INTERRES
    55   29   30 1    
    56   29   85 1    
    57   30   31 1    
    58   30   32 1    
    59   30   86 1    
    60   31   87 1    
    61   31   88 1    
    62   31   89 1    
    63   32   33 2    
    64   32   34 am   BACKBONE|DICT|INTERRES
    65   34   35 1    
    66   34   90 1    
    67   35   36 1    
    68   35   37 1    
    69   35   91 1    
    70   36   92 1    
    71   36   93 1    
    72   36   94 1    
    73   37   38 2    
    74   37   39 am   BACKBONE|DICT|INTERRES
    75   39   40 1    
    76   39   95 1    
    77   40   41 1    
    78   40   42 1    
    79   40   96 1    
    80   41   97 1    
    81   41   98 1    
    82   41   99 1    
    83   42   43 2    
    84   42   44 am   BACKBONE|DICT|INTERRES
    85   44   45 1    
    86   44  100 1    
    87   45   46 1    
    88   45   47 1    
    89   45  101 1    
    90   46  102 1    
    91   46  103 1    
    92   46  104 1    
    93   47   48 2    
    94   47   49 am   BACKBONE|DICT|INTERRES
    95   49   50 1    
    96   49  105 1    
    97   50   51 1    
    98   50   52 1    
    99   50  106 1    
   100   51  107 1    
   101   51  108 1    
   102   51  109 1    
   103   52   53 2    
   104   52   54 am   BACKBONE|DICT|INTERRES
   105   54   55 1    
   106   54  110 1    
   107   55   56 1    
   108   55   59 1    
   109   55  111 1    
   110   56   57 am   BACKBONE|DICT|INTERRES
   111   56   58 2    
   112   57  112 1    
   113   57  113 1    
   114   59   60 1    
   115   59  114 1    
   116   59  115 1    
   117   60   61 1    
   118   61  116 1    
   119   61  117 1    
@<TRIPOS>SUBSTRUCTURE
     1 UNK         1 GROUP             0       ****    0 ROOT    
