@<TRIPOS>MOLECULE
3R8
117   119    1
SMALL
USER_CHARGES


@<TRIPOS>ATOM
      1 CA         17.1382  -24.4517  -45.7427 C.3       0 UNK        -0.2013 
      2 C          15.6377  -24.6895  -45.6066 C.2       0 UNK         0.4866 
      3 O          14.8563  -23.7785  -45.8746 O.2       0 UNK        -0.5176 
      4 N          15.1804  -25.8856  -45.2132 N.am      1 UNK        -0.4884 
      5 CA         15.9735  -27.0510  -44.7981 C.3       1 UNK         0.0853 
      6 C6         15.1827  -28.3684  -45.0240 C.3       10 UNK        -0.0849 
      7 S7         15.2414  -28.8454  -46.7827 S.3       10 UNK        -0.2776 
      8 C8         16.4632  -30.2045  -46.7672 C.3       10 UNK         0.0316 
      9 C9         17.7868  -29.8209  -46.1101 C.ar      10 UNK        -0.0863 
     10 C10        18.2366  -30.5135  -44.9796 C.ar      10 UNK        -0.1009 
     11 C11        19.4551  -30.1775  -44.3828 C.ar      10 UNK        -0.0712 
     12 C12        20.2248  -29.1469  -44.9233 C.ar      10 UNK        -0.0894 
     13 C13        19.7787  -28.4286  -46.0340 C.ar      10 UNK        -0.0745 
     14 C14        18.5663  -28.7831  -46.6352 C.ar      10 UNK        -0.0972 
     15 C15        20.6119  -27.2812  -46.5888 C.3       10 UNK         0.0209 
     16 S16        20.4557  -25.7677  -45.5803 S.3       10 UNK        -0.2568 
     17 C17        21.6899  -26.0400  -44.2609 C.3       10 UNK        -0.0983 
     18 CA         21.0990  -26.0163  -42.8248 C.3       3 UNK         0.0876 
     19 N          19.9316  -26.8868  -42.6703 N.am      3 UNK        -0.4424 
     20 C          19.1496  -26.9577  -41.5830 C.2       2 UNK         0.4918 
     21 O          19.2948  -26.2518  -40.5838 O.2       2 UNK        -0.4875 
     22 CA         18.0061  -27.9871  -41.6473 C.3       2 UNK         0.0481 
     23 CB         17.0544  -27.9321  -40.4326 C.3       2 UNK        -0.1831 
     24 N          17.2809  -27.9118  -42.9214 N.am      2 UNK        -0.4498 
     25 C          16.4874  -26.9168  -43.3486 C.2       1 UNK         0.5027 
     26 O          16.1836  -25.9338  -42.6688 O.2       1 UNK        -0.4969 
     27 C          22.1902  -26.3997  -41.8057 C.2       3 UNK         0.5005 
     28 O          22.6546  -27.5443  -41.8231 O.2       3 UNK        -0.5279 
     29 N          22.6055  -25.4397  -40.9671 N.am      4 UNK        -0.4463 
     30 CA         23.6077  -25.6193  -39.9074 C.3       4 UNK         0.0283 
     31 CB         23.6565  -24.3537  -39.0364 C.3       4 UNK        -0.1875 
     32 C          25.0174  -25.9741  -40.4159 C.2       4 UNK         0.4949 
     33 O          25.8075  -26.5338  -39.6570 O.2       4 UNK        -0.5039 
     34 N          25.3031  -25.6641  -41.6881 N.am      5 UNK        -0.4663 
     35 CA         26.5265  -26.0630  -42.3877 C.3       5 UNK         0.0242 
     36 CB         26.6410  -25.2619  -43.6949 C.3       5 UNK        -0.1982 
     37 C          26.5948  -27.5749  -42.6764 C.2       5 UNK         0.5017 
     38 O          27.6985  -28.1035  -42.8147 O.2       5 UNK        -0.5012 
     39 N          25.4310  -28.2348  -42.7668 N.am      6 UNK        -0.4439 
     40 CA         25.3040  -29.6784  -42.9600 C.3       6 UNK         0.0297 
     41 CB         24.1890  -29.9650  -43.9774 C.3       6 UNK        -0.2006 
     42 C          25.0270  -30.3677  -41.6170 C.2       6 UNK         0.4892 
     43 O          25.7609  -31.2872  -41.2530 O.2       6 UNK        -0.5089 
     44 N          23.9948  -29.8904  -40.9025 N.am      7 UNK        -0.4243 
     45 CA         23.5380  -30.2601  -39.5541 C.3       7 UNK         0.0196 
     46 CB         24.5956  -29.8938  -38.4958 C.3       7 UNK        -0.2007 
     47 C          23.0642  -31.7143  -39.3641 C.2       7 UNK         0.5020 
     48 O          21.9990  -31.9223  -38.7833 O.2       7 UNK        -0.5147 
     49 N          23.8494  -32.6941  -39.8296 N.am      8 UNK        -0.4734 
     50 CA         23.6467  -34.1368  -39.6282 C.3       8 UNK         0.0238 
     51 CB         24.8560  -34.8974  -40.1955 C.3       8 UNK        -0.1912 
     52 C          22.3382  -34.6895  -40.2209 C.2       8 UNK         0.5038 
     53 O          21.8053  -35.6730  -39.7054 O.2       8 UNK        -0.5046 
     54 N          21.8446  -34.0356  -41.2761 N.am      9 UNK        -0.4200 
     55 CA         20.5271  -34.2486  -41.8900 C.3       9 UNK         0.0839 
     56 C          19.3200  -33.7683  -41.0302 C.2       9 UNK         0.5513 
     57 N          19.5122  -33.0279  -39.9444 N.am      9 UNK        -0.7519 
     58 O          18.1787  -34.0822  -41.3573 O.2       9 UNK        -0.4960 
     59 C59        20.4748  -33.6814  -43.3387 C.3       10 UNK        -0.0876 
     60 S60        21.2879  -32.0555  -43.5267 S.3       10 UNK        -0.2414 
     61 C61        19.9447  -30.8988  -43.1389 C.3       10 UNK         0.0169 
     62 H62        17.5660  -25.1060  -46.5015 H         1 UNK         0.0903 
     63 H63        17.3373  -23.4237  -46.0442 H         1 UNK         0.0903 
     64 H64        17.6516  -24.6212  -44.7970 H         1 UNK         0.0903 
     65 H65        14.1814  -26.0001  -45.1214 H         1 UNK         0.3096 
     66 H66        16.8730  -27.0835  -45.4123 H         1 UNK         0.1121 
     67 H67        15.5627  -29.2023  -44.4321 H         1 UNK         0.0849 
     68 H68        14.1407  -28.2540  -44.7202 H         1 UNK         0.0849 
     69 H69        16.0191  -31.0674  -46.2683 H         1 UNK         0.0865 
     70 H70        16.6560  -30.5162  -47.7946 H         1 UNK         0.0865 
     71 H71        17.6429  -31.3179  -44.5659 H         1 UNK         0.1346 
     72 H72        21.1729  -28.9059  -44.4672 H         1 UNK         0.1412 
     73 H73        18.2184  -28.2436  -47.5061 H         1 UNK         0.1426 
     74 H74        20.2929  -27.0480  -47.6058 H         1 UNK         0.0716 
     75 H75        21.6591  -27.5777  -46.6657 H         1 UNK         0.0716 
     76 H76        22.2270  -26.9694  -44.4533 H         1 UNK         0.0695 
     77 H77        22.4402  -25.2532  -44.3590 H         1 UNK         0.0695 
     78 H78        20.7635  -24.9979  -42.6171 H         1 UNK         0.0983 
     79 H79        19.7288  -27.4867  -43.4558 H         1 UNK         0.3095 
     80 H80        18.4786  -28.9681  -41.6261 H         1 UNK         0.0454 
     81 H81        17.5944  -28.1464  -39.5096 H         1 UNK         0.0851 
     82 H82        16.2568  -28.6696  -40.5188 H         1 UNK         0.0851 
     83 H83        16.5948  -26.9511  -40.3123 H         1 UNK         0.0851 
     84 H84        17.4734  -28.6681  -43.5651 H         1 UNK         0.2976 
     85 H85        22.1697  -24.5294  -41.0182 H         1 UNK         0.3116 
     86 H86        23.2765  -26.4512  -39.2817 H         1 UNK         0.0646 
     87 H87        23.9592  -23.4778  -39.6117 H         1 UNK         0.0847 
     88 H88        22.6866  -24.1429  -38.5855 H         1 UNK         0.0847 
     89 H89        24.3710  -24.4687  -38.2199 H         1 UNK         0.0847 
     90 H90        24.6058  -25.1726  -42.2274 H         1 UNK         0.3040 
     91 H91        27.3803  -25.8130  -41.7535 H         1 UNK         0.1015 
     92 H92        27.5581  -25.5158  -44.2284 H         1 UNK         0.0786 
     93 H93        26.6676  -24.1891  -43.5025 H         1 UNK         0.0786 
     94 H94        25.8065  -25.4635  -44.3680 H         1 UNK         0.0786 
     95 H95        24.5740  -27.7293  -42.5730 H         1 UNK         0.3172 
     96 H96        26.2322  -30.0879  -43.3644 H         1 UNK         0.0595 
     97 H97        23.2195  -29.6093  -43.6299 H         1 UNK         0.0839 
     98 H98        24.0988  -31.0362  -44.1611 H         1 UNK         0.0839 
     99 H99        24.3948  -29.4893  -44.9364 H         1 UNK         0.0839 
    100 H100       23.4600  -29.1301  -41.3192 H         1 UNK         0.2998 
    101 H101       22.6663  -29.6296  -39.3696 H         1 UNK         0.0822 
    102 H102       24.2306  -30.1034  -37.4894 H         1 UNK         0.0787 
    103 H103       24.8421  -28.8331  -38.5351 H         1 UNK         0.0787 
    104 H104       25.5198  -30.4567  -38.6302 H         1 UNK         0.0787 
    105 H105       24.6960  -32.4042  -40.3177 H         1 UNK         0.3055 
    106 H106       23.6047  -34.3121  -38.5509 H         1 UNK         0.1106 
    107 H107       25.7818  -34.5917  -39.7077 H         1 UNK         0.0828 
    108 H108       24.7505  -35.9724  -40.0420 H         1 UNK         0.0828 
    109 H109       24.9706  -34.7295  -41.2673 H         1 UNK         0.0828 
    110 H110       22.3534  -33.2340  -41.6195 H         1 UNK         0.2931 
    111 H111       20.3954  -35.3291  -41.9740 H         1 UNK         0.0412 
    112 H112       18.7131  -32.7387  -39.4037 H         1 UNK         0.3472 
    113 H113       20.4427  -32.7541  -39.6457 H         1 UNK         0.3472 
    114 H114       21.0001  -34.3706  -44.0012 H         1 UNK         0.0970 
    115 H115       19.4553  -33.6373  -43.7276 H         1 UNK         0.0970 
    116 H116       20.3295  -30.1701  -42.4241 H         1 UNK         0.0612 
    117 H117       19.1203  -31.4085  -42.6403 H         1 UNK         0.0612 
@<TRIPOS>BOND
     1    1    2 1    
     2    1   62 1    
     3    1   63 1    
     4    1   64 1    
     5    2    3 2    
     6    2    4 am   BACKBONE|DICT|INTERRES
     7    4    5 1    
     8    4   65 1    
     9    5    6 1    
    10    5   25 1    
    11    5   66 1    
    12    6    7 1    
    13    6   67 1    
    14    6   68 1    
    15    7    8 1    
    16    8    9 1    
    17    8   69 1    
    18    8   70 1    
    19    9   10 ar   
    20    9   14 ar   
    21   10   11 ar   
    22   10   71 1    
    23   11   12 ar   
    24   11   61 1    
    25   12   13 ar   
    26   12   72 1    
    27   13   14 ar   
    28   13   15 1    
    29   14   73 1    
    30   15   16 1    
    31   15   74 1    
    32   15   75 1    
    33   16   17 1    
    34   17   18 1    
    35   17   76 1    
    36   17   77 1    
    37   18   19 1    
    38   18   27 1    
    39   18   78 1    
    40   19   20 am   BACKBONE|DICT|INTERRES
    41   19   79 1    
    42   20   21 2    
    43   20   22 1    
    44   22   23 1    
    45   22   24 1    
    46   22   80 1    
    47   23   81 1    
    48   23   82 1    
    49   23   83 1    
    50   24   25 am   BACKBONE|DICT|INTERRES
    51   24   84 1    
    52   25   26 2    
    53   27   28 2    
    54   27   29 am   BACKBONE|DICT|INTERRES
    55   29   30 1    
    56   29   85 1    
    57   30   31 1    
    58   30   32 1    
    59   30   86 1    
    60   31   87 1    
    61   31   88 1    
    62   31   89 1    
    63   32   33 2    
    64   32   34 am   BACKBONE|DICT|INTERRES
    65   34   35 1    
    66   34   90 1    
    67   35   36 1    
    68   35   37 1    
    69   35   91 1    
    70   36   92 1    
    71   36   93 1    
    72   36   94 1    
    73   37   38 2    
    74   37   39 am   BACKBONE|DICT|INTERRES
    75   39   40 1    
    76   39   95 1    
    77   40   41 1    
    78   40   42 1    
    79   40   96 1    
    80   41   97 1    
    81   41   98 1    
    82   41   99 1    
    83   42   43 2    
    84   42   44 am   BACKBONE|DICT|INTERRES
    85   44   45 1    
    86   44  100 1    
    87   45   46 1    
    88   45   47 1    
    89   45  101 1    
    90   46  102 1    
    91   46  103 1    
    92   46  104 1    
    93   47   48 2    
    94   47   49 am   BACKBONE|DICT|INTERRES
    95   49   50 1    
    96   49  105 1    
    97   50   51 1    
    98   50   52 1    
    99   50  106 1    
   100   51  107 1    
   101   51  108 1    
   102   51  109 1    
   103   52   53 2    
   104   52   54 am   BACKBONE|DICT|INTERRES
   105   54   55 1    
   106   54  110 1    
   107   55   56 1    
   108   55   59 1    
   109   55  111 1    
   110   56   57 am   BACKBONE|DICT|INTERRES
   111   56   58 2    
   112   57  112 1    
   113   57  113 1    
   114   59   60 1    
   115   59  114 1    
   116   59  115 1    
   117   60   61 1    
   118   61  116 1    
   119   61  117 1    
@<TRIPOS>SUBSTRUCTURE
     1 UNK         1 GROUP             0       ****    0 ROOT    
