@<TRIPOS>MOLECULE
3R8
117   119    1
SMALL
USER_CHARGES


@<TRIPOS>ATOM
      1 CA         14.8090  -22.6031  -41.7016 C.3       0 UNK        -0.2013 
      2 C          15.3589  -22.8139  -43.1041 C.2       0 UNK         0.4866 
      3 O          15.4069  -21.8693  -43.8922 O.2       0 UNK        -0.5176 
      4 N          15.7757  -24.0463  -43.4227 N.am      1 UNK        -0.4884 
      5 CA         16.3460  -24.4332  -44.7207 C.3       1 UNK         0.0853 
      6 C6         16.2354  -25.9593  -44.9683 C.3       10 UNK        -0.0849 
      7 S7         16.9112  -26.9961  -43.6219 S.3       10 UNK        -0.2776 
      8 C8         16.3511  -28.6480  -44.1610 C.3       10 UNK         0.0316 
      9 C9         17.5160  -29.5247  -44.5983 C.ar      10 UNK        -0.0863 
     10 C10        17.7531  -30.7470  -43.9633 C.ar      10 UNK        -0.1009 
     11 C11        18.8431  -31.5422  -44.3316 C.ar      10 UNK        -0.0712 
     12 C12        19.6956  -31.1064  -45.3525 C.ar      10 UNK        -0.0894 
     13 C13        19.4658  -29.8880  -46.0002 C.ar      10 UNK        -0.0745 
     14 C14        18.3594  -29.1165  -45.6350 C.ar      10 UNK        -0.0972 
     15 C15        20.4043  -29.4096  -47.1006 C.3       10 UNK         0.0209 
     16 S16        21.8538  -28.5176  -46.4417 S.3       10 UNK        -0.2568 
     17 C17        21.1360  -26.9086  -45.9376 C.3       10 UNK        -0.0983 
     18 CA         21.6515  -26.3164  -44.5929 C.3       3 UNK         0.0876 
     19 N          20.7872  -25.2497  -44.1004 N.am      3 UNK        -0.4424 
     20 C          20.8949  -23.9608  -44.4360 C.2       2 UNK         0.4918 
     21 O          21.7556  -23.5206  -45.2005 O.2       2 UNK        -0.4875 
     22 CA         19.8498  -23.0148  -43.8093 C.3       2 UNK         0.0481 
     23 CB         19.8865  -21.5949  -44.4131 C.3       2 UNK        -0.1831 
     24 N          18.4852  -23.5594  -43.8513 N.am      2 UNK        -0.4498 
     25 C          17.7857  -23.9191  -44.9416 C.2       1 UNK         0.5027 
     26 O          18.2226  -23.8555  -46.0917 O.2       1 UNK        -0.4969 
     27 C          21.8243  -27.3186  -43.4445 C.2       3 UNK         0.5005 
     28 O          22.8876  -27.3492  -42.8213 O.2       3 UNK        -0.5279 
     29 N          20.7861  -28.1313  -43.1920 N.am      4 UNK        -0.4463 
     30 CA         20.7455  -29.2076  -42.1913 C.3       4 UNK         0.0283 
     31 CB         20.6857  -28.6196  -40.7669 C.3       4 UNK        -0.1875 
     32 C          21.8694  -30.2557  -42.3583 C.2       4 UNK         0.4949 
     33 O          22.2985  -30.8575  -41.3724 O.2       4 UNK        -0.5039 
     34 N          22.3512  -30.4285  -43.5993 N.am      5 UNK        -0.4663 
     35 CA         23.5122  -31.2339  -43.9984 C.3       5 UNK         0.0242 
     36 CB         23.2217  -32.7391  -43.8132 C.3       5 UNK        -0.1982 
     37 C          24.8179  -30.7712  -43.3160 C.2       5 UNK         0.5017 
     38 O          25.6560  -31.6038  -42.9713 O.2       5 UNK        -0.5012 
     39 N          24.9477  -29.4478  -43.1237 N.am      6 UNK        -0.4439 
     40 CA         25.9767  -28.7533  -42.3406 C.3       6 UNK         0.0297 
     41 CB         27.3958  -29.0018  -42.8970 C.3       6 UNK        -0.2006 
     42 C          25.8376  -29.0571  -40.8364 C.2       6 UNK         0.4892 
     43 O          26.8314  -29.3513  -40.1698 O.2       6 UNK        -0.5089 
     44 N          24.5898  -28.9743  -40.3467 N.am      7 UNK        -0.4243 
     45 CA         24.1389  -29.2603  -38.9780 C.3       7 UNK         0.0196 
     46 CB         24.6788  -28.2005  -37.9943 C.3       7 UNK        -0.2007 
     47 C          24.4429  -30.7073  -38.5415 C.2       7 UNK         0.5020 
     48 O          24.9874  -30.9236  -37.4569 O.2       7 UNK        -0.5147 
     49 N          24.0924  -31.6688  -39.4042 N.am      8 UNK        -0.4734 
     50 CA         24.3483  -33.0973  -39.2117 C.3       8 UNK         0.0238 
     51 CB         25.2889  -33.6030  -40.3165 C.3       8 UNK        -0.1912 
     52 C          23.0640  -33.9374  -39.1800 C.2       8 UNK         0.5038 
     53 O          23.0490  -34.9389  -38.4625 O.2       8 UNK        -0.5046 
     54 N          22.0205  -33.5515  -39.9335 N.am      9 UNK        -0.4200 
     55 CA         20.7401  -34.2882  -39.9660 C.3       9 UNK         0.0839 
     56 C          19.7653  -33.9508  -38.7990 C.2       9 UNK         0.5513 
     57 N          20.0571  -32.9719  -37.9503 N.am      9 UNK        -0.7519 
     58 O          18.7357  -34.6043  -38.6496 O.2       9 UNK        -0.4960 
     59 C59        20.0592  -34.2530  -41.3614 C.3       10 UNK        -0.0876 
     60 S60        19.4128  -32.6200  -41.8416 S.3       10 UNK        -0.2414 
     61 C61        19.1020  -32.8642  -43.6191 C.3       10 UNK         0.0169 
     62 H62        15.3997  -21.8536  -41.1756 H         1 UNK         0.0903 
     63 H63        13.7789  -22.2515  -41.7518 H         1 UNK         0.0903 
     64 H64        14.8253  -23.5212  -41.1145 H         1 UNK         0.0903 
     65 H65        15.7126  -24.7929  -42.7432 H         1 UNK         0.3096 
     66 H66        15.7469  -23.9448  -45.4933 H         1 UNK         0.1121 
     67 H67        15.1811  -26.2137  -45.0891 H         1 UNK         0.0849 
     68 H68        16.7115  -26.2367  -45.9108 H         1 UNK         0.0849 
     69 H69        15.8114  -29.1111  -43.3335 H         1 UNK         0.0865 
     70 H70        15.6360  -28.5698  -44.9808 H         1 UNK         0.0865 
     71 H71        17.1017  -31.0775  -43.1656 H         1 UNK         0.1346 
     72 H72        20.5450  -31.7112  -45.6392 H         1 UNK         0.1412 
     73 H73        18.1604  -28.1845  -46.1447 H         1 UNK         0.1426 
     74 H74        19.8738  -28.7694  -47.8075 H         1 UNK         0.0716 
     75 H75        20.7553  -30.2672  -47.6765 H         1 UNK         0.0716 
     76 H76        20.0520  -26.9964  -45.9019 H         1 UNK         0.0695 
     77 H77        21.3321  -26.1946  -46.7390 H         1 UNK         0.0695 
     78 H78        22.6482  -25.9081  -44.7779 H         1 UNK         0.0983 
     79 H79        20.0744  -25.5214  -43.4378 H         1 UNK         0.3095 
     80 H80        20.1122  -22.9283  -42.7540 H         1 UNK         0.0454 
     81 H81        20.8666  -21.1366  -44.2760 H         1 UNK         0.0851 
     82 H82        19.1554  -20.9421  -43.9364 H         1 UNK         0.0851 
     83 H83        19.6796  -21.6038  -45.4837 H         1 UNK         0.0851 
     84 H84        18.0224  -23.6622  -42.9588 H         1 UNK         0.2976 
     85 H85        19.9672  -28.0646  -43.7825 H         1 UNK         0.3116 
     86 H86        19.8100  -29.7384  -42.3562 H         1 UNK         0.0646 
     87 H87        21.5820  -28.0500  -40.5234 H         1 UNK         0.0847 
     88 H88        19.8291  -27.9556  -40.6532 H         1 UNK         0.0847 
     89 H89        20.5803  -29.4071  -40.0195 H         1 UNK         0.0847 
     90 H90        21.9222  -29.8874  -44.3393 H         1 UNK         0.3040 
     91 H91        23.6592  -31.0581  -45.0654 H         1 UNK         0.1015 
     92 H92        24.0585  -33.3481  -44.1571 H         1 UNK         0.0786 
     93 H93        23.0386  -32.9952  -42.7704 H         1 UNK         0.0786 
     94 H94        22.3481  -33.0440  -44.3874 H         1 UNK         0.0786 
     95 H95        24.1695  -28.8579  -43.3999 H         1 UNK         0.3172 
     96 H96        25.7689  -27.6880  -42.4532 H         1 UNK         0.0595 
     97 H97        27.7215  -30.0312  -42.7459 H         1 UNK         0.0839 
     98 H98        28.1234  -28.3599  -42.3992 H         1 UNK         0.0839 
     99 H99        27.4485  -28.7849  -43.9637 H         1 UNK         0.0839 
    100 H100       23.8575  -28.7353  -41.0024 H         1 UNK         0.2998 
    101 H101       23.0521  -29.1751  -38.9848 H         1 UNK         0.0822 
    102 H102       24.2622  -28.3454  -36.9968 H         1 UNK         0.0787 
    103 H103       24.4124  -27.1926  -38.3124 H         1 UNK         0.0787 
    104 H104       25.7645  -28.2476  -37.9029 H         1 UNK         0.0787 
    105 H105       23.5948  -31.3931  -40.2501 H         1 UNK         0.3055 
    106 H106       24.8491  -33.2613  -38.2548 H         1 UNK         0.1106 
    107 H107       26.2145  -33.0275  -40.3435 H         1 UNK         0.0828 
    108 H108       25.5587  -34.6471  -40.1525 H         1 UNK         0.0828 
    109 H109       24.8284  -33.5375  -41.3015 H         1 UNK         0.0828 
    110 H110       22.0656  -32.6970  -40.4776 H         1 UNK         0.2931 
    111 H111       20.9793  -35.3423  -39.8113 H         1 UNK         0.0412 
    112 H112       19.4232  -32.7667  -37.1940 H         1 UNK         0.3472 
    113 H113       20.9003  -32.4337  -38.0656 H         1 UNK         0.3472 
    114 H114       20.7712  -34.5867  -42.1177 H         1 UNK         0.0970 
    115 H115       19.2353  -34.9682  -41.3956 H         1 UNK         0.0970 
    116 H116       19.9541  -33.3771  -44.0664 H         1 UNK         0.0612 
    117 H117       18.2400  -33.5203  -43.7465 H         1 UNK         0.0612 
@<TRIPOS>BOND
     1    1    2 1    
     2    1   62 1    
     3    1   63 1    
     4    1   64 1    
     5    2    3 2    
     6    2    4 am   BACKBONE|DICT|INTERRES
     7    4    5 1    
     8    4   65 1    
     9    5    6 1    
    10    5   25 1    
    11    5   66 1    
    12    6    7 1    
    13    6   67 1    
    14    6   68 1    
    15    7    8 1    
    16    8    9 1    
    17    8   69 1    
    18    8   70 1    
    19    9   10 ar   
    20    9   14 ar   
    21   10   11 ar   
    22   10   71 1    
    23   11   12 ar   
    24   11   61 1    
    25   12   13 ar   
    26   12   72 1    
    27   13   14 ar   
    28   13   15 1    
    29   14   73 1    
    30   15   16 1    
    31   15   74 1    
    32   15   75 1    
    33   16   17 1    
    34   17   18 1    
    35   17   76 1    
    36   17   77 1    
    37   18   19 1    
    38   18   27 1    
    39   18   78 1    
    40   19   20 am   BACKBONE|DICT|INTERRES
    41   19   79 1    
    42   20   21 2    
    43   20   22 1    
    44   22   23 1    
    45   22   24 1    
    46   22   80 1    
    47   23   81 1    
    48   23   82 1    
    49   23   83 1    
    50   24   25 am   BACKBONE|DICT|INTERRES
    51   24   84 1    
    52   25   26 2    
    53   27   28 2    
    54   27   29 am   BACKBONE|DICT|INTERRES
    55   29   30 1    
    56   29   85 1    
    57   30   31 1    
    58   30   32 1    
    59   30   86 1    
    60   31   87 1    
    61   31   88 1    
    62   31   89 1    
    63   32   33 2    
    64   32   34 am   BACKBONE|DICT|INTERRES
    65   34   35 1    
    66   34   90 1    
    67   35   36 1    
    68   35   37 1    
    69   35   91 1    
    70   36   92 1    
    71   36   93 1    
    72   36   94 1    
    73   37   38 2    
    74   37   39 am   BACKBONE|DICT|INTERRES
    75   39   40 1    
    76   39   95 1    
    77   40   41 1    
    78   40   42 1    
    79   40   96 1    
    80   41   97 1    
    81   41   98 1    
    82   41   99 1    
    83   42   43 2    
    84   42   44 am   BACKBONE|DICT|INTERRES
    85   44   45 1    
    86   44  100 1    
    87   45   46 1    
    88   45   47 1    
    89   45  101 1    
    90   46  102 1    
    91   46  103 1    
    92   46  104 1    
    93   47   48 2    
    94   47   49 am   BACKBONE|DICT|INTERRES
    95   49   50 1    
    96   49  105 1    
    97   50   51 1    
    98   50   52 1    
    99   50  106 1    
   100   51  107 1    
   101   51  108 1    
   102   51  109 1    
   103   52   53 2    
   104   52   54 am   BACKBONE|DICT|INTERRES
   105   54   55 1    
   106   54  110 1    
   107   55   56 1    
   108   55   59 1    
   109   55  111 1    
   110   56   57 am   BACKBONE|DICT|INTERRES
   111   56   58 2    
   112   57  112 1    
   113   57  113 1    
   114   59   60 1    
   115   59  114 1    
   116   59  115 1    
   117   60   61 1    
   118   61  116 1    
   119   61  117 1    
@<TRIPOS>SUBSTRUCTURE
     1 UNK         1 GROUP             0       ****    0 ROOT    
