@<TRIPOS>MOLECULE
3R8
117   119    1
SMALL
USER_CHARGES


@<TRIPOS>ATOM
      1 CA         15.4824  -23.4272  -40.0094 C.3       0 UNK        -0.2013 
      2 C          16.0394  -23.9528  -41.3241 C.2       0 UNK         0.4866 
      3 O          16.7814  -23.2414  -42.0023 O.2       0 UNK        -0.5176 
      4 N          15.6812  -25.1890  -41.6936 N.am      1 UNK        -0.4884 
      5 CA         16.1835  -25.8807  -42.8850 C.3       1 UNK         0.0853 
      6 C6         15.2619  -27.0653  -43.2649 C.3       10 UNK        -0.0849 
      7 S7         15.3813  -27.5132  -45.0302 S.3       10 UNK        -0.2776 
      8 C8         15.6044  -29.3189  -44.9488 C.3       10 UNK         0.0316 
      9 C9         17.0697  -29.7082  -44.8196 C.ar      10 UNK        -0.0863 
     10 C10        17.6723  -29.8066  -43.5626 C.ar      10 UNK        -0.1009 
     11 C11        19.0116  -30.1878  -43.4459 C.ar      10 UNK        -0.0712 
     12 C12        19.7507  -30.4794  -44.5967 C.ar      10 UNK        -0.0894 
     13 C13        19.1539  -30.4007  -45.8579 C.ar      10 UNK        -0.0745 
     14 C14        17.8170  -30.0054  -45.9632 C.ar      10 UNK        -0.0972 
     15 C15        19.9309  -30.7839  -47.1079 C.3       10 UNK         0.0209 
     16 S16        20.5509  -29.3277  -48.0029 S.3       10 UNK        -0.2568 
     17 C17        22.1327  -28.9925  -47.1609 C.3       10 UNK        -0.0983 
     18 CA         22.1915  -27.5501  -46.5984 C.3       3 UNK         0.0876 
     19 N          21.4706  -27.4111  -45.3344 N.am      3 UNK        -0.4424 
     20 C          20.3519  -26.7035  -45.1647 C.2       2 UNK         0.4918 
     21 O          19.7285  -26.1536  -46.0767 O.2       2 UNK        -0.4875 
     22 CA         19.8918  -26.5190  -43.7159 C.3       2 UNK         0.0481 
     23 CB         20.6844  -25.3816  -43.0413 C.3       2 UNK        -0.1831 
     24 N          18.4693  -26.1979  -43.7124 N.am      2 UNK        -0.4498 
     25 C          17.6454  -26.3252  -42.6684 C.2       1 UNK         0.5027 
     26 O          17.9899  -26.7720  -41.5706 O.2       1 UNK        -0.4969 
     27 C          23.6228  -27.0902  -46.2948 C.2       3 UNK         0.5005 
     28 O          24.4980  -27.9216  -46.0476 O.2       3 UNK        -0.5279 
     29 N          23.8021  -25.7627  -46.2024 N.am      4 UNK        -0.4463 
     30 CA         24.9905  -25.0178  -45.7489 C.3       4 UNK         0.0283 
     31 CB         26.2407  -25.3516  -46.5865 C.3       4 UNK        -0.1875 
     32 C          25.2751  -25.1545  -44.2399 C.2       4 UNK         0.4949 
     33 O          25.6615  -24.1709  -43.6087 O.2       4 UNK        -0.5039 
     34 N          25.0458  -26.3469  -43.6864 N.am      5 UNK        -0.4663 
     35 CA         25.0674  -26.6715  -42.2661 C.3       5 UNK         0.0242 
     36 CB         26.3686  -27.4298  -41.9482 C.3       5 UNK        -0.1982 
     37 C          23.8320  -27.5212  -41.9311 C.2       5 UNK         0.5017 
     38 O          23.1261  -27.9799  -42.8372 O.2       5 UNK        -0.5012 
     39 N          23.6037  -27.7190  -40.6288 N.am      6 UNK        -0.4439 
     40 CA         22.5311  -28.5469  -40.0788 C.3       6 UNK         0.0297 
     41 CB         21.2466  -27.7134  -39.9024 C.3       6 UNK        -0.2006 
     42 C          22.9939  -29.2372  -38.7868 C.2       6 UNK         0.4892 
     43 O          22.2397  -29.2960  -37.8146 O.2       6 UNK        -0.5089 
     44 N          24.2368  -29.7431  -38.7947 N.am      7 UNK        -0.4243 
     45 CA         24.8226  -30.5148  -37.6924 C.3       7 UNK         0.0196 
     46 CB         26.3360  -30.6668  -37.9170 C.3       7 UNK        -0.2007 
     47 C          24.1544  -31.8909  -37.5250 C.2       7 UNK         0.5020 
     48 O          23.9398  -32.3323  -36.3959 O.2       7 UNK        -0.5147 
     49 N          23.8114  -32.5211  -38.6531 N.am      8 UNK        -0.4734 
     50 CA         23.0297  -33.7475  -38.7537 C.3       8 UNK         0.0238 
     51 CB         23.9004  -34.9773  -38.4344 C.3       8 UNK        -0.1912 
     52 C          22.4776  -33.8192  -40.1807 C.2       8 UNK         0.5038 
     53 O          23.2054  -33.4883  -41.1209 O.2       8 UNK        -0.5046 
     54 N          21.2206  -34.2475  -40.3183 N.am      9 UNK        -0.4200 
     55 CA         20.5126  -34.3935  -41.6003 C.3       9 UNK         0.0839 
     56 C          19.2929  -35.3577  -41.5269 C.2       9 UNK         0.5513 
     57 N          19.1466  -36.1665  -40.4824 N.am      9 UNK        -0.7519 
     58 O          18.4743  -35.3992  -42.4417 O.2       9 UNK        -0.4960 
     59 C59        20.2002  -33.0324  -42.2894 C.3       10 UNK        -0.0876 
     60 S60        19.2671  -31.8575  -41.2475 S.3       10 UNK        -0.2414 
     61 C61        19.6565  -30.2824  -42.0729 C.3       10 UNK         0.0169 
     62 H62        14.9083  -22.5172  -40.1820 H         1 UNK         0.0903 
     63 H63        14.8299  -24.1522  -39.5231 H         1 UNK         0.0903 
     64 H64        16.2970  -23.1917  -39.3250 H         1 UNK         0.0903 
     65 H65        15.1006  -25.7404  -41.0777 H         1 UNK         0.3096 
     66 H66        16.1643  -25.1559  -43.7029 H         1 UNK         0.1121 
     67 H67        14.2192  -26.7920  -43.0940 H         1 UNK         0.0849 
     68 H68        15.4438  -27.9291  -42.6236 H         1 UNK         0.0849 
     69 H69        15.0230  -29.7370  -44.1255 H         1 UNK         0.0865 
     70 H70        15.1870  -29.7585  -45.8560 H         1 UNK         0.0865 
     71 H71        17.1028  -29.5905  -42.6697 H         1 UNK         0.1346 
     72 H72        20.7853  -30.7812  -44.5099 H         1 UNK         0.1412 
     73 H73        17.3552  -29.9416  -46.9392 H         1 UNK         0.1426 
     74 H74        19.2764  -31.3457  -47.7760 H         1 UNK         0.0716 
     75 H75        20.7558  -31.4558  -46.8661 H         1 UNK         0.0716 
     76 H76        22.9168  -29.1485  -47.9044 H         1 UNK         0.0695 
     77 H77        22.3144  -29.7246  -46.3721 H         1 UNK         0.0695 
     78 H78        21.7944  -26.8685  -47.3545 H         1 UNK         0.0983 
     79 H79        21.9525  -27.7728  -44.5154 H         1 UNK         0.3095 
     80 H80        20.0541  -27.4549  -43.1783 H         1 UNK         0.0454 
     81 H81        21.7551  -25.5854  -43.0486 H         1 UNK         0.0851 
     82 H82        20.3888  -25.2480  -42.0010 H         1 UNK         0.0851 
     83 H83        20.5323  -24.4304  -43.5527 H         1 UNK         0.0851 
     84 H84        18.1133  -25.8912  -44.6099 H         1 UNK         0.2976 
     85 H85        22.9937  -25.1815  -46.3805 H         1 UNK         0.3116 
     86 H86        24.7566  -23.9664  -45.9239 H         1 UNK         0.0646 
     87 H87        26.5799  -26.3758  -46.4296 H         1 UNK         0.0847 
     88 H88        26.0529  -25.2188  -47.6518 H         1 UNK         0.0847 
     89 H89        27.0703  -24.6958  -46.3194 H         1 UNK         0.0847 
     90 H90        24.7225  -27.0944  -44.2956 H         1 UNK         0.3040 
     91 H91        25.0193  -25.7558  -41.6723 H         1 UNK         0.1015 
     92 H92        26.4481  -27.6603  -40.8853 H         1 UNK         0.0786 
     93 H93        27.2441  -26.8363  -42.2129 H         1 UNK         0.0786 
     94 H94        26.4286  -28.3721  -42.4947 H         1 UNK         0.0786 
     95 H95        24.2267  -27.2999  -39.9507 H         1 UNK         0.3172 
     96 H96        22.3203  -29.3588  -40.7753 H         1 UNK         0.0595 
     97 H97        21.4043  -26.8671  -39.2333 H         1 UNK         0.0839 
     98 H98        20.4378  -28.3150  -39.4858 H         1 UNK         0.0839 
     99 H99        20.8926  -27.3270  -40.8565 H         1 UNK         0.0839 
    100 H100       24.7893  -29.6546  -39.6353 H         1 UNK         0.2998 
    101 H101       24.6690  -29.9563  -36.7662 H         1 UNK         0.0822 
    102 H102       26.7965  -31.2217  -37.0983 H         1 UNK         0.0787 
    103 H103       26.8295  -29.6959  -37.9660 H         1 UNK         0.0787 
    104 H104       26.5583  -31.2043  -38.8398 H         1 UNK         0.0787 
    105 H105       24.0218  -32.0923  -39.5458 H         1 UNK         0.3055 
    106 H106       22.1981  -33.6940  -38.0472 H         1 UNK         0.1106 
    107 H107       24.2786  -34.9458  -37.4126 H         1 UNK         0.0828 
    108 H108       23.3269  -35.8994  -38.5373 H         1 UNK         0.0828 
    109 H109       24.7570  -35.0482  -39.1059 H         1 UNK         0.0828 
    110 H110       20.6729  -34.4648  -39.4987 H         1 UNK         0.2931 
    111 H111       21.2008  -34.9202  -42.2642 H         1 UNK         0.0412 
    112 H112       19.8388  -36.2226  -39.7536 H         1 UNK         0.3472 
    113 H113       18.3518  -36.7868  -40.4602 H         1 UNK         0.3472 
    114 H114       21.1380  -32.5594  -42.5829 H         1 UNK         0.0970 
    115 H115       19.6536  -33.1838  -43.2220 H         1 UNK         0.0970 
    116 H116       20.7370  -30.1687  -42.1564 H         1 UNK         0.0612 
    117 H117       19.3059  -29.4590  -41.4492 H         1 UNK         0.0612 
@<TRIPOS>BOND
     1    1    2 1    
     2    1   62 1    
     3    1   63 1    
     4    1   64 1    
     5    2    3 2    
     6    2    4 am   BACKBONE|DICT|INTERRES
     7    4    5 1    
     8    4   65 1    
     9    5    6 1    
    10    5   25 1    
    11    5   66 1    
    12    6    7 1    
    13    6   67 1    
    14    6   68 1    
    15    7    8 1    
    16    8    9 1    
    17    8   69 1    
    18    8   70 1    
    19    9   10 ar   
    20    9   14 ar   
    21   10   11 ar   
    22   10   71 1    
    23   11   12 ar   
    24   11   61 1    
    25   12   13 ar   
    26   12   72 1    
    27   13   14 ar   
    28   13   15 1    
    29   14   73 1    
    30   15   16 1    
    31   15   74 1    
    32   15   75 1    
    33   16   17 1    
    34   17   18 1    
    35   17   76 1    
    36   17   77 1    
    37   18   19 1    
    38   18   27 1    
    39   18   78 1    
    40   19   20 am   BACKBONE|DICT|INTERRES
    41   19   79 1    
    42   20   21 2    
    43   20   22 1    
    44   22   23 1    
    45   22   24 1    
    46   22   80 1    
    47   23   81 1    
    48   23   82 1    
    49   23   83 1    
    50   24   25 am   BACKBONE|DICT|INTERRES
    51   24   84 1    
    52   25   26 2    
    53   27   28 2    
    54   27   29 am   BACKBONE|DICT|INTERRES
    55   29   30 1    
    56   29   85 1    
    57   30   31 1    
    58   30   32 1    
    59   30   86 1    
    60   31   87 1    
    61   31   88 1    
    62   31   89 1    
    63   32   33 2    
    64   32   34 am   BACKBONE|DICT|INTERRES
    65   34   35 1    
    66   34   90 1    
    67   35   36 1    
    68   35   37 1    
    69   35   91 1    
    70   36   92 1    
    71   36   93 1    
    72   36   94 1    
    73   37   38 2    
    74   37   39 am   BACKBONE|DICT|INTERRES
    75   39   40 1    
    76   39   95 1    
    77   40   41 1    
    78   40   42 1    
    79   40   96 1    
    80   41   97 1    
    81   41   98 1    
    82   41   99 1    
    83   42   43 2    
    84   42   44 am   BACKBONE|DICT|INTERRES
    85   44   45 1    
    86   44  100 1    
    87   45   46 1    
    88   45   47 1    
    89   45  101 1    
    90   46  102 1    
    91   46  103 1    
    92   46  104 1    
    93   47   48 2    
    94   47   49 am   BACKBONE|DICT|INTERRES
    95   49   50 1    
    96   49  105 1    
    97   50   51 1    
    98   50   52 1    
    99   50  106 1    
   100   51  107 1    
   101   51  108 1    
   102   51  109 1    
   103   52   53 2    
   104   52   54 am   BACKBONE|DICT|INTERRES
   105   54   55 1    
   106   54  110 1    
   107   55   56 1    
   108   55   59 1    
   109   55  111 1    
   110   56   57 am   BACKBONE|DICT|INTERRES
   111   56   58 2    
   112   57  112 1    
   113   57  113 1    
   114   59   60 1    
   115   59  114 1    
   116   59  115 1    
   117   60   61 1    
   118   61  116 1    
   119   61  117 1    
@<TRIPOS>SUBSTRUCTURE
     1 UNK         1 GROUP             0       ****    0 ROOT    
