@<TRIPOS>MOLECULE
3R8
117   119    1
SMALL
USER_CHARGES


@<TRIPOS>ATOM
      1 CA         17.1464  -26.3480  -49.6024 C.3       0 UNK        -0.2013 
      2 C          17.5613  -26.7836  -48.2043 C.2       0 UNK         0.4866 
      3 O          16.9672  -26.3217  -47.2300 O.2       0 UNK        -0.5176 
      4 N          18.5652  -27.6699  -48.1208 N.am      1 UNK        -0.4884 
      5 CA         19.1902  -28.2332  -46.9118 C.3       1 UNK         0.0853 
      6 C6         18.1909  -28.8821  -45.9180 C.3       10 UNK        -0.0849 
      7 S7         17.2758  -30.2938  -46.6227 S.3       10 UNK        -0.2776 
      8 C8         15.7229  -30.2270  -45.6660 C.3       10 UNK         0.0316 
      9 C9         15.9760  -30.0990  -44.1684 C.ar      10 UNK        -0.0863 
     10 C10        16.5671  -31.1478  -43.4592 C.ar      10 UNK        -0.1009 
     11 C11        16.8647  -31.0053  -42.1007 C.ar      10 UNK        -0.0712 
     12 C12        16.5240  -29.8211  -41.4407 C.ar      10 UNK        -0.0894 
     13 C13        15.9331  -28.7631  -42.1395 C.ar      10 UNK        -0.0745 
     14 C14        15.6578  -28.9119  -43.5019 C.ar      10 UNK        -0.0972 
     15 C15        15.5886  -27.4543  -41.4373 C.3       10 UNK         0.0209 
     16 S16        16.9856  -26.7331  -40.5115 S.3       10 UNK        -0.2568 
     17 C17        18.2809  -26.5481  -41.7888 C.3       10 UNK        -0.0983 
     18 CA         19.4950  -27.4918  -41.5453 C.3       3 UNK         0.0876 
     19 N          20.3474  -27.5926  -42.7356 N.am      3 UNK        -0.4424 
     20 C          21.2290  -26.6844  -43.1857 C.2       2 UNK         0.4918 
     21 O          21.4830  -25.6240  -42.6134 O.2       2 UNK        -0.4875 
     22 CA         21.9346  -27.0065  -44.5165 C.3       2 UNK         0.0481 
     23 CB         23.2305  -27.7959  -44.2731 C.3       2 UNK        -0.1831 
     24 N          21.0677  -27.7623  -45.4252 N.am      2 UNK        -0.4498 
     25 C          20.0950  -27.2227  -46.1725 C.2       1 UNK         0.5027 
     26 O          19.9026  -26.0078  -46.2605 O.2       1 UNK        -0.4969 
     27 C          20.3259  -27.1757  -40.2769 C.2       3 UNK         0.5005 
     28 O          21.1276  -28.0116  -39.8554 O.2       3 UNK        -0.5279 
     29 N          20.1487  -25.9717  -39.7123 N.am      4 UNK        -0.4463 
     30 CA         20.8157  -25.4616  -38.5102 C.3       4 UNK         0.0283 
     31 CB         20.2175  -24.0918  -38.1513 C.3       4 UNK        -0.1875 
     32 C          22.3501  -25.3677  -38.6069 C.2       4 UNK         0.4949 
     33 O          23.0078  -25.3206  -37.5673 O.2       4 UNK        -0.5039 
     34 N          22.9019  -25.3711  -39.8295 N.am      5 UNK        -0.4663 
     35 CA         24.3437  -25.4571  -40.0845 C.3       5 UNK         0.0242 
     36 CB         24.6437  -24.9021  -41.4864 C.3       5 UNK        -0.1982 
     37 C          24.9236  -26.8771  -39.8983 C.2       5 UNK         0.5017 
     38 O          26.1374  -27.0380  -40.0323 O.2       5 UNK        -0.5012 
     39 N          24.0720  -27.8659  -39.5801 N.am      6 UNK        -0.4439 
     40 CA         24.3878  -29.2743  -39.3308 C.3       6 UNK         0.0297 
     41 CB         25.3522  -29.4425  -38.1329 C.3       6 UNK        -0.2006 
     42 C          24.8232  -29.9825  -40.6242 C.2       6 UNK         0.4892 
     43 O          24.0989  -29.8856  -41.6147 O.2       6 UNK        -0.5089 
     44 N          25.9454  -30.7195  -40.5886 N.am      7 UNK        -0.4243 
     45 CA         26.5134  -31.5144  -41.6903 C.3       7 UNK         0.0196 
     46 CB         27.0553  -30.5861  -42.7989 C.3       7 UNK        -0.2007 
     47 C          25.5315  -32.5756  -42.2304 C.2       7 UNK         0.5020 
     48 O          25.4119  -32.7506  -43.4443 O.2       7 UNK        -0.5147 
     49 N          24.8004  -33.2238  -41.3085 N.am      8 UNK        -0.4734 
     50 CA         23.7054  -34.1776  -41.5538 C.3       8 UNK         0.0238 
     51 CB         24.2512  -35.4878  -42.1616 C.3       8 UNK        -0.1912 
     52 C          22.5420  -33.5804  -42.3772 C.2       8 UNK         0.5038 
     53 O          21.8614  -34.3152  -43.0947 O.2       8 UNK        -0.5046 
     54 N          22.3562  -32.2576  -42.2668 N.am      9 UNK        -0.4200 
     55 CA         21.4337  -31.4212  -43.0471 C.3       9 UNK         0.0839 
     56 C          21.8529  -31.2181  -44.5331 C.2       9 UNK         0.5513 
     57 N          23.0327  -31.6414  -44.9704 N.am      9 UNK        -0.7519 
     58 O          21.1176  -30.5947  -45.2936 O.2       9 UNK        -0.4960 
     59 C59        19.9363  -31.8109  -42.8941 C.3       10 UNK        -0.0876 
     60 S60        19.3631  -31.7455  -41.1618 S.3       10 UNK        -0.2414 
     61 C61        17.5889  -32.1153  -41.3542 C.3       10 UNK         0.0169 
     62 H62        16.0983  -26.5914  -49.7748 H         1 UNK         0.0903 
     63 H63        17.7385  -26.8351  -50.3770 H         1 UNK         0.0903 
     64 H64        17.2681  -25.2705  -49.7104 H         1 UNK         0.0903 
     65 H65        18.9929  -27.9783  -48.9831 H         1 UNK         0.3096 
     66 H66        19.8499  -29.0238  -47.2750 H         1 UNK         0.1121 
     67 H67        17.4885  -28.1375  -45.5430 H         1 UNK         0.0849 
     68 H68        18.7108  -29.2609  -45.0369 H         1 UNK         0.0849 
     69 H69        15.1221  -29.3919  -46.0299 H         1 UNK         0.0865 
     70 H70        15.1425  -31.1297  -45.8612 H         1 UNK         0.0865 
     71 H71        16.8339  -32.0588  -43.9778 H         1 UNK         0.1346 
     72 H72        16.7507  -29.7102  -40.3890 H         1 UNK         0.1412 
     73 H73        15.2092  -28.0946  -44.0504 H         1 UNK         0.1426 
     74 H74        14.7655  -27.6346  -40.7450 H         1 UNK         0.0716 
     75 H75        15.2310  -26.7119  -42.1527 H         1 UNK         0.0716 
     76 H76        18.5884  -25.5028  -41.8477 H         1 UNK         0.0695 
     77 H77        17.8391  -26.7678  -42.7621 H         1 UNK         0.0695 
     78 H78        19.1018  -28.4979  -41.3900 H         1 UNK         0.0983 
     79 H79        20.2372  -28.4383  -43.2717 H         1 UNK         0.3095 
     80 H80        22.2037  -26.0615  -44.9930 H         1 UNK         0.0454 
     81 H81        23.0482  -28.7160  -43.7208 H         1 UNK         0.0851 
     82 H82        23.9456  -27.2154  -43.6926 H         1 UNK         0.0851 
     83 H83        23.7194  -28.0603  -45.2107 H         1 UNK         0.0851 
     84 H84        21.1723  -28.7757  -45.4273 H         1 UNK         0.2976 
     85 H85        19.4704  -25.3569  -40.1393 H         1 UNK         0.3116 
     86 H86        20.5901  -26.1557  -37.6981 H         1 UNK         0.0646 
     87 H87        20.3876  -23.3582  -38.9404 H         1 UNK         0.0847 
     88 H88        20.6649  -23.6965  -37.2381 H         1 UNK         0.0847 
     89 H89        19.1432  -24.1588  -37.9785 H         1 UNK         0.0847 
     90 H90        22.2929  -25.4106  -40.6405 H         1 UNK         0.3040 
     91 H91        24.8581  -24.8193  -39.3620 H         1 UNK         0.1015 
     92 H92        24.1477  -25.4800  -42.2631 H         1 UNK         0.0786 
     93 H93        25.7137  -24.9204  -41.6979 H         1 UNK         0.0786 
     94 H94        24.3144  -23.8672  -41.5805 H         1 UNK         0.0786 
     95 H95        23.0775  -27.6557  -39.5838 H         1 UNK         0.3172 
     96 H96        23.4416  -29.7376  -39.0474 H         1 UNK         0.0595 
     97 H97        26.3500  -29.0556  -38.3422 H         1 UNK         0.0839 
     98 H98        25.4540  -30.4913  -37.8511 H         1 UNK         0.0839 
     99 H99        24.9759  -28.9171  -37.2550 H         1 UNK         0.0839 
    100 H100       26.4639  -30.7398  -39.7213 H         1 UNK         0.2998 
    101 H101       27.3594  -32.0649  -41.2761 H         1 UNK         0.0822 
    102 H102       27.7568  -29.8553  -42.3966 H         1 UNK         0.0787 
    103 H103       27.5842  -31.1563  -43.5636 H         1 UNK         0.0787 
    104 H104       26.2529  -30.0404  -43.2973 H         1 UNK         0.0787 
    105 H105       24.9713  -32.9983  -40.3378 H         1 UNK         0.3055 
    106 H106       23.2812  -34.4197  -40.5778 H         1 UNK         0.1106 
    107 H107       24.6282  -35.3384  -43.1739 H         1 UNK         0.0828 
    108 H108       23.4727  -36.2497  -42.2153 H         1 UNK         0.0828 
    109 H109       25.0612  -35.8983  -41.5589 H         1 UNK         0.0828 
    110 H110       23.0140  -31.7290  -41.7081 H         1 UNK         0.2931 
    111 H111       21.5398  -30.4287  -42.6081 H         1 UNK         0.0412 
    112 H112       23.2853  -31.4777  -45.9314 H         1 UNK         0.3472 
    113 H113       23.6915  -32.0996  -44.3507 H         1 UNK         0.3472 
    114 H114       19.7443  -32.8048  -43.3000 H         1 UNK         0.0970 
    115 H115       19.3176  -31.1258  -43.4737 H         1 UNK         0.0970 
    116 H116       17.4713  -33.0706  -41.8681 H         1 UNK         0.0612 
    117 H117       17.1445  -32.2408  -40.3658 H         1 UNK         0.0612 
@<TRIPOS>BOND
     1    1    2 1    
     2    1   62 1    
     3    1   63 1    
     4    1   64 1    
     5    2    3 2    
     6    2    4 am   BACKBONE|DICT|INTERRES
     7    4    5 1    
     8    4   65 1    
     9    5    6 1    
    10    5   25 1    
    11    5   66 1    
    12    6    7 1    
    13    6   67 1    
    14    6   68 1    
    15    7    8 1    
    16    8    9 1    
    17    8   69 1    
    18    8   70 1    
    19    9   10 ar   
    20    9   14 ar   
    21   10   11 ar   
    22   10   71 1    
    23   11   12 ar   
    24   11   61 1    
    25   12   13 ar   
    26   12   72 1    
    27   13   14 ar   
    28   13   15 1    
    29   14   73 1    
    30   15   16 1    
    31   15   74 1    
    32   15   75 1    
    33   16   17 1    
    34   17   18 1    
    35   17   76 1    
    36   17   77 1    
    37   18   19 1    
    38   18   27 1    
    39   18   78 1    
    40   19   20 am   BACKBONE|DICT|INTERRES
    41   19   79 1    
    42   20   21 2    
    43   20   22 1    
    44   22   23 1    
    45   22   24 1    
    46   22   80 1    
    47   23   81 1    
    48   23   82 1    
    49   23   83 1    
    50   24   25 am   BACKBONE|DICT|INTERRES
    51   24   84 1    
    52   25   26 2    
    53   27   28 2    
    54   27   29 am   BACKBONE|DICT|INTERRES
    55   29   30 1    
    56   29   85 1    
    57   30   31 1    
    58   30   32 1    
    59   30   86 1    
    60   31   87 1    
    61   31   88 1    
    62   31   89 1    
    63   32   33 2    
    64   32   34 am   BACKBONE|DICT|INTERRES
    65   34   35 1    
    66   34   90 1    
    67   35   36 1    
    68   35   37 1    
    69   35   91 1    
    70   36   92 1    
    71   36   93 1    
    72   36   94 1    
    73   37   38 2    
    74   37   39 am   BACKBONE|DICT|INTERRES
    75   39   40 1    
    76   39   95 1    
    77   40   41 1    
    78   40   42 1    
    79   40   96 1    
    80   41   97 1    
    81   41   98 1    
    82   41   99 1    
    83   42   43 2    
    84   42   44 am   BACKBONE|DICT|INTERRES
    85   44   45 1    
    86   44  100 1    
    87   45   46 1    
    88   45   47 1    
    89   45  101 1    
    90   46  102 1    
    91   46  103 1    
    92   46  104 1    
    93   47   48 2    
    94   47   49 am   BACKBONE|DICT|INTERRES
    95   49   50 1    
    96   49  105 1    
    97   50   51 1    
    98   50   52 1    
    99   50  106 1    
   100   51  107 1    
   101   51  108 1    
   102   51  109 1    
   103   52   53 2    
   104   52   54 am   BACKBONE|DICT|INTERRES
   105   54   55 1    
   106   54  110 1    
   107   55   56 1    
   108   55   59 1    
   109   55  111 1    
   110   56   57 am   BACKBONE|DICT|INTERRES
   111   56   58 2    
   112   57  112 1    
   113   57  113 1    
   114   59   60 1    
   115   59  114 1    
   116   59  115 1    
   117   60   61 1    
   118   61  116 1    
   119   61  117 1    
@<TRIPOS>SUBSTRUCTURE
     1 UNK         1 GROUP             0       ****    0 ROOT    
