@<TRIPOS>MOLECULE
3R8
117   119    1
SMALL
USER_CHARGES


@<TRIPOS>ATOM
      1 CA         15.9908  -21.0086  -43.5847 C.3       0 UNK        -0.2013 
      2 C          16.2471  -22.4994  -43.7479 C.2       0 UNK         0.4866 
      3 O          15.3020  -23.2689  -43.9235 O.2       0 UNK        -0.5176 
      4 N          17.5162  -22.9138  -43.6938 N.am      1 UNK        -0.4884 
      5 CA         17.9650  -24.2940  -43.8552 C.3       1 UNK         0.0853 
      6 C6         17.7656  -25.1153  -42.5517 C.3       10 UNK        -0.0849 
      7 S7         18.2919  -26.8572  -42.6772 S.3       10 UNK        -0.2776 
      8 C8         16.8070  -27.6280  -43.3835 C.3       10 UNK         0.0316 
      9 C9         17.1197  -29.0452  -43.8313 C.ar      10 UNK        -0.0863 
     10 C10        16.8774  -30.1238  -42.9760 C.ar      10 UNK        -0.1009 
     11 C11        17.1807  -31.4310  -43.3691 C.ar      10 UNK        -0.0712 
     12 C12        17.7257  -31.6461  -44.6410 C.ar      10 UNK        -0.0894 
     13 C13        17.9931  -30.5741  -45.4976 C.ar      10 UNK        -0.0745 
     14 C14        17.6711  -29.2758  -45.0951 C.ar      10 UNK        -0.0972 
     15 C15        18.6691  -30.8300  -46.8393 C.3       10 UNK         0.0209 
     16 S16        20.3460  -30.1084  -46.9627 S.3       10 UNK        -0.2568 
     17 C17        21.1131  -30.4647  -45.3351 C.3       10 UNK        -0.0983 
     18 CA         21.8120  -29.2375  -44.6789 C.3       3 UNK         0.0876 
     19 N          21.2237  -27.9395  -45.0349 N.am      3 UNK        -0.4424 
     20 C          21.8157  -26.7557  -44.8151 C.2       2 UNK         0.4918 
     21 O          22.8121  -26.6120  -44.1102 O.2       2 UNK        -0.4875 
     22 CA         21.2109  -25.5269  -45.5073 C.3       2 UNK         0.0481 
     23 CB         21.2275  -25.6805  -47.0387 C.3       2 UNK        -0.1831 
     24 N          19.8440  -25.3061  -45.0455 N.am      2 UNK        -0.4498 
     25 C          19.4284  -24.2519  -44.3328 C.2       1 UNK         0.5027 
     26 O          20.1362  -23.2826  -44.0424 O.2       1 UNK        -0.4969 
     27 C          21.9549  -29.4191  -43.1568 C.2       3 UNK         0.5005 
     28 O          23.0670  -29.6298  -42.6732 O.2       3 UNK        -0.5279 
     29 N          20.8420  -29.2964  -42.4179 N.am      4 UNK        -0.4463 
     30 CA         20.8370  -29.4127  -40.9549 C.3       4 UNK         0.0283 
     31 CB         19.4077  -29.6205  -40.4333 C.3       4 UNK        -0.1875 
     32 C          21.5254  -28.2275  -40.2568 C.2       4 UNK         0.4949 
     33 O          22.0902  -28.4140  -39.1798 O.2       4 UNK        -0.5039 
     34 N          21.5289  -27.0492  -40.8985 N.am      5 UNK        -0.4663 
     35 CA         22.2893  -25.8723  -40.4620 C.3       5 UNK         0.0242 
     36 CB         21.8529  -24.6428  -41.2737 C.3       5 UNK        -0.1982 
     37 C          23.8132  -26.0847  -40.5525 C.2       5 UNK         0.5017 
     38 O          24.5444  -25.5959  -39.6916 O.2       5 UNK        -0.5012 
     39 N          24.2545  -26.8538  -41.5576 N.am      6 UNK        -0.4439 
     40 CA         25.6294  -27.3282  -41.7390 C.3       6 UNK         0.0297 
     41 CB         25.8812  -27.5511  -43.2409 C.3       6 UNK        -0.2006 
     42 C          25.9485  -28.6035  -40.9282 C.2       6 UNK         0.4892 
     43 O          27.0377  -29.1542  -41.0946 O.2       6 UNK        -0.5089 
     44 N          25.0137  -29.0472  -40.0734 N.am      7 UNK        -0.4243 
     45 CA         25.0790  -30.2181  -39.1920 C.3       7 UNK         0.0196 
     46 CB         26.2406  -30.1006  -38.1806 C.3       7 UNK        -0.2007 
     47 C          25.0530  -31.5703  -39.9318 C.2       7 UNK         0.5020 
     48 O          25.5426  -32.5641  -39.3911 O.2       7 UNK        -0.5147 
     49 N          24.4496  -31.6066  -41.1274 N.am      8 UNK        -0.4734 
     50 CA         24.0799  -32.8358  -41.8333 C.3       8 UNK         0.0238 
     51 CB         24.2977  -32.6364  -43.3471 C.3       8 UNK        -0.1912 
     52 C          22.6313  -33.2281  -41.4710 C.2       8 UNK         0.5038 
     53 O          22.1307  -32.8248  -40.4178 O.2       8 UNK        -0.5046 
     54 N          21.9804  -34.0152  -42.3382 N.am      9 UNK        -0.4200 
     55 CA         20.6406  -34.5889  -42.1286 C.3       9 UNK         0.0839 
     56 C          20.6123  -35.6503  -40.9825 C.2       9 UNK         0.5513 
     57 N          19.4457  -35.9854  -40.4498 N.am      9 UNK        -0.7519 
     58 O          21.6372  -36.2150  -40.6034 O.2       9 UNK        -0.4960 
     59 C59        19.5351  -33.4906  -42.0281 C.3       10 UNK        -0.0876 
     60 S60        17.9130  -34.0719  -42.6299 S.3       10 UNK        -0.2414 
     61 C61        16.8809  -32.5817  -42.4072 C.3       10 UNK         0.0169 
     62 H62        15.3431  -20.8312  -42.7266 H         1 UNK         0.0903 
     63 H63        16.9145  -20.4503  -43.4332 H         1 UNK         0.0903 
     64 H64        15.4971  -20.6133  -44.4721 H         1 UNK         0.0903 
     65 H65        18.2778  -22.2524  -43.5907 H         1 UNK         0.3096 
     66 H66        17.3741  -24.7467  -44.6548 H         1 UNK         0.1121 
     67 H67        16.7173  -25.0927  -42.2497 H         1 UNK         0.0849 
     68 H68        18.3182  -24.6553  -41.7306 H         1 UNK         0.0849 
     69 H69        16.0061  -27.6251  -42.6423 H         1 UNK         0.0865 
     70 H70        16.4464  -27.0429  -44.2307 H         1 UNK         0.0865 
     71 H71        16.4537  -29.9434  -41.9972 H         1 UNK         0.1346 
     72 H72        17.9638  -32.6490  -44.9653 H         1 UNK         0.1412 
     73 H73        17.8714  -28.4458  -45.7581 H         1 UNK         0.1426 
     74 H74        18.0488  -30.4203  -47.6375 H         1 UNK         0.0716 
     75 H75        18.7432  -31.9012  -47.0330 H         1 UNK         0.0716 
     76 H76        21.8457  -31.2591  -45.4859 H         1 UNK         0.0695 
     77 H77        20.3756  -30.8997  -44.6632 H         1 UNK         0.0695 
     78 H78        22.8291  -29.2140  -45.0780 H         1 UNK         0.0983 
     79 H79        20.4259  -27.9911  -45.6496 H         1 UNK         0.3095 
     80 H80        21.8420  -24.6719  -45.2558 H         1 UNK         0.0454 
     81 H81        20.8961  -24.7639  -47.5268 H         1 UNK         0.0851 
     82 H82        20.5828  -26.4897  -47.3831 H         1 UNK         0.0851 
     83 H83        22.2357  -25.8900  -47.3990 H         1 UNK         0.0851 
     84 H84        19.1939  -26.0655  -45.1848 H         1 UNK         0.2976 
     85 H85        19.9619  -29.0909  -42.8724 H         1 UNK         0.3116 
     86 H86        21.4081  -30.3054  -40.6945 H         1 UNK         0.0646 
     87 H87        18.9411  -30.4901  -40.8946 H         1 UNK         0.0847 
     88 H88        18.7715  -28.7562  -40.6159 H         1 UNK         0.0847 
     89 H89        19.4130  -29.7929  -39.3563 H         1 UNK         0.0847 
     90 H90        21.0349  -26.9807  -41.7768 H         1 UNK         0.3040 
     91 H91        22.0478  -25.6892  -39.4124 H         1 UNK         0.1015 
     92 H92        22.3748  -23.7474  -40.9336 H         1 UNK         0.0786 
     93 H93        20.7849  -24.4536  -41.1661 H         1 UNK         0.0786 
     94 H94        22.0668  -24.7570  -42.3362 H         1 UNK         0.0786 
     95 H95        23.5849  -27.1654  -42.2539 H         1 UNK         0.3172 
     96 H96        26.3157  -26.5516  -41.3959 H         1 UNK         0.0595 
     97 H97        25.2478  -28.3431  -43.6418 H         1 UNK         0.0839 
     98 H98        26.9173  -27.8347  -43.4301 H         1 UNK         0.0839 
     99 H99        25.6853  -26.6451  -43.8146 H         1 UNK         0.0839 
    100 H100       24.1421  -28.5341  -40.0288 H         1 UNK         0.2998 
    101 H101       24.1533  -30.1939  -38.6153 H         1 UNK         0.0822 
    102 H102       26.2232  -29.1400  -37.6658 H         1 UNK         0.0787 
    103 H103       26.1736  -30.8762  -37.4168 H         1 UNK         0.0787 
    104 H104       27.2123  -30.2069  -38.6634 H         1 UNK         0.0787 
    105 H105       24.0470  -30.7511  -41.5050 H         1 UNK         0.3055 
    106 H106       24.7237  -33.6557  -41.5076 H         1 UNK         0.1106 
    107 H107       23.5569  -31.9675  -43.7830 H         1 UNK         0.0828 
    108 H108       24.2428  -33.5830  -43.8852 H         1 UNK         0.0828 
    109 H109       25.2826  -32.2156  -43.5510 H         1 UNK         0.0828 
    110 H110       22.4665  -34.3336  -43.1633 H         1 UNK         0.2931 
    111 H111       20.4600  -35.1589  -43.0408 H         1 UNK         0.0412 
    112 H112       19.4119  -36.6832  -39.7230 H         1 UNK         0.3472 
    113 H113       18.5955  -35.5546  -40.7830 H         1 UNK         0.3472 
    114 H114       19.4410  -33.1192  -41.0059 H         1 UNK         0.0970 
    115 H115       19.8119  -32.6256  -42.6332 H         1 UNK         0.0970 
    116 H116       16.9824  -32.2444  -41.3744 H         1 UNK         0.0612 
    117 H117       15.8367  -32.8682  -42.5371 H         1 UNK         0.0612 
@<TRIPOS>BOND
     1    1    2 1    
     2    1   62 1    
     3    1   63 1    
     4    1   64 1    
     5    2    3 2    
     6    2    4 am   BACKBONE|DICT|INTERRES
     7    4    5 1    
     8    4   65 1    
     9    5    6 1    
    10    5   25 1    
    11    5   66 1    
    12    6    7 1    
    13    6   67 1    
    14    6   68 1    
    15    7    8 1    
    16    8    9 1    
    17    8   69 1    
    18    8   70 1    
    19    9   10 ar   
    20    9   14 ar   
    21   10   11 ar   
    22   10   71 1    
    23   11   12 ar   
    24   11   61 1    
    25   12   13 ar   
    26   12   72 1    
    27   13   14 ar   
    28   13   15 1    
    29   14   73 1    
    30   15   16 1    
    31   15   74 1    
    32   15   75 1    
    33   16   17 1    
    34   17   18 1    
    35   17   76 1    
    36   17   77 1    
    37   18   19 1    
    38   18   27 1    
    39   18   78 1    
    40   19   20 am   BACKBONE|DICT|INTERRES
    41   19   79 1    
    42   20   21 2    
    43   20   22 1    
    44   22   23 1    
    45   22   24 1    
    46   22   80 1    
    47   23   81 1    
    48   23   82 1    
    49   23   83 1    
    50   24   25 am   BACKBONE|DICT|INTERRES
    51   24   84 1    
    52   25   26 2    
    53   27   28 2    
    54   27   29 am   BACKBONE|DICT|INTERRES
    55   29   30 1    
    56   29   85 1    
    57   30   31 1    
    58   30   32 1    
    59   30   86 1    
    60   31   87 1    
    61   31   88 1    
    62   31   89 1    
    63   32   33 2    
    64   32   34 am   BACKBONE|DICT|INTERRES
    65   34   35 1    
    66   34   90 1    
    67   35   36 1    
    68   35   37 1    
    69   35   91 1    
    70   36   92 1    
    71   36   93 1    
    72   36   94 1    
    73   37   38 2    
    74   37   39 am   BACKBONE|DICT|INTERRES
    75   39   40 1    
    76   39   95 1    
    77   40   41 1    
    78   40   42 1    
    79   40   96 1    
    80   41   97 1    
    81   41   98 1    
    82   41   99 1    
    83   42   43 2    
    84   42   44 am   BACKBONE|DICT|INTERRES
    85   44   45 1    
    86   44  100 1    
    87   45   46 1    
    88   45   47 1    
    89   45  101 1    
    90   46  102 1    
    91   46  103 1    
    92   46  104 1    
    93   47   48 2    
    94   47   49 am   BACKBONE|DICT|INTERRES
    95   49   50 1    
    96   49  105 1    
    97   50   51 1    
    98   50   52 1    
    99   50  106 1    
   100   51  107 1    
   101   51  108 1    
   102   51  109 1    
   103   52   53 2    
   104   52   54 am   BACKBONE|DICT|INTERRES
   105   54   55 1    
   106   54  110 1    
   107   55   56 1    
   108   55   59 1    
   109   55  111 1    
   110   56   57 am   BACKBONE|DICT|INTERRES
   111   56   58 2    
   112   57  112 1    
   113   57  113 1    
   114   59   60 1    
   115   59  114 1    
   116   59  115 1    
   117   60   61 1    
   118   61  116 1    
   119   61  117 1    
@<TRIPOS>SUBSTRUCTURE
     1 UNK         1 GROUP             0       ****    0 ROOT    
