@<TRIPOS>MOLECULE
3R8
117   119    1
SMALL
USER_CHARGES


@<TRIPOS>ATOM
      1 CA         17.9591  -23.1139  -41.7773 C.3       0 UNK        -0.2013 
      2 C          17.8743  -24.3823  -42.6122 C.2       0 UNK         0.4866 
      3 O          18.5208  -25.3754  -42.2742 O.2       0 UNK        -0.5176 
      4 N          17.0891  -24.3516  -43.7002 N.am      1 UNK        -0.4884 
      5 CA         16.8889  -25.4487  -44.6587 C.3       1 UNK         0.0853 
      6 C6         16.1118  -26.6391  -44.0180 C.3       10 UNK        -0.0849 
      7 S7         15.3196  -27.7475  -45.2399 S.3       10 UNK        -0.2776 
      8 C8         14.9172  -29.2169  -44.2394 C.3       10 UNK         0.0316 
      9 C9         16.1527  -29.9643  -43.7498 C.ar      10 UNK        -0.0863 
     10 C10        16.7957  -30.9018  -44.5697 C.ar      10 UNK        -0.1009 
     11 C11        17.8964  -31.6233  -44.0907 C.ar      10 UNK        -0.0712 
     12 C12        18.3472  -31.3993  -42.7909 C.ar      10 UNK        -0.0894 
     13 C13        17.7322  -30.4519  -41.9720 C.ar      10 UNK        -0.0745 
     14 C14        16.6276  -29.7454  -42.4523 C.ar      10 UNK        -0.0972 
     15 C15        18.2553  -30.2096  -40.5651 C.3       10 UNK         0.0209 
     16 S16        20.0375  -29.8372  -40.5531 S.3       10 UNK        -0.2568 
     17 C17        20.0890  -28.1780  -41.2951 C.3       10 UNK        -0.0983 
     18 CA         20.9322  -28.1254  -42.6058 C.3       3 UNK         0.0876 
     19 N          20.0974  -28.0455  -43.8069 N.am      3 UNK        -0.4424 
     20 C          20.5386  -28.1584  -45.0712 C.2       2 UNK         0.4918 
     21 O          21.6727  -28.5334  -45.3685 O.2       2 UNK        -0.4875 
     22 CA         19.5738  -27.7506  -46.2047 C.3       2 UNK         0.0481 
     23 CB         19.1895  -28.9421  -47.0932 C.3       2 UNK        -0.1831 
     24 N          18.3509  -27.1270  -45.7054 N.am      2 UNK        -0.4498 
     25 C          18.2221  -25.8462  -45.3437 C.2       1 UNK         0.5027 
     26 O          19.1023  -25.0002  -45.5220 O.2       1 UNK        -0.4969 
     27 C          21.9145  -26.9383  -42.5947 C.2       3 UNK         0.5005 
     28 O          23.1127  -27.1333  -42.8042 O.2       3 UNK        -0.5279 
     29 N          21.3804  -25.7260  -42.3766 N.am      4 UNK        -0.4463 
     30 CA         22.1097  -24.4628  -42.2323 C.3       4 UNK         0.0283 
     31 CB         22.6597  -23.9965  -43.5989 C.3       4 UNK        -0.1875 
     32 C          23.1719  -24.5536  -41.1166 C.2       4 UNK         0.4949 
     33 O          22.8045  -24.5493  -39.9414 O.2       4 UNK        -0.5039 
     34 N          24.4530  -24.6483  -41.4956 N.am      5 UNK        -0.4663 
     35 CA         25.5836  -24.8276  -40.5812 C.3       5 UNK         0.0242 
     36 CB         26.8358  -24.2026  -41.2193 C.3       5 UNK        -0.1982 
     37 C          25.8502  -26.3008  -40.2114 C.2       5 UNK         0.5017 
     38 O          26.5729  -26.5427  -39.2432 O.2       5 UNK        -0.5012 
     39 N          25.3009  -27.2519  -40.9790 N.am      6 UNK        -0.4439 
     40 CA         25.4269  -28.6936  -40.7534 C.3       6 UNK         0.0297 
     41 CB         25.5269  -29.4014  -42.1187 C.3       6 UNK        -0.2006 
     42 C          24.2306  -29.2261  -39.9468 C.2       6 UNK         0.4892 
     43 O          23.2846  -28.4849  -39.6713 O.2       6 UNK        -0.5089 
     44 N          24.2945  -30.5157  -39.5982 N.am      7 UNK        -0.4243 
     45 CA         23.2201  -31.2672  -38.9554 C.3       7 UNK         0.0196 
     46 CB         23.6845  -31.7360  -37.5668 C.3       7 UNK        -0.2007 
     47 C          22.8755  -32.4693  -39.8411 C.2       7 UNK         0.5020 
     48 O          23.7864  -33.1142  -40.3660 O.2       7 UNK        -0.5147 
     49 N          21.5723  -32.7464  -39.9880 N.am      8 UNK        -0.4734 
     50 CA         20.9682  -33.8802  -40.7079 C.3       8 UNK         0.0238 
     51 CB         21.2105  -35.1857  -39.9206 C.3       8 UNK        -0.1912 
     52 C          21.3861  -34.0102  -42.1902 C.2       8 UNK         0.5038 
     53 O          21.3632  -35.1188  -42.7276 O.2       8 UNK        -0.5046 
     54 N          21.7714  -32.8880  -42.8165 N.am      9 UNK        -0.4200 
     55 CA         22.3879  -32.8144  -44.1541 C.3       9 UNK         0.0839 
     56 C          23.7845  -33.5088  -44.2507 C.2       9 UNK         0.5513 
     57 N          24.4843  -33.7553  -43.1486 N.am      9 UNK        -0.7519 
     58 O          24.2657  -33.7989  -45.3431 O.2       9 UNK        -0.4960 
     59 C59        21.4134  -33.2193  -45.3042 C.3       10 UNK        -0.0876 
     60 S60        20.1581  -31.9353  -45.6173 S.3       10 UNK        -0.2414 
     61 C61        18.6204  -32.6451  -44.9544 C.3       10 UNK         0.0169 
     62 H62        18.9780  -22.7285  -41.7843 H         1 UNK         0.0903 
     63 H63        17.2975  -22.3331  -42.1518 H         1 UNK         0.0903 
     64 H64        17.6820  -23.3266  -40.7452 H         1 UNK         0.0903 
     65 H65        16.6179  -23.4888  -43.9360 H         1 UNK         0.3096 
     66 H66        16.2666  -25.0327  -45.4530 H         1 UNK         0.1121 
     67 H67        15.3146  -26.2546  -43.3796 H         1 UNK         0.0849 
     68 H68        16.7682  -27.2038  -43.3565 H         1 UNK         0.0849 
     69 H69        14.2923  -28.9168  -43.3965 H         1 UNK         0.0865 
     70 H70        14.3034  -29.8901  -44.8398 H         1 UNK         0.0865 
     71 H71        16.4352  -31.0741  -45.5748 H         1 UNK         0.1346 
     72 H72        19.1974  -31.9510  -42.4213 H         1 UNK         0.1412 
     73 H73        16.1330  -29.0263  -41.8133 H         1 UNK         0.1426 
     74 H74        18.0784  -31.1042  -39.9667 H         1 UNK         0.0716 
     75 H75        17.7157  -29.3974  -40.0753 H         1 UNK         0.0716 
     76 H76        20.4981  -27.5312  -40.5155 H         1 UNK         0.0695 
     77 H77        19.0733  -27.8171  -41.4611 H         1 UNK         0.0695 
     78 H78        21.5399  -29.0298  -42.6830 H         1 UNK         0.0983 
     79 H79        19.1528  -27.7235  -43.6649 H         1 UNK         0.3095 
     80 H80        20.1068  -27.0316  -46.8301 H         1 UNK         0.0454 
     81 H81        18.6227  -28.6173  -47.9656 H         1 UNK         0.0851 
     82 H82        18.5807  -29.6661  -46.5529 H         1 UNK         0.0851 
     83 H83        20.0756  -29.4619  -47.4599 H         1 UNK         0.0851 
     84 H84        17.5552  -27.7376  -45.5587 H         1 UNK         0.2976 
     85 H85        20.3717  -25.6662  -42.2428 H         1 UNK         0.3116 
     86 H86        21.3805  -23.7216  -41.9024 H         1 UNK         0.0646 
     87 H87        23.3421  -24.7201  -44.0455 H         1 UNK         0.0847 
     88 H88        23.1914  -23.0485  -43.5069 H         1 UNK         0.0847 
     89 H89        21.8464  -23.8388  -44.3080 H         1 UNK         0.0847 
     90 H90        24.6576  -24.6764  -42.4843 H         1 UNK         0.3040 
     91 H91        25.3769  -24.2952  -39.6498 H         1 UNK         0.1015 
     92 H92        27.1016  -24.6957  -42.1552 H         1 UNK         0.0786 
     93 H93        27.6960  -24.2831  -40.5531 H         1 UNK         0.0786 
     94 H94        26.6884  -23.1425  -41.4271 H         1 UNK         0.0786 
     95 H95        24.6188  -26.9831  -41.6860 H         1 UNK         0.3172 
     96 H96        26.3384  -28.9030  -40.1898 H         1 UNK         0.0595 
     97 H97        24.6029  -29.3134  -42.6912 H         1 UNK         0.0839 
     98 H98        25.7338  -30.4659  -42.0028 H         1 UNK         0.0839 
     99 H99        26.3330  -28.9844  -42.7225 H         1 UNK         0.0839 
    100 H100       25.0769  -31.0741  -39.9123 H         1 UNK         0.2998 
    101 H101       22.3313  -30.6452  -38.8330 H         1 UNK         0.0822 
    102 H102       22.9000  -32.3029  -37.0638 H         1 UNK         0.0787 
    103 H103       24.5639  -32.3785  -37.6294 H         1 UNK         0.0787 
    104 H104       23.9338  -30.8888  -36.9276 H         1 UNK         0.0787 
    105 H105       20.9113  -32.1163  -39.5517 H         1 UNK         0.3055 
    106 H106       19.8922  -33.6993  -40.7196 H         1 UNK         0.1106 
    107 H107       20.6562  -36.0187  -40.3550 H         1 UNK         0.0828 
    108 H108       22.2653  -35.4630  -39.9173 H         1 UNK         0.0828 
    109 H109       20.8855  -35.0914  -38.8845 H         1 UNK         0.0828 
    110 H110       21.7705  -32.0287  -42.2879 H         1 UNK         0.2931 
    111 H111       22.6257  -31.7588  -44.2935 H         1 UNK         0.0412 
    112 H112       24.1239  -33.5222  -42.2279 H         1 UNK         0.3472 
    113 H113       25.3878  -34.1930  -43.2319 H         1 UNK         0.3472 
    114 H114       20.9455  -34.1863  -45.1193 H         1 UNK         0.0970 
    115 H115       21.9505  -33.3355  -46.2466 H         1 UNK         0.0970 
    116 H116       18.8360  -33.5338  -44.3595 H         1 UNK         0.0612 
    117 H117       17.9888  -32.9699  -45.7824 H         1 UNK         0.0612 
@<TRIPOS>BOND
     1    1    2 1    
     2    1   62 1    
     3    1   63 1    
     4    1   64 1    
     5    2    3 2    
     6    2    4 am   BACKBONE|DICT|INTERRES
     7    4    5 1    
     8    4   65 1    
     9    5    6 1    
    10    5   25 1    
    11    5   66 1    
    12    6    7 1    
    13    6   67 1    
    14    6   68 1    
    15    7    8 1    
    16    8    9 1    
    17    8   69 1    
    18    8   70 1    
    19    9   10 ar   
    20    9   14 ar   
    21   10   11 ar   
    22   10   71 1    
    23   11   12 ar   
    24   11   61 1    
    25   12   13 ar   
    26   12   72 1    
    27   13   14 ar   
    28   13   15 1    
    29   14   73 1    
    30   15   16 1    
    31   15   74 1    
    32   15   75 1    
    33   16   17 1    
    34   17   18 1    
    35   17   76 1    
    36   17   77 1    
    37   18   19 1    
    38   18   27 1    
    39   18   78 1    
    40   19   20 am   BACKBONE|DICT|INTERRES
    41   19   79 1    
    42   20   21 2    
    43   20   22 1    
    44   22   23 1    
    45   22   24 1    
    46   22   80 1    
    47   23   81 1    
    48   23   82 1    
    49   23   83 1    
    50   24   25 am   BACKBONE|DICT|INTERRES
    51   24   84 1    
    52   25   26 2    
    53   27   28 2    
    54   27   29 am   BACKBONE|DICT|INTERRES
    55   29   30 1    
    56   29   85 1    
    57   30   31 1    
    58   30   32 1    
    59   30   86 1    
    60   31   87 1    
    61   31   88 1    
    62   31   89 1    
    63   32   33 2    
    64   32   34 am   BACKBONE|DICT|INTERRES
    65   34   35 1    
    66   34   90 1    
    67   35   36 1    
    68   35   37 1    
    69   35   91 1    
    70   36   92 1    
    71   36   93 1    
    72   36   94 1    
    73   37   38 2    
    74   37   39 am   BACKBONE|DICT|INTERRES
    75   39   40 1    
    76   39   95 1    
    77   40   41 1    
    78   40   42 1    
    79   40   96 1    
    80   41   97 1    
    81   41   98 1    
    82   41   99 1    
    83   42   43 2    
    84   42   44 am   BACKBONE|DICT|INTERRES
    85   44   45 1    
    86   44  100 1    
    87   45   46 1    
    88   45   47 1    
    89   45  101 1    
    90   46  102 1    
    91   46  103 1    
    92   46  104 1    
    93   47   48 2    
    94   47   49 am   BACKBONE|DICT|INTERRES
    95   49   50 1    
    96   49  105 1    
    97   50   51 1    
    98   50   52 1    
    99   50  106 1    
   100   51  107 1    
   101   51  108 1    
   102   51  109 1    
   103   52   53 2    
   104   52   54 am   BACKBONE|DICT|INTERRES
   105   54   55 1    
   106   54  110 1    
   107   55   56 1    
   108   55   59 1    
   109   55  111 1    
   110   56   57 am   BACKBONE|DICT|INTERRES
   111   56   58 2    
   112   57  112 1    
   113   57  113 1    
   114   59   60 1    
   115   59  114 1    
   116   59  115 1    
   117   60   61 1    
   118   61  116 1    
   119   61  117 1    
@<TRIPOS>SUBSTRUCTURE
     1 UNK         1 GROUP             0       ****    0 ROOT    
