@<TRIPOS>MOLECULE
3R8
117   119    1
SMALL
USER_CHARGES


@<TRIPOS>ATOM
      1 CA         18.1525  -22.9789  -47.4954 C.3       0 UNK        -0.2013 
      2 C          18.4622  -24.3634  -46.9454 C.2       0 UNK         0.4866 
      3 O          18.6341  -24.5125  -45.7348 O.2       0 UNK        -0.5176 
      4 N          18.5274  -25.3727  -47.8267 N.am      1 UNK        -0.4884 
      5 CA         18.8590  -26.7721  -47.5222 C.3       1 UNK         0.0853 
      6 C6         17.8484  -27.4150  -46.5226 C.3       10 UNK        -0.0849 
      7 S7         17.6957  -29.2293  -46.6841 S.3       10 UNK        -0.2776 
      8 C8         16.1979  -29.5603  -45.7018 C.3       10 UNK         0.0316 
      9 C9         16.4633  -29.5288  -44.2013 C.ar      10 UNK        -0.0863 
     10 C10        16.6550  -30.7199  -43.4914 C.ar      10 UNK        -0.1009 
     11 C11        16.8206  -30.6993  -42.1024 C.ar      10 UNK        -0.0712 
     12 C12        16.8210  -29.4750  -41.4279 C.ar      10 UNK        -0.0894 
     13 C13        16.6645  -28.2760  -42.1300 C.ar      10 UNK        -0.0745 
     14 C14        16.4676  -28.3117  -43.5129 C.ar      10 UNK        -0.0972 
     15 C15        16.6974  -26.9427  -41.3956 C.3       10 UNK         0.0209 
     16 S16        18.3023  -26.6416  -40.5865 S.3       10 UNK        -0.2568 
     17 C17        19.4550  -26.5563  -42.0039 C.3       10 UNK        -0.0983 
     18 CA         20.1418  -27.9004  -42.3718 C.3       3 UNK         0.0876 
     19 N          20.8084  -27.7796  -43.6766 N.am      3 UNK        -0.4424 
     20 C          21.5649  -28.6929  -44.3064 C.2       2 UNK         0.4918 
     21 O          21.9419  -29.7478  -43.8044 O.2       2 UNK        -0.4875 
     22 CA         21.8860  -28.3983  -45.7807 C.3       2 UNK         0.0481 
     23 CB         22.5139  -29.6025  -46.5105 C.3       2 UNK        -0.1831 
     24 N          20.6309  -28.0608  -46.4421 N.am      2 UNK        -0.4498 
     25 C          20.3381  -26.9301  -47.0874 C.2       1 UNK         0.5027 
     26 O          21.1677  -26.0515  -47.3380 O.2       1 UNK        -0.4969 
     27 C          21.0477  -28.4283  -41.2354 C.2       3 UNK         0.5005 
     28 O          22.2632  -28.2299  -41.2721 O.2       3 UNK        -0.5279 
     29 N          20.4228  -29.0785  -40.2421 N.am      4 UNK        -0.4463 
     30 CA         21.0151  -29.7909  -39.1031 C.3       4 UNK         0.0283 
     31 CB         19.9217  -30.0761  -38.0597 C.3       4 UNK        -0.1875 
     32 C          22.2103  -29.0997  -38.4273 C.2       4 UNK         0.4949 
     33 O          23.2303  -29.7466  -38.1917 O.2       4 UNK        -0.5039 
     34 N          22.0668  -27.7976  -38.1530 N.am      5 UNK        -0.4663 
     35 CA         23.0891  -26.9691  -37.5097 C.3       5 UNK         0.0242 
     36 CB         22.4157  -25.7060  -36.9475 C.3       5 UNK        -0.1982 
     37 C          24.2610  -26.5844  -38.4326 C.2       5 UNK         0.5017 
     38 O          25.3033  -26.1722  -37.9215 O.2       5 UNK        -0.5012 
     39 N          24.0729  -26.6927  -39.7541 N.am      6 UNK        -0.4439 
     40 CA         25.0459  -26.3048  -40.7730 C.3       6 UNK         0.0297 
     41 CB         24.3346  -25.5023  -41.8770 C.3       6 UNK        -0.2006 
     42 C          25.7591  -27.5237  -41.3725 C.2       6 UNK         0.4892 
     43 O          26.9852  -27.4966  -41.4888 O.2       6 UNK        -0.5089 
     44 N          24.9949  -28.5524  -41.7656 N.am      7 UNK        -0.4243 
     45 CA         25.4941  -29.6918  -42.5397 C.3       7 UNK         0.0196 
     46 CB         25.6023  -29.2988  -44.0272 C.3       7 UNK        -0.2007 
     47 C          24.6910  -30.9834  -42.3036 C.2       7 UNK         0.5020 
     48 O          24.6209  -31.8272  -43.1988 O.2       7 UNK        -0.5147 
     49 N          24.1345  -31.1458  -41.0931 N.am      8 UNK        -0.4734 
     50 CA         23.5357  -32.3846  -40.5655 C.3       8 UNK         0.0238 
     51 CB         24.6360  -33.4448  -40.3392 C.3       8 UNK        -0.1912 
     52 C          22.3457  -32.9455  -41.3779 C.2       8 UNK         0.5038 
     53 O          22.1219  -34.1573  -41.3554 O.2       8 UNK        -0.5046 
     54 N          21.6095  -32.0671  -42.0721 N.am      9 UNK        -0.4200 
     55 CA         20.5014  -32.3859  -42.9935 C.3       9 UNK         0.0839 
     56 C          20.9687  -33.0210  -44.3392 C.2       9 UNK         0.5513 
     57 N          22.2495  -32.9797  -44.6900 N.am      9 UNK        -0.7519 
     58 O          20.1532  -33.5436  -45.0950 O.2       9 UNK        -0.4960 
     59 C59        19.3248  -33.1665  -42.3388 C.3       10 UNK        -0.0876 
     60 S60        18.6665  -32.3545  -40.8426 S.3       10 UNK        -0.2414 
     61 C61        16.9463  -31.9950  -41.3141 C.3       10 UNK         0.0169 
     62 H62        18.9704  -22.2952  -47.2698 H         1 UNK         0.0903 
     63 H63        18.0084  -22.9906  -48.5757 H         1 UNK         0.0903 
     64 H64        17.2448  -22.5877  -47.0367 H         1 UNK         0.0903 
     65 H65        18.4052  -25.1688  -48.8095 H         1 UNK         0.3096 
     66 H66        18.7747  -27.2992  -48.4743 H         1 UNK         0.1121 
     67 H67        18.1090  -27.1605  -45.4941 H         1 UNK         0.0849 
     68 H68        16.8555  -26.9943  -46.6900 H         1 UNK         0.0849 
     69 H69        15.4173  -28.8433  -45.9608 H         1 UNK         0.0865 
     70 H70        15.8077  -30.5383  -45.9878 H         1 UNK         0.0865 
     71 H71        16.6437  -31.6657  -44.0159 H         1 UNK         0.1346 
     72 H72        16.9442  -29.4547  -40.3535 H         1 UNK         0.1412 
     73 H73        16.3094  -27.3891  -44.0536 H         1 UNK         0.1426 
     74 H74        15.9135  -26.9360  -40.6372 H         1 UNK         0.0716 
     75 H75        16.4782  -26.1144  -42.0714 H         1 UNK         0.0716 
     76 H76        18.8991  -26.1734  -42.8619 H         1 UNK         0.0695 
     77 H77        20.2094  -25.7991  -41.7814 H         1 UNK         0.0695 
     78 H78        19.3692  -28.6544  -42.5281 H         1 UNK         0.0983 
     79 H79        20.5925  -26.9383  -44.1897 H         1 UNK         0.3095 
     80 H80        22.5852  -27.5605  -45.8067 H         1 UNK         0.0454 
     81 H81        21.8489  -30.4672  -46.5029 H         1 UNK         0.0851 
     82 H82        22.7363  -29.3617  -47.5499 H         1 UNK         0.0851 
     83 H83        23.4476  -29.9153  -46.0450 H         1 UNK         0.0851 
     84 H84        19.8697  -28.7145  -46.2934 H         1 UNK         0.2976 
     85 H85        19.4163  -29.1365  -40.3033 H         1 UNK         0.3116 
     86 H86        21.3595  -30.7487  -39.4873 H         1 UNK         0.0646 
     87 H87        20.3262  -30.6286  -37.2103 H         1 UNK         0.0847 
     88 H88        19.1141  -30.6778  -38.4743 H         1 UNK         0.0847 
     89 H89        19.4834  -29.1563  -37.6704 H         1 UNK         0.0847 
     90 H90        21.1992  -27.3455  -38.4047 H         1 UNK         0.3040 
     91 H91        23.5114  -27.5319  -36.6739 H         1 UNK         0.1015 
     92 H92        21.6348  -25.9579  -36.2297 H         1 UNK         0.0786 
     93 H93        21.9660  -25.1027  -37.7373 H         1 UNK         0.0786 
     94 H94        23.1385  -25.0754  -36.4276 H         1 UNK         0.0786 
     95 H95        23.2181  -27.1260  -40.0945 H         1 UNK         0.3172 
     96 H96        25.8078  -25.6556  -40.3361 H         1 UNK         0.0595 
     97 H97        23.8794  -24.5969  -41.4755 H         1 UNK         0.0839 
     98 H98        23.5497  -26.0816  -42.3649 H         1 UNK         0.0839 
     99 H99        25.0397  -25.1943  -42.6503 H         1 UNK         0.0839 
    100 H100       23.9832  -28.4949  -41.6402 H         1 UNK         0.2998 
    101 H101       26.5002  -29.9336  -42.1906 H         1 UNK         0.0822 
    102 H102       26.3464  -28.5162  -44.1751 H         1 UNK         0.0787 
    103 H103       25.9002  -30.1416  -44.6520 H         1 UNK         0.0787 
    104 H104       24.6520  -28.9230  -44.4011 H         1 UNK         0.0787 
    105 H105       24.2208  -30.3887  -40.4267 H         1 UNK         0.3055 
    106 H106       23.1358  -32.1392  -39.5818 H         1 UNK         0.1106 
    107 H107       25.0509  -33.8034  -41.2819 H         1 UNK         0.0828 
    108 H108       25.4555  -33.0461  -39.7413 H         1 UNK         0.0828 
    109 H109       24.2447  -34.3123  -39.8062 H         1 UNK         0.0828 
    110 H110       21.9308  -31.1084  -42.1254 H         1 UNK         0.2931 
    111 H111       20.0863  -31.4200  -43.2807 H         1 UNK         0.0412 
    112 H112       22.5352  -33.3886  -45.5646 H         1 UNK         0.3472 
    113 H113       22.9361  -32.5250  -44.0966 H         1 UNK         0.3472 
    114 H114       19.6323  -34.1786  -42.0737 H         1 UNK         0.0970 
    115 H115       18.5135  -33.2883  -43.0579 H         1 UNK         0.0970 
    116 H116       16.5266  -32.8346  -41.8701 H         1 UNK         0.0612 
    117 H117       16.3517  -31.9153  -40.4028 H         1 UNK         0.0612 
@<TRIPOS>BOND
     1    1    2 1    
     2    1   62 1    
     3    1   63 1    
     4    1   64 1    
     5    2    3 2    
     6    2    4 am   BACKBONE|DICT|INTERRES
     7    4    5 1    
     8    4   65 1    
     9    5    6 1    
    10    5   25 1    
    11    5   66 1    
    12    6    7 1    
    13    6   67 1    
    14    6   68 1    
    15    7    8 1    
    16    8    9 1    
    17    8   69 1    
    18    8   70 1    
    19    9   10 ar   
    20    9   14 ar   
    21   10   11 ar   
    22   10   71 1    
    23   11   12 ar   
    24   11   61 1    
    25   12   13 ar   
    26   12   72 1    
    27   13   14 ar   
    28   13   15 1    
    29   14   73 1    
    30   15   16 1    
    31   15   74 1    
    32   15   75 1    
    33   16   17 1    
    34   17   18 1    
    35   17   76 1    
    36   17   77 1    
    37   18   19 1    
    38   18   27 1    
    39   18   78 1    
    40   19   20 am   BACKBONE|DICT|INTERRES
    41   19   79 1    
    42   20   21 2    
    43   20   22 1    
    44   22   23 1    
    45   22   24 1    
    46   22   80 1    
    47   23   81 1    
    48   23   82 1    
    49   23   83 1    
    50   24   25 am   BACKBONE|DICT|INTERRES
    51   24   84 1    
    52   25   26 2    
    53   27   28 2    
    54   27   29 am   BACKBONE|DICT|INTERRES
    55   29   30 1    
    56   29   85 1    
    57   30   31 1    
    58   30   32 1    
    59   30   86 1    
    60   31   87 1    
    61   31   88 1    
    62   31   89 1    
    63   32   33 2    
    64   32   34 am   BACKBONE|DICT|INTERRES
    65   34   35 1    
    66   34   90 1    
    67   35   36 1    
    68   35   37 1    
    69   35   91 1    
    70   36   92 1    
    71   36   93 1    
    72   36   94 1    
    73   37   38 2    
    74   37   39 am   BACKBONE|DICT|INTERRES
    75   39   40 1    
    76   39   95 1    
    77   40   41 1    
    78   40   42 1    
    79   40   96 1    
    80   41   97 1    
    81   41   98 1    
    82   41   99 1    
    83   42   43 2    
    84   42   44 am   BACKBONE|DICT|INTERRES
    85   44   45 1    
    86   44  100 1    
    87   45   46 1    
    88   45   47 1    
    89   45  101 1    
    90   46  102 1    
    91   46  103 1    
    92   46  104 1    
    93   47   48 2    
    94   47   49 am   BACKBONE|DICT|INTERRES
    95   49   50 1    
    96   49  105 1    
    97   50   51 1    
    98   50   52 1    
    99   50  106 1    
   100   51  107 1    
   101   51  108 1    
   102   51  109 1    
   103   52   53 2    
   104   52   54 am   BACKBONE|DICT|INTERRES
   105   54   55 1    
   106   54  110 1    
   107   55   56 1    
   108   55   59 1    
   109   55  111 1    
   110   56   57 am   BACKBONE|DICT|INTERRES
   111   56   58 2    
   112   57  112 1    
   113   57  113 1    
   114   59   60 1    
   115   59  114 1    
   116   59  115 1    
   117   60   61 1    
   118   61  116 1    
   119   61  117 1    
@<TRIPOS>SUBSTRUCTURE
     1 UNK         1 GROUP             0       ****    0 ROOT    
