@<TRIPOS>MOLECULE
3R8
117   119    1
SMALL
USER_CHARGES


@<TRIPOS>ATOM
      1 CA         17.3571  -21.9175  -43.0444 C.3       0 UNK        -0.2013 
      2 C          18.0149  -23.2617  -43.3153 C.2       0 UNK         0.4866 
      3 O          19.1728  -23.4586  -42.9468 O.2       0 UNK        -0.5176 
      4 N          17.2921  -24.1789  -43.9738 N.am      1 UNK        -0.4884 
      5 CA         17.6639  -25.5616  -44.3251 C.3       1 UNK         0.0853 
      6 C6         17.9175  -26.4674  -43.0882 C.3       10 UNK        -0.0849 
      7 S7         16.3643  -27.1065  -42.3642 S.3       10 UNK        -0.2776 
      8 C8         15.8827  -28.4483  -43.5107 C.3       10 UNK         0.0316 
      9 C9         16.8462  -29.6272  -43.4818 C.ar      10 UNK        -0.0863 
     10 C10        16.6009  -30.7388  -42.6700 C.ar      10 UNK        -0.1009 
     11 C11        17.4883  -31.8229  -42.6538 C.ar      10 UNK        -0.0712 
     12 C12        18.6535  -31.7653  -43.4313 C.ar      10 UNK        -0.0894 
     13 C13        18.9144  -30.6476  -44.2305 C.ar      10 UNK        -0.0745 
     14 C14        17.9845  -29.6112  -44.2869 C.ar      10 UNK        -0.0972 
     15 C15        20.2038  -30.5144  -45.0207 C.3       10 UNK         0.0209 
     16 S16        21.3158  -29.3254  -44.2007 S.3       10 UNK        -0.2568 
     17 C17        22.5003  -28.9663  -45.5414 C.3       10 UNK        -0.0983 
     18 CA         23.2083  -27.5878  -45.4206 C.3       3 UNK         0.0876 
     19 N          22.2816  -26.4573  -45.4374 N.am      3 UNK        -0.4424 
     20 C          21.7278  -25.9210  -46.5265 C.2       2 UNK         0.4918 
     21 O          21.8717  -26.3781  -47.6623 O.2       2 UNK        -0.4875 
     22 CA         20.8935  -24.6443  -46.2965 C.3       2 UNK         0.0481 
     23 CB         20.3463  -24.0442  -47.6090 C.3       2 UNK        -0.1831 
     24 N          19.8061  -24.8198  -45.3251 N.am      2 UNK        -0.4498 
     25 C          18.7842  -25.6854  -45.3854 C.2       1 UNK         0.5027 
     26 O          18.6656  -26.5397  -46.2643 O.2       1 UNK        -0.4969 
     27 C          24.1159  -27.4443  -44.1832 C.2       3 UNK         0.5005 
     28 O          23.9496  -26.4878  -43.4174 O.2       3 UNK        -0.5279 
     29 N          25.0686  -28.3747  -44.0144 N.am      4 UNK        -0.4463 
     30 CA         26.0444  -28.4152  -42.9175 C.3       4 UNK         0.0283 
     31 CB         26.9050  -29.6840  -43.0368 C.3       4 UNK        -0.1875 
     32 C          25.3790  -28.3386  -41.5324 C.2       4 UNK         0.4949 
     33 O          24.5729  -29.2061  -41.1943 O.2       4 UNK        -0.5039 
     34 N          25.6837  -27.2607  -40.7951 N.am      5 UNK        -0.4663 
     35 CA         25.1159  -26.8848  -39.4905 C.3       5 UNK         0.0242 
     36 CB         25.5597  -27.8884  -38.4041 C.3       5 UNK        -0.1982 
     37 C          23.5839  -26.6785  -39.4961 C.2       5 UNK         0.5017 
     38 O          22.9738  -26.6974  -38.4262 O.2       5 UNK        -0.5012 
     39 N          22.9899  -26.5043  -40.6892 N.am      6 UNK        -0.4439 
     40 CA         21.5516  -26.4392  -40.9748 C.3       6 UNK         0.0297 
     41 CB         20.9323  -25.1617  -40.3681 C.3       6 UNK        -0.2006 
     42 C          20.7802  -27.7202  -40.5875 C.2       6 UNK         0.4892 
     43 O          19.5682  -27.6494  -40.3836 O.2       6 UNK        -0.5089 
     44 N          21.4780  -28.8613  -40.4887 N.am      7 UNK        -0.4243 
     45 CA         20.9227  -30.1499  -40.0786 C.3       7 UNK         0.0196 
     46 CB         20.5337  -30.1324  -38.5828 C.3       7 UNK        -0.2007 
     47 C          21.9226  -31.2653  -40.4069 C.2       7 UNK         0.5020 
     48 O          22.3140  -32.0280  -39.5209 O.2       7 UNK        -0.5147 
     49 N          22.3162  -31.3653  -41.6851 N.am      8 UNK        -0.4734 
     50 CA         23.2604  -32.3794  -42.1838 C.3       8 UNK         0.0238 
     51 CB         23.6675  -32.0400  -43.6245 C.3       8 UNK        -0.1912 
     52 C          22.7305  -33.8242  -42.0978 C.2       8 UNK         0.5038 
     53 O          23.5149  -34.7677  -42.2023 O.2       8 UNK        -0.5046 
     54 N          21.4167  -33.9603  -41.8887 N.am      9 UNK        -0.4200 
     55 CA         20.7175  -35.1937  -41.5192 C.3       9 UNK         0.0839 
     56 C          21.0865  -35.7585  -40.1139 C.2       9 UNK         0.5513 
     57 N          21.7128  -34.9938  -39.2253 N.am      9 UNK        -0.7519 
     58 O          20.8046  -36.9202  -39.8316 O.2       9 UNK        -0.4960 
     59 C59        19.1845  -35.0226  -41.6840 C.3       10 UNK        -0.0876 
     60 S60        18.4983  -33.6120  -40.7351 S.3       10 UNK        -0.2414 
     61 C61        17.1454  -33.0568  -41.8225 C.3       10 UNK         0.0169 
     62 H62        16.3365  -21.8771  -43.4244 H         1 UNK         0.0903 
     63 H63        17.3274  -21.7256  -41.9722 H         1 UNK         0.0903 
     64 H64        17.9278  -21.1189  -43.5176 H         1 UNK         0.0903 
     65 H65        16.3598  -23.9199  -44.2674 H         1 UNK         0.3096 
     66 H66        16.7838  -25.9467  -44.8415 H         1 UNK         0.1121 
     67 H67        18.5862  -27.2986  -43.3024 H         1 UNK         0.0849 
     68 H68        18.4387  -25.9132  -42.3089 H         1 UNK         0.0849 
     69 H69        14.8807  -28.7871  -43.2430 H         1 UNK         0.0865 
     70 H70        15.8001  -28.0594  -44.5262 H         1 UNK         0.0865 
     71 H71        15.7069  -30.7649  -42.0618 H         1 UNK         0.1346 
     72 H72        19.3554  -32.5857  -43.4165 H         1 UNK         0.1412 
     73 H73        18.1772  -28.7661  -44.9325 H         1 UNK         0.1426 
     74 H74        19.9708  -30.1705  -46.0296 H         1 UNK         0.0716 
     75 H75        20.7010  -31.4790  -45.1251 H         1 UNK         0.0716 
     76 H76        21.9664  -29.0008  -46.4920 H         1 UNK         0.0695 
     77 H77        23.2282  -29.7760  -45.5938 H         1 UNK         0.0695 
     78 H78        23.8731  -27.4785  -46.2805 H         1 UNK         0.0983 
     79 H79        22.1820  -25.9993  -44.5407 H         1 UNK         0.3095 
     80 H80        21.5724  -23.9092  -45.8617 H         1 UNK         0.0454 
     81 H81        21.1570  -23.8179  -48.3027 H         1 UNK         0.0851 
     82 H82        19.8090  -23.1138  -47.4264 H         1 UNK         0.0851 
     83 H83        19.6670  -24.7297  -48.1168 H         1 UNK         0.0851 
     84 H84        19.8057  -24.1874  -44.5268 H         1 UNK         0.2976 
     85 H85        25.1330  -29.1219  -44.6894 H         1 UNK         0.3116 
     86 H86        26.7012  -27.5518  -43.0418 H         1 UNK         0.0646 
     87 H87        27.4223  -29.7292  -43.9952 H         1 UNK         0.0847 
     88 H88        26.3095  -30.5912  -42.9310 H         1 UNK         0.0847 
     89 H89        27.6683  -29.7087  -42.2579 H         1 UNK         0.0847 
     90 H90        26.3291  -26.5897  -41.1905 H         1 UNK         0.3040 
     91 H91        25.5440  -25.9132  -39.2384 H         1 UNK         0.1015 
     92 H92        25.2760  -27.5429  -37.4092 H         1 UNK         0.0786 
     93 H93        26.6418  -28.0188  -38.4018 H         1 UNK         0.0786 
     94 H94        25.1036  -28.8686  -38.5487 H         1 UNK         0.0786 
     95 H95        23.5805  -26.5052  -41.5184 H         1 UNK         0.3172 
     96 H96        21.4643  -26.3610  -42.0594 H         1 UNK         0.0595 
     97 H97        19.8968  -25.0352  -40.6838 H         1 UNK         0.0839 
     98 H98        21.4721  -24.2699  -40.6861 H         1 UNK         0.0839 
     99 H99        20.9342  -25.1875  -39.2783 H         1 UNK         0.0839 
    100 H100       22.4743  -28.8527  -40.6876 H         1 UNK         0.2998 
    101 H101       20.0236  -30.3438  -40.6685 H         1 UNK         0.0822 
    102 H102       19.7548  -29.3995  -38.3745 H         1 UNK         0.0787 
    103 H103       20.1463  -31.1025  -38.2683 H         1 UNK         0.0787 
    104 H104       21.3909  -29.8983  -37.9504 H         1 UNK         0.0787 
    105 H105       21.9699  -30.6924  -42.3583 H         1 UNK         0.3055 
    106 H106       24.1540  -32.3280  -41.5573 H         1 UNK         0.1106 
    107 H107       24.0586  -31.0267  -43.6903 H         1 UNK         0.0828 
    108 H108       24.4496  -32.7133  -43.9779 H         1 UNK         0.0828 
    109 H109       22.8286  -32.1266  -44.3141 H         1 UNK         0.0828 
    110 H110       20.8767  -33.1152  -41.7838 H         1 UNK         0.2931 
    111 H111       21.0339  -35.9553  -42.2345 H         1 UNK         0.0412 
    112 H112       21.9297  -34.0241  -39.4291 H         1 UNK         0.3472 
    113 H113       21.9461  -35.3787  -38.3240 H         1 UNK         0.3472 
    114 H114       18.9576  -34.8880  -42.7423 H         1 UNK         0.0970 
    115 H115       18.6580  -35.9328  -41.3901 H         1 UNK         0.0970 
    116 H116       16.2835  -32.8512  -41.1859 H         1 UNK         0.0612 
    117 H117       16.8377  -33.8645  -42.4875 H         1 UNK         0.0612 
@<TRIPOS>BOND
     1    1    2 1    
     2    1   62 1    
     3    1   63 1    
     4    1   64 1    
     5    2    3 2    
     6    2    4 am   BACKBONE|DICT|INTERRES
     7    4    5 1    
     8    4   65 1    
     9    5    6 1    
    10    5   25 1    
    11    5   66 1    
    12    6    7 1    
    13    6   67 1    
    14    6   68 1    
    15    7    8 1    
    16    8    9 1    
    17    8   69 1    
    18    8   70 1    
    19    9   10 ar   
    20    9   14 ar   
    21   10   11 ar   
    22   10   71 1    
    23   11   12 ar   
    24   11   61 1    
    25   12   13 ar   
    26   12   72 1    
    27   13   14 ar   
    28   13   15 1    
    29   14   73 1    
    30   15   16 1    
    31   15   74 1    
    32   15   75 1    
    33   16   17 1    
    34   17   18 1    
    35   17   76 1    
    36   17   77 1    
    37   18   19 1    
    38   18   27 1    
    39   18   78 1    
    40   19   20 am   BACKBONE|DICT|INTERRES
    41   19   79 1    
    42   20   21 2    
    43   20   22 1    
    44   22   23 1    
    45   22   24 1    
    46   22   80 1    
    47   23   81 1    
    48   23   82 1    
    49   23   83 1    
    50   24   25 am   BACKBONE|DICT|INTERRES
    51   24   84 1    
    52   25   26 2    
    53   27   28 2    
    54   27   29 am   BACKBONE|DICT|INTERRES
    55   29   30 1    
    56   29   85 1    
    57   30   31 1    
    58   30   32 1    
    59   30   86 1    
    60   31   87 1    
    61   31   88 1    
    62   31   89 1    
    63   32   33 2    
    64   32   34 am   BACKBONE|DICT|INTERRES
    65   34   35 1    
    66   34   90 1    
    67   35   36 1    
    68   35   37 1    
    69   35   91 1    
    70   36   92 1    
    71   36   93 1    
    72   36   94 1    
    73   37   38 2    
    74   37   39 am   BACKBONE|DICT|INTERRES
    75   39   40 1    
    76   39   95 1    
    77   40   41 1    
    78   40   42 1    
    79   40   96 1    
    80   41   97 1    
    81   41   98 1    
    82   41   99 1    
    83   42   43 2    
    84   42   44 am   BACKBONE|DICT|INTERRES
    85   44   45 1    
    86   44  100 1    
    87   45   46 1    
    88   45   47 1    
    89   45  101 1    
    90   46  102 1    
    91   46  103 1    
    92   46  104 1    
    93   47   48 2    
    94   47   49 am   BACKBONE|DICT|INTERRES
    95   49   50 1    
    96   49  105 1    
    97   50   51 1    
    98   50   52 1    
    99   50  106 1    
   100   51  107 1    
   101   51  108 1    
   102   51  109 1    
   103   52   53 2    
   104   52   54 am   BACKBONE|DICT|INTERRES
   105   54   55 1    
   106   54  110 1    
   107   55   56 1    
   108   55   59 1    
   109   55  111 1    
   110   56   57 am   BACKBONE|DICT|INTERRES
   111   56   58 2    
   112   57  112 1    
   113   57  113 1    
   114   59   60 1    
   115   59  114 1    
   116   59  115 1    
   117   60   61 1    
   118   61  116 1    
   119   61  117 1    
@<TRIPOS>SUBSTRUCTURE
     1 UNK         1 GROUP             0       ****    0 ROOT    
