@<TRIPOS>MOLECULE
3R8
117   119    1
SMALL
USER_CHARGES


@<TRIPOS>ATOM
      1 CA         18.8416  -26.8221  -41.9563 C.3       0 UNK        -0.2013 
      2 C          17.8016  -26.2695  -42.9175 C.2       0 UNK         0.4866 
      3 O          17.3428  -25.1426  -42.7321 O.2       0 UNK        -0.5176 
      4 N          17.4304  -27.0463  -43.9459 N.am      1 UNK        -0.4884 
      5 CA         16.4645  -26.6522  -44.9846 C.3       1 UNK         0.0853 
      6 C6         16.0550  -27.8369  -45.8933 C.3       10 UNK        -0.0849 
      7 S7         15.2548  -29.1886  -44.9680 S.3       10 UNK        -0.2776 
      8 C8         16.4278  -30.5607  -45.2171 C.3       10 UNK         0.0316 
      9 C9         17.6930  -30.3984  -44.3860 C.ar      10 UNK        -0.0863 
     10 C10        17.6326  -30.5392  -42.9974 C.ar      10 UNK        -0.1009 
     11 C11        18.7897  -30.4499  -42.2187 C.ar      10 UNK        -0.0712 
     12 C12        20.0157  -30.1984  -42.8438 C.ar      10 UNK        -0.0894 
     13 C13        20.0922  -30.0479  -44.2317 C.ar      10 UNK        -0.0745 
     14 C14        18.9260  -30.1515  -44.9984 C.ar      10 UNK        -0.0972 
     15 C15        21.4423  -29.8393  -44.9082 C.3       10 UNK         0.0209 
     16 S16        21.5506  -28.2551  -45.8005 S.3       10 UNK        -0.2568 
     17 C17        22.1005  -27.1124  -44.4886 C.3       10 UNK        -0.0983 
     18 CA         22.1726  -25.6433  -44.9833 C.3       3 UNK         0.0876 
     19 N          20.8659  -25.1630  -45.4271 N.am      3 UNK        -0.4424 
     20 C          20.5391  -24.8370  -46.6830 C.2       2 UNK         0.4918 
     21 O          21.3400  -24.8072  -47.6188 O.2       2 UNK        -0.4875 
     22 CA         19.0474  -24.5631  -46.9319 C.3       2 UNK         0.0481 
     23 CB         18.6738  -24.5517  -48.4287 C.3       2 UNK        -0.1831 
     24 N          18.2740  -25.5745  -46.2142 N.am      2 UNK        -0.4498 
     25 C          16.9919  -25.4865  -45.8453 C.2       1 UNK         0.5027 
     26 O          16.2502  -24.5461  -46.1335 O.2       1 UNK        -0.4969 
     27 C          22.6647  -24.7054  -43.8693 C.2       3 UNK         0.5005 
     28 O          21.8532  -24.2419  -43.0628 O.2       3 UNK        -0.5279 
     29 N          23.9796  -24.4436  -43.8388 N.am      4 UNK        -0.4463 
     30 CA         24.6317  -23.5530  -42.8686 C.3       4 UNK         0.0283 
     31 CB         26.0445  -23.2085  -43.3679 C.3       4 UNK        -0.1875 
     32 C          24.6953  -24.1281  -41.4414 C.2       4 UNK         0.4949 
     33 O          24.7983  -23.3612  -40.4836 O.2       4 UNK        -0.5039 
     34 N          24.6289  -25.4568  -41.3263 N.am      5 UNK        -0.4663 
     35 CA         24.5381  -26.2138  -40.0843 C.3       5 UNK         0.0242 
     36 CB         25.9480  -26.6155  -39.6166 C.3       5 UNK        -0.1982 
     37 C          23.6727  -27.4472  -40.3615 C.2       5 UNK         0.5017 
     38 O          23.5491  -27.8511  -41.5213 O.2       5 UNK        -0.5012 
     39 N          23.0955  -28.0266  -39.3012 N.am      6 UNK        -0.4439 
     40 CA         22.2369  -29.2105  -39.3893 C.3       6 UNK         0.0297 
     41 CB         21.5235  -29.4433  -38.0473 C.3       6 UNK        -0.2006 
     42 C          22.9947  -30.4740  -39.8302 C.2       6 UNK         0.4892 
     43 O          22.4813  -31.2217  -40.6615 O.2       6 UNK        -0.5089 
     44 N          24.2013  -30.6753  -39.2769 N.am      7 UNK        -0.4243 
     45 CA         25.0904  -31.8191  -39.5137 C.3       7 UNK         0.0196 
     46 CB         25.7168  -31.7245  -40.9248 C.3       7 UNK        -0.2007 
     47 C          24.3759  -33.1554  -39.2198 C.2       7 UNK         0.5020 
     48 O          23.8813  -33.3354  -38.1057 O.2       7 UNK        -0.5147 
     49 N          24.3145  -34.0555  -40.2097 N.am      8 UNK        -0.4734 
     50 CA         23.5718  -35.3172  -40.1350 C.3       8 UNK         0.0238 
     51 CB         24.1092  -36.2807  -41.2062 C.3       8 UNK        -0.1912 
     52 C          22.0487  -35.1398  -40.2901 C.2       8 UNK         0.5038 
     53 O          21.3031  -36.0046  -39.8277 O.2       8 UNK        -0.5046 
     54 N          21.6188  -34.0407  -40.9284 N.am      9 UNK        -0.4200 
     55 CA         20.2217  -33.6927  -41.2301 C.3       9 UNK         0.0839 
     56 C          19.4949  -34.7556  -42.1142 C.2       9 UNK         0.5513 
     57 N          18.1735  -34.8452  -42.0617 N.am      9 UNK        -0.7519 
     58 O          20.1200  -35.4723  -42.8941 O.2       9 UNK        -0.4960 
     59 C59        19.4704  -33.2501  -39.9391 C.3       10 UNK        -0.0876 
     60 S60        17.9924  -32.2089  -40.2077 S.3       10 UNK        -0.2414 
     61 C61        18.7025  -30.6047  -40.7048 C.3       10 UNK         0.0169 
     62 H62        19.5280  -26.0343  -41.6456 H         1 UNK         0.0903 
     63 H63        18.3588  -27.2274  -41.0677 H         1 UNK         0.0903 
     64 H64        19.4314  -27.6088  -42.4189 H         1 UNK         0.0903 
     65 H65        17.7937  -27.9882  -44.0194 H         1 UNK         0.3096 
     66 H66        15.5677  -26.2898  -44.4765 H         1 UNK         0.1121 
     67 H67        16.9181  -28.2219  -46.4396 H         1 UNK         0.0849 
     68 H68        15.3449  -27.5033  -46.6530 H         1 UNK         0.0849 
     69 H69        15.9383  -31.4935  -44.9327 H         1 UNK         0.0865 
     70 H70        16.6620  -30.6571  -46.2785 H         1 UNK         0.0865 
     71 H71        16.6808  -30.7326  -42.5209 H         1 UNK         0.1346 
     72 H72        20.9159  -30.1237  -42.2524 H         1 UNK         0.1412 
     73 H73        18.9866  -30.0561  -46.0743 H         1 UNK         0.1426 
     74 H74        21.5992  -30.6490  -45.6219 H         1 UNK         0.0716 
     75 H75        22.2597  -29.9076  -44.1879 H         1 UNK         0.0716 
     76 H76        23.0823  -27.4457  -44.1481 H         1 UNK         0.0695 
     77 H77        21.4290  -27.2066  -43.6340 H         1 UNK         0.0695 
     78 H78        22.8882  -25.5913  -45.8070 H         1 UNK         0.0983 
     79 H79        20.1809  -25.0487  -44.6936 H         1 UNK         0.3095 
     80 H80        18.8266  -23.5821  -46.5067 H         1 UNK         0.0454 
     81 H81        19.2425  -23.7936  -48.9685 H         1 UNK         0.0851 
     82 H82        17.6183  -24.3249  -48.5775 H         1 UNK         0.0851 
     83 H83        18.8796  -25.5134  -48.8999 H         1 UNK         0.0851 
     84 H84        18.7965  -26.3917  -45.9265 H         1 UNK         0.2976 
     85 H85        24.5791  -24.8664  -44.5340 H         1 UNK         0.3116 
     86 H86        24.0544  -22.6270  -42.8195 H         1 UNK         0.0646 
     87 H87        26.5434  -22.5217  -42.6824 H         1 UNK         0.0847 
     88 H88        26.6724  -24.0965  -43.4511 H         1 UNK         0.0847 
     89 H89        26.0153  -22.7227  -44.3434 H         1 UNK         0.0847 
     90 H90        24.4806  -26.0165  -42.1569 H         1 UNK         0.3040 
     91 H91        24.0484  -25.6082  -39.3181 H         1 UNK         0.1015 
     92 H92        25.9083  -27.1772  -38.6825 H         1 UNK         0.0786 
     93 H93        26.5708  -25.7383  -39.4396 H         1 UNK         0.0786 
     94 H94        26.4535  -27.2410  -40.3538 H         1 UNK         0.0786 
     95 H95        23.2463  -27.6344  -38.3824 H         1 UNK         0.3172 
     96 H96        21.4757  -29.0023  -40.1434 H         1 UNK         0.0595 
     97 H97        22.2309  -29.5969  -37.2315 H         1 UNK         0.0839 
     98 H98        20.8855  -30.3272  -38.0910 H         1 UNK         0.0839 
     99 H99        20.8855  -28.5991  -37.7853 H         1 UNK         0.0839 
    100 H100       24.5173  -30.0102  -38.5860 H         1 UNK         0.2998 
    101 H101       25.8996  -31.7420  -38.7859 H         1 UNK         0.0822 
    102 H102       26.4492  -32.5160  -41.0889 H         1 UNK         0.0787 
    103 H103       24.9681  -31.7878  -41.7155 H         1 UNK         0.0787 
    104 H104       26.2420  -30.7776  -41.0522 H         1 UNK         0.0787 
    105 H105       24.7464  -33.8276  -41.0939 H         1 UNK         0.3055 
    106 H106       23.7466  -35.7663  -39.1543 H         1 UNK         0.1106 
    107 H107       25.1732  -36.4746  -41.0694 H         1 UNK         0.0828 
    108 H108       23.5976  -37.2431  -41.1561 H         1 UNK         0.0828 
    109 H109       23.9638  -35.8883  -42.2134 H         1 UNK         0.0828 
    110 H110       22.3004  -33.3482  -41.2104 H         1 UNK         0.2931 
    111 H111       20.3091  -32.8197  -41.8742 H         1 UNK         0.0412 
    112 H112       17.6517  -34.2246  -41.4598 H         1 UNK         0.3472 
    113 H113       17.6947  -35.5144  -42.6436 H         1 UNK         0.3472 
    114 H114       19.1786  -34.1254  -39.3563 H         1 UNK         0.0970 
    115 H115       20.1466  -32.6859  -39.2944 H         1 UNK         0.0970 
    116 H116       18.0724  -29.8071  -40.3097 H         1 UNK         0.0612 
    117 H117       19.6800  -30.4841  -40.2410 H         1 UNK         0.0612 
@<TRIPOS>BOND
     1    1    2 1    
     2    1   62 1    
     3    1   63 1    
     4    1   64 1    
     5    2    3 2    
     6    2    4 am   BACKBONE|DICT|INTERRES
     7    4    5 1    
     8    4   65 1    
     9    5    6 1    
    10    5   25 1    
    11    5   66 1    
    12    6    7 1    
    13    6   67 1    
    14    6   68 1    
    15    7    8 1    
    16    8    9 1    
    17    8   69 1    
    18    8   70 1    
    19    9   10 ar   
    20    9   14 ar   
    21   10   11 ar   
    22   10   71 1    
    23   11   12 ar   
    24   11   61 1    
    25   12   13 ar   
    26   12   72 1    
    27   13   14 ar   
    28   13   15 1    
    29   14   73 1    
    30   15   16 1    
    31   15   74 1    
    32   15   75 1    
    33   16   17 1    
    34   17   18 1    
    35   17   76 1    
    36   17   77 1    
    37   18   19 1    
    38   18   27 1    
    39   18   78 1    
    40   19   20 am   BACKBONE|DICT|INTERRES
    41   19   79 1    
    42   20   21 2    
    43   20   22 1    
    44   22   23 1    
    45   22   24 1    
    46   22   80 1    
    47   23   81 1    
    48   23   82 1    
    49   23   83 1    
    50   24   25 am   BACKBONE|DICT|INTERRES
    51   24   84 1    
    52   25   26 2    
    53   27   28 2    
    54   27   29 am   BACKBONE|DICT|INTERRES
    55   29   30 1    
    56   29   85 1    
    57   30   31 1    
    58   30   32 1    
    59   30   86 1    
    60   31   87 1    
    61   31   88 1    
    62   31   89 1    
    63   32   33 2    
    64   32   34 am   BACKBONE|DICT|INTERRES
    65   34   35 1    
    66   34   90 1    
    67   35   36 1    
    68   35   37 1    
    69   35   91 1    
    70   36   92 1    
    71   36   93 1    
    72   36   94 1    
    73   37   38 2    
    74   37   39 am   BACKBONE|DICT|INTERRES
    75   39   40 1    
    76   39   95 1    
    77   40   41 1    
    78   40   42 1    
    79   40   96 1    
    80   41   97 1    
    81   41   98 1    
    82   41   99 1    
    83   42   43 2    
    84   42   44 am   BACKBONE|DICT|INTERRES
    85   44   45 1    
    86   44  100 1    
    87   45   46 1    
    88   45   47 1    
    89   45  101 1    
    90   46  102 1    
    91   46  103 1    
    92   46  104 1    
    93   47   48 2    
    94   47   49 am   BACKBONE|DICT|INTERRES
    95   49   50 1    
    96   49  105 1    
    97   50   51 1    
    98   50   52 1    
    99   50  106 1    
   100   51  107 1    
   101   51  108 1    
   102   51  109 1    
   103   52   53 2    
   104   52   54 am   BACKBONE|DICT|INTERRES
   105   54   55 1    
   106   54  110 1    
   107   55   56 1    
   108   55   59 1    
   109   55  111 1    
   110   56   57 am   BACKBONE|DICT|INTERRES
   111   56   58 2    
   112   57  112 1    
   113   57  113 1    
   114   59   60 1    
   115   59  114 1    
   116   59  115 1    
   117   60   61 1    
   118   61  116 1    
   119   61  117 1    
@<TRIPOS>SUBSTRUCTURE
     1 UNK         1 GROUP             0       ****    0 ROOT    
