@<TRIPOS>MOLECULE
3R8
117   119    1
SMALL
USER_CHARGES


@<TRIPOS>ATOM
      1 CA         17.6592  -21.8266  -42.9972 C.3       0 UNK        -0.2013 
      2 C          17.0031  -22.9862  -43.7318 C.2       0 UNK         0.4866 
      3 O          15.8755  -22.8512  -44.2074 O.2       0 UNK        -0.5176 
      4 N          17.7005  -24.1217  -43.8308 N.am      1 UNK        -0.4884 
      5 CA         17.2746  -25.3284  -44.5379 C.3       1 UNK         0.0853 
      6 C6         16.1989  -26.1319  -43.7581 C.3       10 UNK        -0.0849 
      7 S7         15.1751  -27.1647  -44.8628 S.3       10 UNK        -0.2776 
      8 C8         14.6598  -28.5040  -43.7458 C.3       10 UNK         0.0316 
      9 C9         15.7783  -29.5007  -43.4721 C.ar      10 UNK        -0.0863 
     10 C10        16.0490  -30.5228  -44.3877 C.ar      10 UNK        -0.1009 
     11 C11        17.0119  -31.4985  -44.1053 C.ar      10 UNK        -0.0712 
     12 C12        17.7094  -31.4360  -42.8957 C.ar      10 UNK        -0.0894 
     13 C13        17.4640  -30.4077  -41.9796 C.ar      10 UNK        -0.0745 
     14 C14        16.4964  -29.4437  -42.2742 C.ar      10 UNK        -0.0972 
     15 C15        18.1808  -30.3801  -40.6360 C.3       10 UNK         0.0209 
     16 S16        19.9858  -30.5552  -40.7838 S.3       10 UNK        -0.2568 
     17 C17        20.5134  -28.8900  -41.2985 C.3       10 UNK        -0.0983 
     18 CA         21.1362  -28.8875  -42.7208 C.3       3 UNK         0.0876 
     19 N          20.1283  -28.6649  -43.7664 N.am      3 UNK        -0.4424 
     20 C          20.3598  -28.8155  -45.0781 C.2       2 UNK         0.4918 
     21 O          21.3620  -29.3741  -45.5238 O.2       2 UNK        -0.4875 
     22 CA         19.3571  -28.1982  -46.0760 C.3       2 UNK         0.0481 
     23 CB         18.6761  -29.2756  -46.9315 C.3       2 UNK        -0.1831 
     24 N          18.3280  -27.3185  -45.5100 N.am      2 UNK        -0.4498 
     25 C          18.5298  -26.1550  -44.8789 C.2       1 UNK         0.5027 
     26 O          19.6470  -25.7352  -44.5621 O.2       1 UNK        -0.4969 
     27 C          22.2972  -27.8673  -42.8025 C.2       3 UNK         0.5005 
     28 O          23.4030  -28.1890  -42.3704 O.2       3 UNK        -0.5279 
     29 N          22.0410  -26.6564  -43.3305 N.am      4 UNK        -0.4463 
     30 CA         23.0023  -25.5645  -43.5550 C.3       4 UNK         0.0283 
     31 CB         23.9535  -25.9290  -44.7140 C.3       4 UNK        -0.1875 
     32 C          23.7616  -25.1207  -42.2854 C.2       4 UNK         0.4949 
     33 O          24.9211  -24.7148  -42.3732 O.2       4 UNK        -0.5039 
     34 N          23.0930  -25.2356  -41.1272 N.am      5 UNK        -0.4663 
     35 CA         23.6039  -25.0156  -39.7660 C.3       5 UNK         0.0242 
     36 CB         24.0235  -23.5438  -39.5602 C.3       5 UNK        -0.1982 
     37 C          24.7020  -26.0102  -39.3242 C.2       5 UNK         0.5017 
     38 O          25.3688  -25.7557  -38.3194 O.2       5 UNK        -0.5012 
     39 N          24.8576  -27.1278  -40.0458 N.am      6 UNK        -0.4439 
     40 CA         25.7328  -28.2477  -39.7037 C.3       6 UNK         0.0297 
     41 CB         26.5190  -28.6558  -40.9631 C.3       6 UNK        -0.2006 
     42 C          24.8895  -29.4207  -39.1761 C.2       6 UNK         0.4892 
     43 O          23.6571  -29.3569  -39.1809 O.2       6 UNK        -0.5089 
     44 N          25.5722  -30.4770  -38.7184 N.am      7 UNK        -0.4243 
     45 CA         24.9480  -31.7340  -38.3088 C.3       7 UNK         0.0196 
     46 CB         25.9150  -32.5145  -37.4022 C.3       7 UNK        -0.2007 
     47 C          24.5637  -32.5624  -39.5461 C.2       7 UNK         0.5020 
     48 O          25.4322  -32.8282  -40.3802 O.2       7 UNK        -0.5147 
     49 N          23.2886  -32.9723  -39.6043 N.am      8 UNK        -0.4734 
     50 CA         22.6193  -33.7477  -40.6608 C.3       8 UNK         0.0238 
     51 CB         23.3217  -35.1028  -40.8937 C.3       8 UNK        -0.1912 
     52 C          22.4268  -32.9783  -41.9841 C.2       8 UNK         0.5038 
     53 O          23.0944  -31.9755  -42.2403 O.2       8 UNK        -0.5046 
     54 N          21.4837  -33.4733  -42.7965 N.am      9 UNK        -0.4200 
     55 CA         21.1258  -32.9402  -44.1188 C.3       9 UNK         0.0839 
     56 C          22.3118  -33.0122  -45.1215 C.2       9 UNK         0.5513 
     57 N          22.6090  -31.9344  -45.8327 N.am      9 UNK        -0.7519 
     58 O          22.9390  -34.0576  -45.2822 O.2       9 UNK        -0.4960 
     59 C59        19.8732  -33.6737  -44.6715 C.3       10 UNK        -0.0876 
     60 S60        18.9058  -32.6426  -45.8256 S.3       10 UNK        -0.2414 
     61 C61        17.2421  -32.6512  -45.0775 C.3       10 UNK         0.0169 
     62 H62        17.7599  -20.9696  -43.6627 H         1 UNK         0.0903 
     63 H63        17.0476  -21.5275  -42.1464 H         1 UNK         0.0903 
     64 H64        18.6507  -22.0867  -42.6269 H         1 UNK         0.0903 
     65 H65        18.6540  -24.1732  -43.4910 H         1 UNK         0.3096 
     66 H66        16.8544  -25.0039  -45.4931 H         1 UNK         0.1121 
     67 H67        16.6566  -26.7319  -42.9713 H         1 UNK         0.0849 
     68 H68        15.5135  -25.4540  -43.2473 H         1 UNK         0.0849 
     69 H69        14.2832  -28.0774  -42.8146 H         1 UNK         0.0865 
     70 H70        13.8149  -29.0274  -44.1962 H         1 UNK         0.0865 
     71 H71        15.4854  -30.5733  -45.3095 H         1 UNK         0.1346 
     72 H72        18.4376  -32.1958  -42.6539 H         1 UNK         0.1412 
     73 H73        16.2759  -28.6683  -41.5531 H         1 UNK         0.1426 
     74 H74        17.8041  -31.2065  -40.0320 H         1 UNK         0.0716 
     75 H75        17.9525  -29.4685  -40.0816 H         1 UNK         0.0716 
     76 H76        21.2372  -28.5733  -40.5439 H         1 UNK         0.0695 
     77 H77        19.6860  -28.1823  -41.2256 H         1 UNK         0.0695 
     78 H78        21.5963  -29.8601  -42.9051 H         1 UNK         0.0983 
     79 H79        19.2586  -28.2435  -43.4791 H         1 UNK         0.3095 
     80 H80        19.9557  -27.5818  -46.7497 H         1 UNK         0.0454 
     81 H81        17.9814  -29.8722  -46.3433 H         1 UNK         0.0851 
     82 H82        19.4078  -29.9577  -47.3666 H         1 UNK         0.0851 
     83 H83        18.1194  -28.8336  -47.7577 H         1 UNK         0.0851 
     84 H84        17.3674  -27.5982  -45.6670 H         1 UNK         0.2976 
     85 H85        21.1015  -26.4658  -43.6741 H         1 UNK         0.3116 
     86 H86        22.4127  -24.7026  -43.8708 H         1 UNK         0.0646 
     87 H87        24.6146  -26.7543  -44.4472 H         1 UNK         0.0847 
     88 H88        24.5836  -25.0820  -44.9880 H         1 UNK         0.0847 
     89 H89        23.3983  -26.2196  -45.6058 H         1 UNK         0.0847 
     90 H90        22.1457  -25.5835  -41.1820 H         1 UNK         0.3040 
     91 H91        22.7608  -25.2065  -39.1001 H         1 UNK         0.1015 
     92 H92        23.2325  -22.8586  -39.8649 H         1 UNK         0.0786 
     93 H93        24.9214  -23.2940  -40.1259 H         1 UNK         0.0786 
     94 H94        24.2376  -23.3404  -38.5102 H         1 UNK         0.0786 
     95 H95        24.2347  -27.3018  -40.8311 H         1 UNK         0.3172 
     96 H96        26.4423  -27.9581  -38.9260 H         1 UNK         0.0595 
     97 H97        25.8619  -29.0528  -41.7381 H         1 UNK         0.0839 
     98 H98        27.2576  -29.4261  -40.7392 H         1 UNK         0.0839 
     99 H99        27.0575  -27.8074  -41.3859 H         1 UNK         0.0839 
    100 H100       26.5802  -30.4716  -38.7762 H         1 UNK         0.2998 
    101 H101       24.0502  -31.5085  -37.7285 H         1 UNK         0.0822 
    102 H102       26.1687  -31.9444  -36.5082 H         1 UNK         0.0787 
    103 H103       25.4661  -33.4523  -37.0721 H         1 UNK         0.0787 
    104 H104       26.8438  -32.7622  -37.9179 H         1 UNK         0.0787 
    105 H105       22.6720  -32.6515  -38.8701 H         1 UNK         0.3055 
    106 H106       21.6200  -33.9534  -40.2723 H         1 UNK         0.1106 
    107 H107       22.7308  -35.7463  -41.5463 H         1 UNK         0.0828 
    108 H108       24.2970  -34.9809  -41.3659 H         1 UNK         0.0828 
    109 H109       23.4671  -35.6419  -39.9576 H         1 UNK         0.0828 
    110 H110       21.0094  -34.3201  -42.5221 H         1 UNK         0.2931 
    111 H111       20.8662  -31.8917  -43.9596 H         1 UNK         0.0412 
    112 H112       22.1036  -31.0608  -45.7045 H         1 UNK         0.3472 
    113 H113       23.3671  -31.9772  -46.4946 H         1 UNK         0.3472 
    114 H114       20.1458  -34.6040  -45.1742 H         1 UNK         0.0970 
    115 H115       19.2207  -33.9787  -43.8533 H         1 UNK         0.0970 
    116 H116       16.5162  -32.6024  -45.8904 H         1 UNK         0.0612 
    117 H117       17.0569  -33.6007  -44.5740 H         1 UNK         0.0612 
@<TRIPOS>BOND
     1    1    2 1    
     2    1   62 1    
     3    1   63 1    
     4    1   64 1    
     5    2    3 2    
     6    2    4 am   BACKBONE|DICT|INTERRES
     7    4    5 1    
     8    4   65 1    
     9    5    6 1    
    10    5   25 1    
    11    5   66 1    
    12    6    7 1    
    13    6   67 1    
    14    6   68 1    
    15    7    8 1    
    16    8    9 1    
    17    8   69 1    
    18    8   70 1    
    19    9   10 ar   
    20    9   14 ar   
    21   10   11 ar   
    22   10   71 1    
    23   11   12 ar   
    24   11   61 1    
    25   12   13 ar   
    26   12   72 1    
    27   13   14 ar   
    28   13   15 1    
    29   14   73 1    
    30   15   16 1    
    31   15   74 1    
    32   15   75 1    
    33   16   17 1    
    34   17   18 1    
    35   17   76 1    
    36   17   77 1    
    37   18   19 1    
    38   18   27 1    
    39   18   78 1    
    40   19   20 am   BACKBONE|DICT|INTERRES
    41   19   79 1    
    42   20   21 2    
    43   20   22 1    
    44   22   23 1    
    45   22   24 1    
    46   22   80 1    
    47   23   81 1    
    48   23   82 1    
    49   23   83 1    
    50   24   25 am   BACKBONE|DICT|INTERRES
    51   24   84 1    
    52   25   26 2    
    53   27   28 2    
    54   27   29 am   BACKBONE|DICT|INTERRES
    55   29   30 1    
    56   29   85 1    
    57   30   31 1    
    58   30   32 1    
    59   30   86 1    
    60   31   87 1    
    61   31   88 1    
    62   31   89 1    
    63   32   33 2    
    64   32   34 am   BACKBONE|DICT|INTERRES
    65   34   35 1    
    66   34   90 1    
    67   35   36 1    
    68   35   37 1    
    69   35   91 1    
    70   36   92 1    
    71   36   93 1    
    72   36   94 1    
    73   37   38 2    
    74   37   39 am   BACKBONE|DICT|INTERRES
    75   39   40 1    
    76   39   95 1    
    77   40   41 1    
    78   40   42 1    
    79   40   96 1    
    80   41   97 1    
    81   41   98 1    
    82   41   99 1    
    83   42   43 2    
    84   42   44 am   BACKBONE|DICT|INTERRES
    85   44   45 1    
    86   44  100 1    
    87   45   46 1    
    88   45   47 1    
    89   45  101 1    
    90   46  102 1    
    91   46  103 1    
    92   46  104 1    
    93   47   48 2    
    94   47   49 am   BACKBONE|DICT|INTERRES
    95   49   50 1    
    96   49  105 1    
    97   50   51 1    
    98   50   52 1    
    99   50  106 1    
   100   51  107 1    
   101   51  108 1    
   102   51  109 1    
   103   52   53 2    
   104   52   54 am   BACKBONE|DICT|INTERRES
   105   54   55 1    
   106   54  110 1    
   107   55   56 1    
   108   55   59 1    
   109   55  111 1    
   110   56   57 am   BACKBONE|DICT|INTERRES
   111   56   58 2    
   112   57  112 1    
   113   57  113 1    
   114   59   60 1    
   115   59  114 1    
   116   59  115 1    
   117   60   61 1    
   118   61  116 1    
   119   61  117 1    
@<TRIPOS>SUBSTRUCTURE
     1 UNK         1 GROUP             0       ****    0 ROOT    
