@<TRIPOS>MOLECULE
3R8
117   119    1
SMALL
USER_CHARGES


@<TRIPOS>ATOM
      1 CA         16.8431  -23.1443  -47.0790 C.3       0 UNK        -0.2013 
      2 C          17.0788  -24.5558  -46.5622 C.2       0 UNK         0.4866 
      3 O          17.8374  -25.3064  -47.1727 O.2       0 UNK        -0.5176 
      4 N          16.4347  -24.9096  -45.4455 N.am      1 UNK        -0.4884 
      5 CA         16.5541  -26.1838  -44.7301 C.3       1 UNK         0.0853 
      6 C6         15.3439  -27.1178  -45.0084 C.3       10 UNK        -0.0849 
      7 S7         15.2767  -27.7086  -46.7331 S.3       10 UNK        -0.2776 
      8 C8         15.7981  -29.4534  -46.5721 C.3       10 UNK         0.0316 
      9 C9         17.2769  -29.6714  -46.2446 C.ar      10 UNK        -0.0863 
     10 C10        17.6515  -30.8318  -45.5578 C.ar      10 UNK        -0.1009 
     11 C11        18.9960  -31.1017  -45.2854 C.ar      10 UNK        -0.0712 
     12 C12        19.9740  -30.1907  -45.6947 C.ar      10 UNK        -0.0894 
     13 C13        19.6212  -29.0249  -46.3798 C.ar      10 UNK        -0.0745 
     14 C14        18.2740  -28.7796  -46.6629 C.ar      10 UNK        -0.0972 
     15 C15        20.6966  -28.0605  -46.8680 C.3       10 UNK         0.0209 
     16 S16        20.8848  -26.5949  -45.7991 S.3       10 UNK        -0.2568 
     17 C17        21.8301  -27.2588  -44.3854 C.3       10 UNK        -0.0983 
     18 CA         21.3396  -26.7041  -43.0171 C.3       3 UNK         0.0876 
     19 N          19.8935  -26.8882  -42.8138 N.am      3 UNK        -0.4424 
     20 C          19.2680  -28.0658  -42.6609 C.2       2 UNK         0.4918 
     21 O          19.8624  -29.1354  -42.5483 O.2       2 UNK        -0.4875 
     22 CA         17.7289  -28.0528  -42.6093 C.3       2 UNK         0.0481 
     23 CB         17.1988  -29.0044  -41.5222 C.3       2 UNK        -0.1831 
     24 N          17.1814  -26.7138  -42.3573 N.am      2 UNK        -0.4498 
     25 C          16.6457  -25.8436  -43.2258 C.2       1 UNK         0.5027 
     26 O          16.2060  -24.7599  -42.8342 O.2       1 UNK        -0.4969 
     27 C          22.1648  -27.2611  -41.8323 C.2       3 UNK         0.5005 
     28 O          23.2139  -27.8746  -42.0413 O.2       3 UNK        -0.5279 
     29 N          21.6522  -27.0745  -40.6054 N.am      4 UNK        -0.4463 
     30 CA         22.0930  -27.7429  -39.3743 C.3       4 UNK         0.0283 
     31 CB         21.2065  -27.2872  -38.2048 C.3       4 UNK        -0.1875 
     32 C          23.5797  -27.5733  -39.0157 C.2       4 UNK         0.4949 
     33 O          24.1498  -28.4619  -38.3846 O.2       4 UNK        -0.5039 
     34 N          24.1813  -26.4540  -39.4347 N.am      5 UNK        -0.4663 
     35 CA         25.6017  -26.1557  -39.2429 C.3       5 UNK         0.0242 
     36 CB         25.8071  -24.6368  -39.3708 C.3       5 UNK        -0.1982 
     37 C          26.5340  -26.9054  -40.2147 C.2       5 UNK         0.5017 
     38 O          27.7387  -26.9387  -39.9594 O.2       5 UNK        -0.5012 
     39 N          25.9897  -27.4572  -41.3091 N.am      6 UNK        -0.4439 
     40 CA         26.7486  -28.0970  -42.3855 C.3       6 UNK         0.0297 
     41 CB         26.5552  -27.2993  -43.6875 C.3       6 UNK        -0.2006 
     42 C          26.3397  -29.5629  -42.5784 C.2       6 UNK         0.4892 
     43 O          27.2067  -30.4372  -42.5515 O.2       6 UNK        -0.5089 
     44 N          25.0407  -29.8061  -42.7927 N.am      7 UNK        -0.4243 
     45 CA         24.4830  -31.1301  -43.0682 C.3       7 UNK         0.0196 
     46 CB         23.2017  -30.9811  -43.9028 C.3       7 UNK        -0.2007 
     47 C          24.1903  -31.9072  -41.7804 C.2       7 UNK         0.5020 
     48 O          24.4794  -33.1022  -41.7203 O.2       7 UNK        -0.5147 
     49 N          23.6125  -31.2134  -40.7869 N.am      8 UNK        -0.4734 
     50 CA         23.2096  -31.7282  -39.4686 C.3       8 UNK         0.0238 
     51 CB         24.4556  -32.0665  -38.6221 C.3       8 UNK        -0.1912 
     52 C          22.1955  -32.8928  -39.5300 C.2       8 UNK         0.5038 
     53 O          22.2136  -33.7627  -38.6563 O.2       8 UNK        -0.5046 
     54 N          21.3373  -32.8978  -40.5597 N.am      9 UNK        -0.4200 
     55 CA         20.2761  -33.8944  -40.7634 C.3       9 UNK         0.0839 
     56 C          19.1173  -33.7859  -39.7305 C.2       9 UNK         0.5513 
     57 N          18.3411  -34.8485  -39.5627 N.am      9 UNK        -0.7519 
     58 O          18.9012  -32.7542  -39.0970 O.2       9 UNK        -0.4960 
     59 C59        19.7710  -33.9053  -42.2326 C.3       10 UNK        -0.0876 
     60 S60        19.0804  -32.3121  -42.7952 S.3       10 UNK        -0.2414 
     61 C61        19.3942  -32.3935  -44.5834 C.3       10 UNK         0.0169 
     62 H62        17.7842  -22.5962  -47.1150 H         1 UNK         0.0903 
     63 H63        16.4300  -23.1790  -48.0867 H         1 UNK         0.0903 
     64 H64        16.1501  -22.5880  -46.4479 H         1 UNK         0.0903 
     65 H65        15.8857  -24.2222  -44.9438 H         1 UNK         0.3096 
     66 H66        17.4850  -26.6720  -45.0230 H         1 UNK         0.1121 
     67 H67        14.4097  -26.5924  -44.8007 H         1 UNK         0.0849 
     68 H68        15.3416  -27.9823  -44.3437 H         1 UNK         0.0849 
     69 H69        15.1691  -29.9363  -45.8224 H         1 UNK         0.0865 
     70 H70        15.5863  -29.9585  -47.5153 H         1 UNK         0.0865 
     71 H71        16.8971  -31.5412  -45.2455 H         1 UNK         0.1346 
     72 H72        21.0138  -30.3969  -45.4918 H         1 UNK         0.1412 
     73 H73        18.0094  -27.8915  -47.2195 H         1 UNK         0.1426 
     74 H74        20.4395  -27.7210  -47.8725 H         1 UNK         0.0716 
     75 H75        21.6583  -28.5678  -46.9598 H         1 UNK         0.0716 
     76 H76        22.8807  -27.0104  -44.5455 H         1 UNK         0.0695 
     77 H77        21.7714  -28.3468  -44.3940 H         1 UNK         0.0695 
     78 H78        21.5161  -25.6274  -43.0184 H         1 UNK         0.0983 
     79 H79        19.3321  -26.0516  -42.8680 H         1 UNK         0.3095 
     80 H80        17.3933  -28.4407  -43.5691 H         1 UNK         0.0454 
     81 H81        17.5617  -28.7300  -40.5311 H         1 UNK         0.0851 
     82 H82        17.5143  -30.0310  -41.7096 H         1 UNK         0.0851 
     83 H83        16.1093  -29.0078  -41.4936 H         1 UNK         0.0851 
     84 H84        17.2109  -26.4251  -41.3895 H         1 UNK         0.2976 
     85 H85        20.7933  -26.5478  -40.5391 H         1 UNK         0.3116 
     86 H86        21.9206  -28.8088  -39.5265 H         1 UNK         0.0646 
     87 H87        20.1571  -27.5216  -38.3846 H         1 UNK         0.0847 
     88 H88        21.2881  -26.2136  -38.0309 H         1 UNK         0.0847 
     89 H89        21.4920  -27.7890  -37.2789 H         1 UNK         0.0847 
     90 H90        23.6334  -25.7788  -39.9483 H         1 UNK         0.3040 
     91 H91        25.8861  -26.4541  -38.2310 H         1 UNK         0.1015 
     92 H92        26.8495  -24.3666  -39.1952 H         1 UNK         0.0786 
     93 H93        25.2073  -24.0919  -38.6414 H         1 UNK         0.0786 
     94 H94        25.5403  -24.2752  -40.3647 H         1 UNK         0.0786 
     95 H95        24.9791  -27.4370  -41.4162 H         1 UNK         0.3172 
     96 H96        27.8161  -28.0934  -42.1556 H         1 UNK         0.0595 
     97 H97        25.5042  -27.2260  -43.9702 H         1 UNK         0.0839 
     98 H98        27.0854  -27.7693  -44.5171 H         1 UNK         0.0839 
     99 H99        26.9438  -26.2857  -43.5888 H         1 UNK         0.0839 
    100 H100       24.3775  -29.0358  -42.7276 H         1 UNK         0.2998 
    101 H101       25.2028  -31.7054  -43.6551 H         1 UNK         0.0822 
    102 H102       23.3980  -30.4501  -44.8343 H         1 UNK         0.0787 
    103 H103       22.7945  -31.9584  -44.1645 H         1 UNK         0.0787 
    104 H104       22.4244  -30.4386  -43.3621 H         1 UNK         0.0787 
    105 H105       23.4224  -30.2348  -40.9566 H         1 UNK         0.3055 
    106 H106       22.6889  -30.9168  -38.9603 H         1 UNK         0.1106 
    107 H107       25.0032  -32.9172  -39.0285 H         1 UNK         0.0828 
    108 H108       24.1786  -32.3166  -37.5973 H         1 UNK         0.0828 
    109 H109       25.1395  -31.2191  -38.5710 H         1 UNK         0.0828 
    110 H110       21.3537  -32.1307  -41.2153 H         1 UNK         0.2931 
    111 H111       20.7406  -34.8676  -40.5907 H         1 UNK         0.0412 
    112 H112       18.5053  -35.7025  -40.0731 H         1 UNK         0.3472 
    113 H113       17.5790  -34.7985  -38.9044 H         1 UNK         0.3472 
    114 H114       19.0164  -34.6804  -42.3766 H         1 UNK         0.0970 
    115 H115       20.5991  -34.1800  -42.8877 H         1 UNK         0.0970 
    116 H116       18.8363  -33.2293  -45.0080 H         1 UNK         0.0612 
    117 H117       20.4500  -32.6067  -44.7552 H         1 UNK         0.0612 
@<TRIPOS>BOND
     1    1    2 1    
     2    1   62 1    
     3    1   63 1    
     4    1   64 1    
     5    2    3 2    
     6    2    4 am   BACKBONE|DICT|INTERRES
     7    4    5 1    
     8    4   65 1    
     9    5    6 1    
    10    5   25 1    
    11    5   66 1    
    12    6    7 1    
    13    6   67 1    
    14    6   68 1    
    15    7    8 1    
    16    8    9 1    
    17    8   69 1    
    18    8   70 1    
    19    9   10 ar   
    20    9   14 ar   
    21   10   11 ar   
    22   10   71 1    
    23   11   12 ar   
    24   11   61 1    
    25   12   13 ar   
    26   12   72 1    
    27   13   14 ar   
    28   13   15 1    
    29   14   73 1    
    30   15   16 1    
    31   15   74 1    
    32   15   75 1    
    33   16   17 1    
    34   17   18 1    
    35   17   76 1    
    36   17   77 1    
    37   18   19 1    
    38   18   27 1    
    39   18   78 1    
    40   19   20 am   BACKBONE|DICT|INTERRES
    41   19   79 1    
    42   20   21 2    
    43   20   22 1    
    44   22   23 1    
    45   22   24 1    
    46   22   80 1    
    47   23   81 1    
    48   23   82 1    
    49   23   83 1    
    50   24   25 am   BACKBONE|DICT|INTERRES
    51   24   84 1    
    52   25   26 2    
    53   27   28 2    
    54   27   29 am   BACKBONE|DICT|INTERRES
    55   29   30 1    
    56   29   85 1    
    57   30   31 1    
    58   30   32 1    
    59   30   86 1    
    60   31   87 1    
    61   31   88 1    
    62   31   89 1    
    63   32   33 2    
    64   32   34 am   BACKBONE|DICT|INTERRES
    65   34   35 1    
    66   34   90 1    
    67   35   36 1    
    68   35   37 1    
    69   35   91 1    
    70   36   92 1    
    71   36   93 1    
    72   36   94 1    
    73   37   38 2    
    74   37   39 am   BACKBONE|DICT|INTERRES
    75   39   40 1    
    76   39   95 1    
    77   40   41 1    
    78   40   42 1    
    79   40   96 1    
    80   41   97 1    
    81   41   98 1    
    82   41   99 1    
    83   42   43 2    
    84   42   44 am   BACKBONE|DICT|INTERRES
    85   44   45 1    
    86   44  100 1    
    87   45   46 1    
    88   45   47 1    
    89   45  101 1    
    90   46  102 1    
    91   46  103 1    
    92   46  104 1    
    93   47   48 2    
    94   47   49 am   BACKBONE|DICT|INTERRES
    95   49   50 1    
    96   49  105 1    
    97   50   51 1    
    98   50   52 1    
    99   50  106 1    
   100   51  107 1    
   101   51  108 1    
   102   51  109 1    
   103   52   53 2    
   104   52   54 am   BACKBONE|DICT|INTERRES
   105   54   55 1    
   106   54  110 1    
   107   55   56 1    
   108   55   59 1    
   109   55  111 1    
   110   56   57 am   BACKBONE|DICT|INTERRES
   111   56   58 2    
   112   57  112 1    
   113   57  113 1    
   114   59   60 1    
   115   59  114 1    
   116   59  115 1    
   117   60   61 1    
   118   61  116 1    
   119   61  117 1    
@<TRIPOS>SUBSTRUCTURE
     1 UNK         1 GROUP             0       ****    0 ROOT    
