@<TRIPOS>MOLECULE
3R8
117   119    1
SMALL
USER_CHARGES


@<TRIPOS>ATOM
      1 CA         23.2461  -29.0716  -43.8210 C.3       0 UNK        -0.2013 
      2 C          21.9106  -28.5557  -44.3357 C.2       0 UNK         0.4866 
      3 O          21.0919  -28.0893  -43.5405 O.2       0 UNK        -0.5176 
      4 N          21.6873  -28.6341  -45.6551 N.am      1 UNK        -0.4884 
      5 CA         20.4564  -28.1904  -46.3200 C.3       1 UNK         0.0853 
      6 C6         20.3219  -28.7446  -47.7610 C.3       10 UNK        -0.0849 
      7 S7         19.9569  -30.5298  -47.7605 S.3       10 UNK        -0.2776 
      8 C8         18.1295  -30.5384  -47.6524 C.3       10 UNK         0.0316 
      9 C9         17.6150  -30.1863  -46.2581 C.ar      10 UNK        -0.0863 
     10 C10        18.0071  -30.9570  -45.1604 C.ar      10 UNK        -0.1009 
     11 C11        17.5365  -30.6622  -43.8801 C.ar      10 UNK        -0.0712 
     12 C12        16.6538  -29.5960  -43.6986 C.ar      10 UNK        -0.0894 
     13 C13        16.2573  -28.7980  -44.7806 C.ar      10 UNK        -0.0745 
     14 C14        16.7410  -29.1088  -46.0597 C.ar      10 UNK        -0.0972 
     15 C15        15.2829  -27.6224  -44.6240 C.3       10 UNK         0.0209 
     16 S16        14.8852  -27.1110  -42.9073 S.3       10 UNK        -0.2568 
     17 C17        16.1861  -25.9467  -42.3389 C.3       10 UNK        -0.0983 
     18 CA         17.6589  -26.2899  -42.7092 C.3       3 UNK         0.0876 
     19 N          17.9557  -26.0649  -44.1257 N.am      3 UNK        -0.4424 
     20 C          18.0272  -24.8945  -44.7834 C.2       2 UNK         0.4918 
     21 O          17.8323  -23.7952  -44.2646 O.2       2 UNK        -0.4875 
     22 CA         18.3628  -24.9835  -46.2881 C.3       2 UNK         0.0481 
     23 CB         19.1508  -23.7607  -46.8043 C.3       2 UNK        -0.1831 
     24 N          19.0147  -26.2567  -46.6276 N.am      2 UNK        -0.4498 
     25 C          20.2407  -26.6637  -46.2597 C.2       1 UNK         0.5027 
     26 O          21.1209  -25.9154  -45.8295 O.2       1 UNK        -0.4969 
     27 C          18.7161  -25.6137  -41.8007 C.2       3 UNK         0.5005 
     28 O          18.3825  -25.0901  -40.7356 O.2       3 UNK        -0.5279 
     29 N          19.9823  -25.6355  -42.2443 N.am      4 UNK        -0.4463 
     30 CA         21.1324  -25.1030  -41.5141 C.3       4 UNK         0.0283 
     31 CB         22.2449  -24.7445  -42.5130 C.3       4 UNK        -0.1875 
     32 C          21.6491  -26.1005  -40.4670 C.2       4 UNK         0.4949 
     33 O          22.0866  -25.6778  -39.3973 O.2       4 UNK        -0.5039 
     34 N          21.5930  -27.3993  -40.8033 N.am      5 UNK        -0.4663 
     35 CA         21.9918  -28.5545  -39.9889 C.3       5 UNK         0.0242 
     36 CB         21.0606  -28.7147  -38.7696 C.3       5 UNK        -0.1982 
     37 C          23.4857  -28.5793  -39.6046 C.2       5 UNK         0.5017 
     38 O          23.8463  -29.2029  -38.6056 O.2       5 UNK        -0.5012 
     39 N          24.3343  -27.9318  -40.4180 N.am      6 UNK        -0.4439 
     40 CA         25.7836  -27.8079  -40.2157 C.3       6 UNK         0.0297 
     41 CB         26.3682  -26.8688  -41.2831 C.3       6 UNK        -0.2006 
     42 C          26.5325  -29.1534  -40.2107 C.2       6 UNK         0.4892 
     43 O          27.4685  -29.3227  -39.4296 O.2       6 UNK        -0.5089 
     44 N          26.0796  -30.0911  -41.0528 N.am      7 UNK        -0.4243 
     45 CA         26.5609  -31.4739  -41.1278 C.3       7 UNK         0.0196 
     46 CB         26.7655  -31.8462  -42.6088 C.3       7 UNK        -0.2007 
     47 C          25.5835  -32.4280  -40.4139 C.2       7 UNK         0.5020 
     48 O          25.2989  -33.5127  -40.9241 O.2       7 UNK        -0.5147 
     49 N          25.0192  -31.9753  -39.2821 N.am      8 UNK        -0.4734 
     50 CA         23.9800  -32.6294  -38.4661 C.3       8 UNK         0.0238 
     51 CB         24.5226  -33.9243  -37.8253 C.3       8 UNK        -0.1912 
     52 C          22.6485  -32.8627  -39.2130 C.2       8 UNK         0.5038 
     53 O          21.8218  -33.6546  -38.7583 O.2       8 UNK        -0.5046 
     54 N          22.4748  -32.1721  -40.3475 N.am      9 UNK        -0.4200 
     55 CA         21.3938  -32.3422  -41.3275 C.3       9 UNK         0.0839 
     56 C          21.4225  -33.7117  -42.0751 C.2       9 UNK         0.5513 
     57 N          22.5484  -34.4177  -42.1095 N.am      9 UNK        -0.7519 
     58 O          20.4272  -34.1321  -42.6579 O.2       9 UNK        -0.4960 
     59 C59        19.9950  -31.9400  -40.7605 C.3       10 UNK        -0.0876 
     60 S60        19.2402  -30.5915  -41.7280 S.3       10 UNK        -0.2414 
     61 C61        17.9892  -31.4908  -42.6900 C.3       10 UNK         0.0169 
     62 H62        23.0872  -29.7464  -42.9815 H         1 UNK         0.0903 
     63 H63        23.7946  -29.6143  -44.5908 H         1 UNK         0.0903 
     64 H64        23.8630  -28.2385  -43.4869 H         1 UNK         0.0903 
     65 H65        22.4012  -29.0110  -46.2614 H         1 UNK         0.3096 
     66 H66        19.6454  -28.6016  -45.7190 H         1 UNK         0.1121 
     67 H67        21.2415  -28.5718  -48.3228 H         1 UNK         0.0849 
     68 H68        19.5351  -28.2464  -48.3297 H         1 UNK         0.0849 
     69 H69        17.7142  -29.8695  -48.4077 H         1 UNK         0.0865 
     70 H70        17.7730  -31.5373  -47.9077 H         1 UNK         0.0865 
     71 H71        18.6886  -31.7848  -45.3040 H         1 UNK         0.1346 
     72 H72        16.2912  -29.3960  -42.7008 H         1 UNK         0.1412 
     73 H73        16.4197  -28.5179  -46.9071 H         1 UNK         0.1426 
     74 H74        15.6234  -26.7571  -45.1922 H         1 UNK         0.0716 
     75 H75        14.3436  -27.9232  -45.0898 H         1 UNK         0.0716 
     76 H76        16.0673  -25.9150  -41.2547 H         1 UNK         0.0695 
     77 H77        15.9278  -24.9448  -42.6842 H         1 UNK         0.0695 
     78 H78        17.8014  -27.3558  -42.5289 H         1 UNK         0.0983 
     79 H79        18.1264  -26.9063  -44.6537 H         1 UNK         0.3095 
     80 H80        17.4039  -24.9937  -46.8082 H         1 UNK         0.0454 
     81 H81        19.4238  -23.8759  -47.8530 H         1 UNK         0.0851 
     82 H82        18.5521  -22.8528  -46.7239 H         1 UNK         0.0851 
     83 H83        20.0642  -23.5906  -46.2341 H         1 UNK         0.0851 
     84 H84        18.3969  -26.9417  -47.0397 H         1 UNK         0.2976 
     85 H85        20.1873  -26.1385  -43.1000 H         1 UNK         0.3116 
     86 H86        20.8343  -24.1897  -40.9946 H         1 UNK         0.0646 
     87 H87        21.9077  -23.9905  -43.2246 H         1 UNK         0.0847 
     88 H88        23.1169  -24.3382  -41.9987 H         1 UNK         0.0847 
     89 H89        22.5754  -25.6128  -43.0844 H         1 UNK         0.0847 
     90 H90        21.2432  -27.6273  -41.7332 H         1 UNK         0.3040 
     91 H91        21.8391  -29.4236  -40.6274 H         1 UNK         0.1015 
     92 H92        21.1928  -27.9058  -38.0505 H         1 UNK         0.0786 
     93 H93        21.2554  -29.6516  -38.2462 H         1 UNK         0.0786 
     94 H94        20.0135  -28.7282  -39.0723 H         1 UNK         0.0786 
     95 H95        23.9366  -27.4205  -41.1914 H         1 UNK         0.3172 
     96 H96        25.9361  -27.3465  -39.2378 H         1 UNK         0.0595 
     97 H97        26.2206  -27.2566  -42.2919 H         1 UNK         0.0839 
     98 H98        27.4418  -26.7373  -41.1399 H         1 UNK         0.0839 
     99 H99        25.9149  -25.8785  -41.2332 H         1 UNK         0.0839 
    100 H100       25.3068  -29.8501  -41.6543 H         1 UNK         0.2998 
    101 H101       27.5240  -31.5686  -40.6218 H         1 UNK         0.0822 
    102 H102       27.1814  -32.8499  -42.7073 H         1 UNK         0.0787 
    103 H103       25.8277  -31.8249  -43.1655 H         1 UNK         0.0787 
    104 H104       27.4605  -31.1621  -43.0962 H         1 UNK         0.0787 
    105 H105       25.2792  -31.0473  -38.9686 H         1 UNK         0.3055 
    106 H106       23.7455  -31.9329  -37.6591 H         1 UNK         0.1106 
    107 H107       23.8121  -34.3340  -37.1063 H         1 UNK         0.0828 
    108 H108       24.7106  -34.6979  -38.5703 H         1 UNK         0.0828 
    109 H109       25.4533  -33.7417  -37.2883 H         1 UNK         0.0828 
    110 H110       23.2392  -31.5830  -40.6355 H         1 UNK         0.2931 
    111 H111       21.6591  -31.6328  -42.1119 H         1 UNK         0.0412 
    112 H112       22.5599  -35.2961  -42.6031 H         1 UNK         0.3472 
    113 H113       23.3900  -34.0881  -41.6515 H         1 UNK         0.3472 
    114 H114       20.0792  -31.5755  -39.7359 H         1 UNK         0.0970 
    115 H115       19.3128  -32.7896  -40.6968 H         1 UNK         0.0970 
    116 H116       17.1382  -31.7273  -42.0497 H         1 UNK         0.0612 
    117 H117       18.3988  -32.4425  -43.0297 H         1 UNK         0.0612 
@<TRIPOS>BOND
     1    1    2 1    
     2    1   62 1    
     3    1   63 1    
     4    1   64 1    
     5    2    3 2    
     6    2    4 am   BACKBONE|DICT|INTERRES
     7    4    5 1    
     8    4   65 1    
     9    5    6 1    
    10    5   25 1    
    11    5   66 1    
    12    6    7 1    
    13    6   67 1    
    14    6   68 1    
    15    7    8 1    
    16    8    9 1    
    17    8   69 1    
    18    8   70 1    
    19    9   10 ar   
    20    9   14 ar   
    21   10   11 ar   
    22   10   71 1    
    23   11   12 ar   
    24   11   61 1    
    25   12   13 ar   
    26   12   72 1    
    27   13   14 ar   
    28   13   15 1    
    29   14   73 1    
    30   15   16 1    
    31   15   74 1    
    32   15   75 1    
    33   16   17 1    
    34   17   18 1    
    35   17   76 1    
    36   17   77 1    
    37   18   19 1    
    38   18   27 1    
    39   18   78 1    
    40   19   20 am   BACKBONE|DICT|INTERRES
    41   19   79 1    
    42   20   21 2    
    43   20   22 1    
    44   22   23 1    
    45   22   24 1    
    46   22   80 1    
    47   23   81 1    
    48   23   82 1    
    49   23   83 1    
    50   24   25 am   BACKBONE|DICT|INTERRES
    51   24   84 1    
    52   25   26 2    
    53   27   28 2    
    54   27   29 am   BACKBONE|DICT|INTERRES
    55   29   30 1    
    56   29   85 1    
    57   30   31 1    
    58   30   32 1    
    59   30   86 1    
    60   31   87 1    
    61   31   88 1    
    62   31   89 1    
    63   32   33 2    
    64   32   34 am   BACKBONE|DICT|INTERRES
    65   34   35 1    
    66   34   90 1    
    67   35   36 1    
    68   35   37 1    
    69   35   91 1    
    70   36   92 1    
    71   36   93 1    
    72   36   94 1    
    73   37   38 2    
    74   37   39 am   BACKBONE|DICT|INTERRES
    75   39   40 1    
    76   39   95 1    
    77   40   41 1    
    78   40   42 1    
    79   40   96 1    
    80   41   97 1    
    81   41   98 1    
    82   41   99 1    
    83   42   43 2    
    84   42   44 am   BACKBONE|DICT|INTERRES
    85   44   45 1    
    86   44  100 1    
    87   45   46 1    
    88   45   47 1    
    89   45  101 1    
    90   46  102 1    
    91   46  103 1    
    92   46  104 1    
    93   47   48 2    
    94   47   49 am   BACKBONE|DICT|INTERRES
    95   49   50 1    
    96   49  105 1    
    97   50   51 1    
    98   50   52 1    
    99   50  106 1    
   100   51  107 1    
   101   51  108 1    
   102   51  109 1    
   103   52   53 2    
   104   52   54 am   BACKBONE|DICT|INTERRES
   105   54   55 1    
   106   54  110 1    
   107   55   56 1    
   108   55   59 1    
   109   55  111 1    
   110   56   57 am   BACKBONE|DICT|INTERRES
   111   56   58 2    
   112   57  112 1    
   113   57  113 1    
   114   59   60 1    
   115   59  114 1    
   116   59  115 1    
   117   60   61 1    
   118   61  116 1    
   119   61  117 1    
@<TRIPOS>SUBSTRUCTURE
     1 UNK         1 GROUP             0       ****    0 ROOT    
