@<TRIPOS>MOLECULE
3R8
117   119    1
SMALL
USER_CHARGES


@<TRIPOS>ATOM
      1 CA         15.0165  -23.9762  -46.7647 C.3       0 UNK        -0.2013 
      2 C          15.4188  -25.3636  -46.2876 C.2       0 UNK         0.4866 
      3 O          15.5047  -26.2891  -47.0951 O.2       0 UNK        -0.5176 
      4 N          15.6674  -25.5164  -44.9836 N.am      1 UNK        -0.4884 
      5 CA         16.1131  -26.7531  -44.3465 C.3       1 UNK         0.0853 
      6 C6         14.9332  -27.7329  -44.1076 C.3       10 UNK        -0.0849 
      7 S7         15.3863  -29.4071  -43.5316 S.3       10 UNK        -0.2776 
      8 C8         16.3195  -30.0978  -44.9396 C.3       10 UNK         0.0316 
      9 C9         17.8171  -29.8538  -44.7969 C.ar      10 UNK        -0.0863 
     10 C10        18.5217  -30.4406  -43.7413 C.ar      10 UNK        -0.1009 
     11 C11        19.8933  -30.2195  -43.5933 C.ar      10 UNK        -0.0712 
     12 C12        20.5616  -29.3941  -44.5018 C.ar      10 UNK        -0.0894 
     13 C13        19.8713  -28.8094  -45.5664 C.ar      10 UNK        -0.0745 
     14 C14        18.5036  -29.0562  -45.7183 C.ar      10 UNK        -0.0972 
     15 C15        20.5997  -27.9277  -46.5687 C.3       10 UNK         0.0209 
     16 S16        20.4728  -26.1647  -46.1323 S.3       10 UNK        -0.2568 
     17 C17        21.8632  -25.9415  -44.9690 C.3       10 UNK        -0.0983 
     18 CA         21.4037  -25.3819  -43.5990 C.3       3 UNK         0.0876 
     19 N          20.4904  -26.3139  -42.9271 N.am      3 UNK        -0.4424 
     20 C          19.7443  -26.0539  -41.8462 C.2       2 UNK         0.4918 
     21 O          19.8178  -25.0174  -41.1851 O.2       2 UNK        -0.4875 
     22 CA         18.7068  -27.1367  -41.4997 C.3       2 UNK         0.0481 
     23 CB         17.9981  -26.8970  -40.1504 C.3       2 UNK        -0.1831 
     24 N          17.7402  -27.2967  -42.5935 N.am      2 UNK        -0.4498 
     25 C          16.8912  -26.3736  -43.0731 C.2       1 UNK         0.5027 
     26 O          16.7229  -25.2561  -42.5752 O.2       1 UNK        -0.4969 
     27 C          22.6227  -24.9301  -42.7609 C.2       3 UNK         0.5005 
     28 O          23.3115  -23.9996  -43.1817 O.2       3 UNK        -0.5279 
     29 N          22.9048  -25.5920  -41.6279 N.am      4 UNK        -0.4463 
     30 CA         23.9786  -25.3354  -40.6507 C.3       4 UNK         0.0283 
     31 CB         23.9250  -23.8991  -40.0944 C.3       4 UNK        -0.1875 
     32 C          25.3922  -25.6953  -41.1433 C.2       4 UNK         0.4949 
     33 O          26.2133  -26.1305  -40.3362 O.2       4 UNK        -0.5039 
     34 N          25.6389  -25.5795  -42.4554 N.am      5 UNK        -0.4663 
     35 CA         26.7961  -26.1526  -43.1549 C.3       5 UNK         0.0242 
     36 CB         26.8313  -25.6135  -44.5937 C.3       5 UNK        -0.1982 
     37 C          26.7782  -27.6951  -43.1538 C.2       5 UNK         0.5017 
     38 O          27.8352  -28.3191  -43.2509 O.2       5 UNK        -0.5012 
     39 N          25.5783  -28.2657  -43.0078 N.am      6 UNK        -0.4439 
     40 CA         25.3040  -29.6509  -42.6588 C.3       6 UNK         0.0297 
     41 CB         24.8013  -30.4073  -43.8987 C.3       6 UNK        -0.2006 
     42 C          24.2377  -29.6162  -41.5561 C.2       6 UNK         0.4892 
     43 O          23.4533  -28.6630  -41.4985 O.2       6 UNK        -0.5089 
     44 N          24.2222  -30.6488  -40.7111 N.am      7 UNK        -0.4243 
     45 CA         23.2923  -30.8184  -39.5984 C.3       7 UNK         0.0196 
     46 CB         23.8440  -30.1132  -38.3463 C.3       7 UNK        -0.2007 
     47 C          23.0925  -32.3182  -39.3546 C.2       7 UNK         0.5020 
     48 O          23.9393  -33.1165  -39.7649 O.2       7 UNK        -0.5147 
     49 N          21.9793  -32.6655  -38.6901 N.am      8 UNK        -0.4734 
     50 CA         21.5178  -34.0339  -38.3971 C.3       8 UNK         0.0238 
     51 CB         22.4612  -34.7302  -37.3920 C.3       8 UNK        -0.1912 
     52 C          21.2794  -34.8648  -39.6762 C.2       8 UNK         0.5038 
     53 O          21.6413  -36.0417  -39.7325 O.2       8 UNK        -0.5046 
     54 N          20.6939  -34.2117  -40.6878 N.am      9 UNK        -0.4200 
     55 CA         20.4913  -34.7417  -42.0458 C.3       9 UNK         0.0839 
     56 C          19.3799  -35.8238  -42.1745 C.2       9 UNK         0.5513 
     57 N          18.5496  -36.0523  -41.1641 N.am      9 UNK        -0.7519 
     58 O          19.2724  -36.4705  -43.2132 O.2       9 UNK        -0.4960 
     59 C59        20.2758  -33.6017  -43.0779 C.3       10 UNK        -0.0876 
     60 S60        21.5863  -32.3281  -43.0183 S.3       10 UNK        -0.2414 
     61 C61        20.6596  -30.8669  -42.4529 C.3       10 UNK         0.0169 
     62 H62        14.0336  -24.0113  -47.2340 H         1 UNK         0.0903 
     63 H63        14.9752  -23.2592  -45.9449 H         1 UNK         0.0903 
     64 H64        15.7326  -23.6101  -47.4999 H         1 UNK         0.0903 
     65 H65        15.6399  -24.7253  -44.3499 H         1 UNK         0.3096 
     66 H66        16.8277  -27.2079  -45.0271 H         1 UNK         0.1121 
     67 H67        14.3617  -27.8551  -45.0291 H         1 UNK         0.0849 
     68 H68        14.2342  -27.3048  -43.3867 H         1 UNK         0.0849 
     69 H69        16.1437  -31.1737  -44.9819 H         1 UNK         0.0865 
     70 H70        15.9363  -29.6906  -45.8769 H         1 UNK         0.0865 
     71 H71        17.9967  -31.0685  -43.0340 H         1 UNK         0.1346 
     72 H72        21.6228  -29.2228  -44.3866 H         1 UNK         0.1412 
     73 H73        17.9726  -28.6123  -46.5504 H         1 UNK         0.1426 
     74 H74        20.1655  -28.0706  -47.5594 H         1 UNK         0.0716 
     75 H75        21.6470  -28.2209  -46.6574 H         1 UNK         0.0716 
     76 H76        22.5657  -25.2582  -45.4508 H         1 UNK         0.0695 
     77 H77        22.4023  -26.8810  -44.8365 H         1 UNK         0.0695 
     78 H78        20.8322  -24.4703  -43.7876 H         1 UNK         0.0983 
     79 H79        20.3275  -27.1818  -43.4171 H         1 UNK         0.3095 
     80 H80        19.2476  -28.0811  -41.4211 H         1 UNK         0.0454 
     81 H81        18.7203  -26.8724  -39.3336 H         1 UNK         0.0851 
     82 H82        17.2863  -27.6924  -39.9308 H         1 UNK         0.0851 
     83 H83        17.4584  -25.9499  -40.1306 H         1 UNK         0.0851 
     84 H84        17.7731  -28.1893  -43.0709 H         1 UNK         0.2976 
     85 H85        22.3324  -26.3992  -41.4174 H         1 UNK         0.3116 
     86 H86        23.7685  -26.0109  -39.8197 H         1 UNK         0.0646 
     87 H87        24.1769  -23.1555  -40.8507 H         1 UNK         0.0847 
     88 H88        22.9350  -23.6613  -39.7053 H         1 UNK         0.0847 
     89 H89        24.6341  -23.7755  -39.2750 H         1 UNK         0.0847 
     90 H90        24.9280  -25.1226  -43.0186 H         1 UNK         0.3040 
     91 H91        27.7030  -25.8324  -42.6372 H         1 UNK         0.1015 
     92 H92        27.6939  -26.0041  -45.1356 H         1 UNK         0.0786 
     93 H93        26.9063  -24.5259  -44.6079 H         1 UNK         0.0786 
     94 H94        25.9385  -25.8960  -45.1533 H         1 UNK         0.0786 
     95 H95        24.7859  -27.6542  -42.8571 H         1 UNK         0.3172 
     96 H96        26.2043  -30.1307  -42.2686 H         1 UNK         0.0595 
     97 H97        23.8868  -29.9686  -44.2977 H         1 UNK         0.0839 
     98 H98        24.5861  -31.4496  -43.6602 H         1 UNK         0.0839 
     99 H99        25.5478  -30.4035  -44.6930 H         1 UNK         0.0839 
    100 H100       24.8393  -31.4388  -40.8573 H         1 UNK         0.2998 
    101 H101       22.3261  -30.3838  -39.8618 H         1 UNK         0.0822 
    102 H102       23.1664  -30.2255  -37.4991 H         1 UNK         0.0787 
    103 H103       24.8107  -30.5216  -38.0490 H         1 UNK         0.0787 
    104 H104       23.9716  -29.0440  -38.5182 H         1 UNK         0.0787 
    105 H105       21.3628  -31.9260  -38.3798 H         1 UNK         0.3055 
    106 H106       20.5427  -33.9392  -37.9160 H         1 UNK         0.1106 
    107 H107       22.5971  -34.1291  -36.4931 H         1 UNK         0.0828 
    108 H108       22.0555  -35.6928  -37.0781 H         1 UNK         0.0828 
    109 H109       23.4455  -34.9190  -37.8213 H         1 UNK         0.0828 
    110 H110       20.4380  -33.2469  -40.5495 H         1 UNK         0.2931 
    111 H111       21.4204  -35.2449  -42.3213 H         1 UNK         0.0412 
    112 H112       18.6329  -35.5316  -40.3059 H         1 UNK         0.3472 
    113 H113       17.8366  -36.7586  -41.2597 H         1 UNK         0.3472 
    114 H114       20.2609  -34.0074  -44.0913 H         1 UNK         0.0970 
    115 H115       19.2998  -33.1380  -42.9305 H         1 UNK         0.0970 
    116 H116       19.9920  -31.1398  -41.6345 H         1 UNK         0.0612 
    117 H117       21.3581  -30.1403  -42.0429 H         1 UNK         0.0612 
@<TRIPOS>BOND
     1    1    2 1    
     2    1   62 1    
     3    1   63 1    
     4    1   64 1    
     5    2    3 2    
     6    2    4 am   BACKBONE|DICT|INTERRES
     7    4    5 1    
     8    4   65 1    
     9    5    6 1    
    10    5   25 1    
    11    5   66 1    
    12    6    7 1    
    13    6   67 1    
    14    6   68 1    
    15    7    8 1    
    16    8    9 1    
    17    8   69 1    
    18    8   70 1    
    19    9   10 ar   
    20    9   14 ar   
    21   10   11 ar   
    22   10   71 1    
    23   11   12 ar   
    24   11   61 1    
    25   12   13 ar   
    26   12   72 1    
    27   13   14 ar   
    28   13   15 1    
    29   14   73 1    
    30   15   16 1    
    31   15   74 1    
    32   15   75 1    
    33   16   17 1    
    34   17   18 1    
    35   17   76 1    
    36   17   77 1    
    37   18   19 1    
    38   18   27 1    
    39   18   78 1    
    40   19   20 am   BACKBONE|DICT|INTERRES
    41   19   79 1    
    42   20   21 2    
    43   20   22 1    
    44   22   23 1    
    45   22   24 1    
    46   22   80 1    
    47   23   81 1    
    48   23   82 1    
    49   23   83 1    
    50   24   25 am   BACKBONE|DICT|INTERRES
    51   24   84 1    
    52   25   26 2    
    53   27   28 2    
    54   27   29 am   BACKBONE|DICT|INTERRES
    55   29   30 1    
    56   29   85 1    
    57   30   31 1    
    58   30   32 1    
    59   30   86 1    
    60   31   87 1    
    61   31   88 1    
    62   31   89 1    
    63   32   33 2    
    64   32   34 am   BACKBONE|DICT|INTERRES
    65   34   35 1    
    66   34   90 1    
    67   35   36 1    
    68   35   37 1    
    69   35   91 1    
    70   36   92 1    
    71   36   93 1    
    72   36   94 1    
    73   37   38 2    
    74   37   39 am   BACKBONE|DICT|INTERRES
    75   39   40 1    
    76   39   95 1    
    77   40   41 1    
    78   40   42 1    
    79   40   96 1    
    80   41   97 1    
    81   41   98 1    
    82   41   99 1    
    83   42   43 2    
    84   42   44 am   BACKBONE|DICT|INTERRES
    85   44   45 1    
    86   44  100 1    
    87   45   46 1    
    88   45   47 1    
    89   45  101 1    
    90   46  102 1    
    91   46  103 1    
    92   46  104 1    
    93   47   48 2    
    94   47   49 am   BACKBONE|DICT|INTERRES
    95   49   50 1    
    96   49  105 1    
    97   50   51 1    
    98   50   52 1    
    99   50  106 1    
   100   51  107 1    
   101   51  108 1    
   102   51  109 1    
   103   52   53 2    
   104   52   54 am   BACKBONE|DICT|INTERRES
   105   54   55 1    
   106   54  110 1    
   107   55   56 1    
   108   55   59 1    
   109   55  111 1    
   110   56   57 am   BACKBONE|DICT|INTERRES
   111   56   58 2    
   112   57  112 1    
   113   57  113 1    
   114   59   60 1    
   115   59  114 1    
   116   59  115 1    
   117   60   61 1    
   118   61  116 1    
   119   61  117 1    
@<TRIPOS>SUBSTRUCTURE
     1 UNK         1 GROUP             0       ****    0 ROOT    
