@<TRIPOS>MOLECULE
3R8
117   119    1
SMALL
USER_CHARGES


@<TRIPOS>ATOM
      1 CA         19.4659  -22.6970  -44.8036 C.3       0 UNK        -0.2013 
      2 C          18.3524  -23.0719  -43.8285 C.2       0 UNK         0.4866 
      3 O          17.9329  -22.2265  -43.0406 O.2       0 UNK        -0.5176 
      4 N          17.8334  -24.3076  -43.8409 N.am      1 UNK        -0.4884 
      5 CA         18.2342  -25.4399  -44.6844 C.3       1 UNK         0.0853 
      6 C6         17.0378  -26.3926  -44.9549 C.3       10 UNK        -0.0849 
      7 S7         16.3494  -27.1706  -43.4535 S.3       10 UNK        -0.2776 
      8 C8         15.6373  -28.7050  -44.1361 C.3       10 UNK         0.0316 
      9 C9         16.5473  -29.9136  -43.9486 C.ar      10 UNK        -0.0863 
     10 C10        16.9797  -30.6706  -45.0452 C.ar      10 UNK        -0.1009 
     11 C11        17.7127  -31.8495  -44.8514 C.ar      10 UNK        -0.0712 
     12 C12        18.0401  -32.2446  -43.5517 C.ar      10 UNK        -0.0894 
     13 C13        17.6329  -31.4869  -42.4527 C.ar      10 UNK        -0.0745 
     14 C14        16.8804  -30.3287  -42.6563 C.ar      10 UNK        -0.0972 
     15 C15        17.9727  -31.9518  -41.0472 C.3       10 UNK         0.0209 
     16 S16        19.6282  -31.3977  -40.5486 S.3       10 UNK        -0.2568 
     17 C17        19.3050  -29.6756  -40.0450 C.3       10 UNK        -0.0983 
     18 CA         20.3652  -28.7048  -40.6198 C.3       3 UNK         0.0876 
     19 N          20.2005  -28.4509  -42.0582 N.am      3 UNK        -0.4424 
     20 C          21.0889  -28.8035  -42.9977 C.2       2 UNK         0.4918 
     21 O          22.0100  -29.5944  -42.7915 O.2       2 UNK        -0.4875 
     22 CA         20.9646  -28.1502  -44.3958 C.3       2 UNK         0.0481 
     23 CB         21.1099  -29.1603  -45.5399 C.3       2 UNK        -0.1831 
     24 N          19.7518  -27.3678  -44.6370 N.am      2 UNK        -0.4498 
     25 C          19.4871  -26.1589  -44.1320 C.2       1 UNK         0.5027 
     26 O          20.1941  -25.6262  -43.2728 O.2       1 UNK        -0.4969 
     27 C          20.4593  -27.3907  -39.8115 C.2       3 UNK         0.5005 
     28 O          20.5536  -27.4507  -38.5840 O.2       3 UNK        -0.5279 
     29 N          20.4719  -26.2329  -40.4874 N.am      4 UNK        -0.4463 
     30 CA         20.9096  -24.9528  -39.9278 C.3       4 UNK         0.0283 
     31 CB         19.9166  -23.8425  -40.3057 C.3       4 UNK        -0.1875 
     32 C          22.3161  -24.6450  -40.4610 C.2       4 UNK         0.4949 
     33 O          23.2097  -24.3195  -39.6794 O.2       4 UNK        -0.5039 
     34 N          22.4991  -24.8027  -41.7791 N.am      5 UNK        -0.4663 
     35 CA         23.7931  -24.8002  -42.4525 C.3       5 UNK         0.0242 
     36 CB         23.5919  -24.3228  -43.9027 C.3       5 UNK        -0.1982 
     37 C          24.3756  -26.2214  -42.3859 C.2       5 UNK         0.5017 
     38 O          24.0566  -27.0420  -43.2452 O.2       5 UNK        -0.5012 
     39 N          25.1824  -26.4856  -41.3493 N.am      6 UNK        -0.4439 
     40 CA         25.7164  -27.7958  -40.9501 C.3       6 UNK         0.0297 
     41 CB         26.4987  -28.4906  -42.0905 C.3       6 UNK        -0.2006 
     42 C          24.6281  -28.6702  -40.2930 C.2       6 UNK         0.4892 
     43 O          23.7494  -28.1251  -39.6231 O.2       6 UNK        -0.5089 
     44 N          24.7308  -29.9972  -40.4295 N.am      7 UNK        -0.4243 
     45 CA         23.8498  -30.9816  -39.8042 C.3       7 UNK         0.0196 
     46 CB         24.3937  -31.3478  -38.4114 C.3       7 UNK        -0.2007 
     47 C          23.7460  -32.2221  -40.6966 C.2       7 UNK         0.5020 
     48 O          24.6077  -32.4327  -41.5537 O.2       7 UNK        -0.5147 
     49 N          22.6988  -33.0269  -40.4616 N.am      8 UNK        -0.4734 
     50 CA         22.3880  -34.3074  -41.1197 C.3       8 UNK         0.0238 
     51 CB         23.4147  -35.3833  -40.7054 C.3       8 UNK        -0.1912 
     52 C          22.2272  -34.2052  -42.6512 C.2       8 UNK         0.5038 
     53 O          22.5323  -35.1603  -43.3676 O.2       8 UNK        -0.5046 
     54 N          21.7620  -33.0417  -43.1208 N.am      9 UNK        -0.4200 
     55 CA         21.6991  -32.6406  -44.5319 C.3       9 UNK         0.0839 
     56 C          23.0902  -32.3949  -45.2005 C.2       9 UNK         0.5513 
     57 N          24.1855  -32.2906  -44.4569 N.am      9 UNK        -0.7519 
     58 O          23.1844  -32.2730  -46.4188 O.2       9 UNK        -0.4960 
     59 C59        20.7480  -33.5285  -45.3905 C.3       10 UNK        -0.0876 
     60 S60        19.7887  -32.5462  -46.6006 S.3       10 UNK        -0.2414 
     61 C61        18.0700  -32.7458  -46.0322 C.3       10 UNK         0.0169 
     62 H62        20.3356  -23.3408  -44.6794 H         1 UNK         0.0903 
     63 H63        19.1188  -22.7633  -45.8341 H         1 UNK         0.0903 
     64 H64        19.7920  -21.6715  -44.6313 H         1 UNK         0.0903 
     65 H65        17.1165  -24.5303  -43.1647 H         1 UNK         0.3096 
     66 H66        18.5347  -25.0488  -45.6580 H         1 UNK         0.1121 
     67 H67        17.3065  -27.1634  -45.6792 H         1 UNK         0.0849 
     68 H68        16.2328  -25.8302  -45.4312 H         1 UNK         0.0849 
     69 H69        15.3762  -28.5649  -45.1862 H         1 UNK         0.0865 
     70 H70        14.6960  -28.9034  -43.6215 H         1 UNK         0.0865 
     71 H71        16.7031  -30.3724  -46.0473 H         1 UNK         0.1346 
     72 H72        18.5901  -33.1586  -43.3846 H         1 UNK         0.1412 
     73 H73        16.5313  -29.7571  -41.8075 H         1 UNK         0.1426 
     74 H74        17.9417  -33.0415  -41.0044 H         1 UNK         0.0716 
     75 H75        17.2300  -31.6004  -40.3292 H         1 UNK         0.0716 
     76 H76        19.3121  -29.6750  -38.9535 H         1 UNK         0.0695 
     77 H77        18.3033  -29.3617  -40.3375 H         1 UNK         0.0695 
     78 H78        21.3416  -29.1573  -40.4538 H         1 UNK         0.0983 
     79 H79        19.4271  -27.8610  -42.3274 H         1 UNK         0.3095 
     80 H80        21.8059  -27.4610  -44.4779 H         1 UNK         0.0454 
     81 H81        20.2930  -29.8808  -45.5359 H         1 UNK         0.0851 
     82 H82        22.0518  -29.7022  -45.4649 H         1 UNK         0.0851 
     83 H83        21.1125  -28.6648  -46.5108 H         1 UNK         0.0851 
     84 H84        19.0975  -27.7681  -45.2933 H         1 UNK         0.2976 
     85 H85        20.3923  -26.2552  -41.4987 H         1 UNK         0.3116 
     86 H86        20.9631  -25.0018  -38.8382 H         1 UNK         0.0646 
     87 H87        18.9140  -24.0664  -39.9415 H         1 UNK         0.0847 
     88 H88        19.8549  -23.6996  -41.3838 H         1 UNK         0.0847 
     89 H89        20.2160  -22.8889  -39.8693 H         1 UNK         0.0847 
     90 H90        21.7046  -25.0714  -42.3538 H         1 UNK         0.3040 
     91 H91        24.4766  -24.1068  -41.9569 H         1 UNK         0.1015 
     92 H92        23.2175  -23.2995  -43.9327 H         1 UNK         0.0786 
     93 H93        22.8836  -24.9515  -44.4446 H         1 UNK         0.0786 
     94 H94        24.5335  -24.3415  -44.4527 H         1 UNK         0.0786 
     95 H95        25.3071  -25.7515  -40.6646 H         1 UNK         0.3172 
     96 H96        26.4354  -27.5820  -40.1581 H         1 UNK         0.0595 
     97 H97        25.8364  -28.8930  -42.8582 H         1 UNK         0.0839 
     98 H98        27.0986  -29.3181  -41.7102 H         1 UNK         0.0839 
     99 H99        27.1872  -27.7987  -42.5755 H         1 UNK         0.0839 
    100 H100       25.4265  -30.3900  -41.0507 H         1 UNK         0.2998 
    101 H101       22.8487  -30.5652  -39.6959 H         1 UNK         0.0822 
    102 H102       24.4388  -30.4736  -37.7616 H         1 UNK         0.0787 
    103 H103       23.7560  -32.0825  -37.9182 H         1 UNK         0.0787 
    104 H104       25.3965  -31.7727  -38.4712 H         1 UNK         0.0787 
    105 H105       22.0353  -32.7400  -39.7538 H         1 UNK         0.3055 
    106 H106       21.4127  -34.6189  -40.7417 H         1 UNK         0.1106 
    107 H107       24.4071  -35.1678  -41.1030 H         1 UNK         0.0828 
    108 H108       23.1238  -36.3679  -41.0736 H         1 UNK         0.0828 
    109 H109       23.4968  -35.4575  -39.6211 H         1 UNK         0.0828 
    110 H110       21.5621  -32.3066  -42.4559 H         1 UNK         0.2931 
    111 H111       21.2431  -31.6575  -44.4593 H         1 UNK         0.0412 
    112 H112       24.1519  -32.3756  -43.4458 H         1 UNK         0.3472 
    113 H113       25.0686  -32.1243  -44.9114 H         1 UNK         0.3472 
    114 H114       21.3098  -34.2964  -45.9257 H         1 UNK         0.0970 
    115 H115       20.0574  -34.0848  -44.7587 H         1 UNK         0.0970 
    116 H116       17.4091  -32.5260  -46.8720 H         1 UNK         0.0612 
    117 H117       17.8868  -33.7908  -45.7780 H         1 UNK         0.0612 
@<TRIPOS>BOND
     1    1    2 1    
     2    1   62 1    
     3    1   63 1    
     4    1   64 1    
     5    2    3 2    
     6    2    4 am   BACKBONE|DICT|INTERRES
     7    4    5 1    
     8    4   65 1    
     9    5    6 1    
    10    5   25 1    
    11    5   66 1    
    12    6    7 1    
    13    6   67 1    
    14    6   68 1    
    15    7    8 1    
    16    8    9 1    
    17    8   69 1    
    18    8   70 1    
    19    9   10 ar   
    20    9   14 ar   
    21   10   11 ar   
    22   10   71 1    
    23   11   12 ar   
    24   11   61 1    
    25   12   13 ar   
    26   12   72 1    
    27   13   14 ar   
    28   13   15 1    
    29   14   73 1    
    30   15   16 1    
    31   15   74 1    
    32   15   75 1    
    33   16   17 1    
    34   17   18 1    
    35   17   76 1    
    36   17   77 1    
    37   18   19 1    
    38   18   27 1    
    39   18   78 1    
    40   19   20 am   BACKBONE|DICT|INTERRES
    41   19   79 1    
    42   20   21 2    
    43   20   22 1    
    44   22   23 1    
    45   22   24 1    
    46   22   80 1    
    47   23   81 1    
    48   23   82 1    
    49   23   83 1    
    50   24   25 am   BACKBONE|DICT|INTERRES
    51   24   84 1    
    52   25   26 2    
    53   27   28 2    
    54   27   29 am   BACKBONE|DICT|INTERRES
    55   29   30 1    
    56   29   85 1    
    57   30   31 1    
    58   30   32 1    
    59   30   86 1    
    60   31   87 1    
    61   31   88 1    
    62   31   89 1    
    63   32   33 2    
    64   32   34 am   BACKBONE|DICT|INTERRES
    65   34   35 1    
    66   34   90 1    
    67   35   36 1    
    68   35   37 1    
    69   35   91 1    
    70   36   92 1    
    71   36   93 1    
    72   36   94 1    
    73   37   38 2    
    74   37   39 am   BACKBONE|DICT|INTERRES
    75   39   40 1    
    76   39   95 1    
    77   40   41 1    
    78   40   42 1    
    79   40   96 1    
    80   41   97 1    
    81   41   98 1    
    82   41   99 1    
    83   42   43 2    
    84   42   44 am   BACKBONE|DICT|INTERRES
    85   44   45 1    
    86   44  100 1    
    87   45   46 1    
    88   45   47 1    
    89   45  101 1    
    90   46  102 1    
    91   46  103 1    
    92   46  104 1    
    93   47   48 2    
    94   47   49 am   BACKBONE|DICT|INTERRES
    95   49   50 1    
    96   49  105 1    
    97   50   51 1    
    98   50   52 1    
    99   50  106 1    
   100   51  107 1    
   101   51  108 1    
   102   51  109 1    
   103   52   53 2    
   104   52   54 am   BACKBONE|DICT|INTERRES
   105   54   55 1    
   106   54  110 1    
   107   55   56 1    
   108   55   59 1    
   109   55  111 1    
   110   56   57 am   BACKBONE|DICT|INTERRES
   111   56   58 2    
   112   57  112 1    
   113   57  113 1    
   114   59   60 1    
   115   59  114 1    
   116   59  115 1    
   117   60   61 1    
   118   61  116 1    
   119   61  117 1    
@<TRIPOS>SUBSTRUCTURE
     1 UNK         1 GROUP             0       ****    0 ROOT    
