@<TRIPOS>MOLECULE
3R8
117   119    1
SMALL
USER_CHARGES


@<TRIPOS>ATOM
      1 CA         19.9014  -25.5980  -38.6080 C.3       0 UNK        -0.2013 
      2 C          19.5289  -25.3181  -40.0564 C.2       0 UNK         0.4866 
      3 O          19.3701  -24.1571  -40.4341 O.2       0 UNK        -0.5176 
      4 N          19.3890  -26.3698  -40.8699 N.am      1 UNK        -0.4884 
      5 CA         19.0704  -26.2883  -42.2963 C.3       1 UNK         0.0853 
      6 C6         18.5201  -27.6294  -42.8415 C.3       10 UNK        -0.0849 
      7 S7         17.0344  -28.2137  -41.9584 S.3       10 UNK        -0.2776 
      8 C8         16.0738  -28.9790  -43.3069 C.3       10 UNK         0.0316 
      9 C9         16.8677  -30.0269  -44.0805 C.ar      10 UNK        -0.0863 
     10 C10        17.3880  -31.1497  -43.4294 C.ar      10 UNK        -0.1009 
     11 C11        18.1079  -32.1153  -44.1403 C.ar      10 UNK        -0.0712 
     12 C12        18.3071  -31.9508  -45.5155 C.ar      10 UNK        -0.0894 
     13 C13        17.7960  -30.8304  -46.1782 C.ar      10 UNK        -0.0745 
     14 C14        17.0693  -29.8784  -45.4559 C.ar      10 UNK        -0.0972 
     15 C15        18.0064  -30.6573  -47.6782 C.3       10 UNK         0.0209 
     16 S16        19.6772  -30.0551  -48.0948 S.3       10 UNK        -0.2568 
     17 C17        19.6691  -28.3772  -47.3672 C.3       10 UNK        -0.0983 
     18 CA         21.0513  -27.7506  -47.0308 C.3       3 UNK         0.0876 
     19 N          20.8435  -26.5068  -46.2771 N.am      3 UNK        -0.4424 
     20 C          21.7844  -25.6528  -45.8504 C.2       2 UNK         0.4918 
     21 O          22.9838  -25.7630  -46.1001 O.2       2 UNK        -0.4875 
     22 CA         21.3026  -24.5271  -44.9157 C.3       2 UNK         0.0481 
     23 CB         20.8620  -23.3006  -45.7292 C.3       2 UNK        -0.1831 
     24 N          20.2139  -24.9482  -44.0212 N.am      2 UNK        -0.4498 
     25 C          20.3345  -25.8978  -43.0816 C.2       1 UNK         0.5027 
     26 O          21.3850  -26.5084  -42.8660 O.2       1 UNK        -0.4969 
     27 C          21.9980  -28.7289  -46.2922 C.2       3 UNK         0.5005 
     28 O          22.8356  -29.3710  -46.9283 O.2       3 UNK        -0.5279 
     29 N          21.8709  -28.7891  -44.9606 N.am      4 UNK        -0.4463 
     30 CA         22.6650  -29.6361  -44.0716 C.3       4 UNK         0.0283 
     31 CB         21.7665  -30.0621  -42.9029 C.3       4 UNK        -0.1875 
     32 C          23.9334  -28.9348  -43.5475 C.2       4 UNK         0.4949 
     33 O          24.6308  -29.5213  -42.7206 O.2       4 UNK        -0.5039 
     34 N          24.2006  -27.7022  -44.0091 N.am      5 UNK        -0.4663 
     35 CA         25.2783  -26.8030  -43.5801 C.3       5 UNK         0.0242 
     36 CB         26.6654  -27.3868  -43.9265 C.3       5 UNK        -0.1982 
     37 C          25.1396  -26.3839  -42.1029 C.2       5 UNK         0.5017 
     38 O          26.1134  -26.4444  -41.3503 O.2       5 UNK        -0.5012 
     39 N          23.9224  -25.9566  -41.7335 N.am      6 UNK        -0.4439 
     40 CA         23.4852  -25.5180  -40.4040 C.3       6 UNK         0.0297 
     41 CB         24.2903  -24.2984  -39.9057 C.3       6 UNK        -0.2006 
     42 C          23.4509  -26.6863  -39.4041 C.2       6 UNK         0.4892 
     43 O          24.0851  -26.6259  -38.3491 O.2       6 UNK        -0.5089 
     44 N          22.6971  -27.7295  -39.7651 N.am      7 UNK        -0.4243 
     45 CA         22.4759  -28.9375  -38.9723 C.3       7 UNK         0.0196 
     46 CB         23.6091  -29.9469  -39.2471 C.3       7 UNK        -0.2007 
     47 C          21.0892  -29.5109  -39.3013 C.2       7 UNK         0.5020 
     48 O          20.3320  -28.8872  -40.0468 O.2       7 UNK        -0.5147 
     49 N          20.7808  -30.6901  -38.7524 N.am      8 UNK        -0.4734 
     50 CA         19.5496  -31.4444  -39.0232 C.3       8 UNK         0.0238 
     51 CB         18.7737  -31.6211  -37.7045 C.3       8 UNK        -0.1912 
     52 C          19.8497  -32.7971  -39.7001 C.2       8 UNK         0.5038 
     53 O          19.0147  -33.7012  -39.6409 O.2       8 UNK        -0.5046 
     54 N          21.0343  -32.9129  -40.3175 N.am      9 UNK        -0.4200 
     55 CA         21.5990  -34.1286  -40.9302 C.3       9 UNK         0.0839 
     56 C          21.9500  -35.2292  -39.8812 C.2       9 UNK         0.5513 
     57 N          22.2541  -36.4472  -40.3108 N.am      9 UNK        -0.7519 
     58 O          22.0019  -34.9834  -38.6772 O.2       9 UNK        -0.4960 
     59 C59        20.7713  -34.6630  -42.1394 C.3       10 UNK        -0.0876 
     60 S60        20.4630  -33.3889  -43.4095 S.3       10 UNK        -0.2414 
     61 C61        18.6444  -33.3458  -43.4232 C.3       10 UNK         0.0169 
     62 H62        20.0075  -26.6647  -38.4132 H         1 UNK         0.0903 
     63 H63        20.8439  -25.1112  -38.3595 H         1 UNK         0.0903 
     64 H64        19.1317  -25.2089  -37.9422 H         1 UNK         0.0903 
     65 H65        19.5756  -27.3110  -40.5241 H         1 UNK         0.3096 
     66 H66        18.3093  -25.5176  -42.4375 H         1 UNK         0.1121 
     67 H67        18.2823  -27.5307  -43.9022 H         1 UNK         0.0849 
     68 H68        19.2703  -28.4188  -42.7681 H         1 UNK         0.0849 
     69 H69        15.1844  -29.4484  -42.8844 H         1 UNK         0.0865 
     70 H70        15.7156  -28.1917  -43.9721 H         1 UNK         0.0865 
     71 H71        17.2295  -31.2682  -42.3661 H         1 UNK         0.1346 
     72 H72        18.8648  -32.6941  -46.0688 H         1 UNK         0.1412 
     73 H73        16.6636  -29.0164  -45.9681 H         1 UNK         0.1426 
     74 H74        17.2660  -29.9724  -48.0948 H         1 UNK         0.0716 
     75 H75        17.8458  -31.6145  -48.1764 H         1 UNK         0.0716 
     76 H76        19.1267  -27.7221  -48.0507 H         1 UNK         0.0695 
     77 H77        19.0747  -28.4102  -46.4555 H         1 UNK         0.0695 
     78 H78        21.5430  -27.4853  -47.9691 H         1 UNK         0.0983 
     79 H79        19.8877  -26.3000  -46.0297 H         1 UNK         0.3095 
     80 H80        22.1493  -24.2329  -44.2916 H         1 UNK         0.0454 
     81 H81        21.6644  -22.9593  -46.3849 H         1 UNK         0.0851 
     82 H82        19.9980  -23.5176  -46.3585 H         1 UNK         0.0851 
     83 H83        20.6027  -22.4652  -45.0786 H         1 UNK         0.0851 
     84 H84        19.3260  -24.4794  -44.1365 H         1 UNK         0.2976 
     85 H85        21.2128  -28.1713  -44.5078 H         1 UNK         0.3116 
     86 H86        22.9773  -30.5351  -44.6069 H         1 UNK         0.0646 
     87 H87        22.2526  -30.8205  -42.2894 H         1 UNK         0.0847 
     88 H88        20.8225  -30.4809  -43.2514 H         1 UNK         0.0847 
     89 H89        21.5367  -29.2133  -42.2625 H         1 UNK         0.0847 
     90 H90        23.5711  -27.3148  -44.7017 H         1 UNK         0.3040 
     91 H91        25.1592  -25.8879  -44.1631 H         1 UNK         0.1015 
     92 H92        26.8919  -28.2780  -43.3406 H         1 UNK         0.0786 
     93 H93        27.4537  -26.6602  -43.7262 H         1 UNK         0.0786 
     94 H94        26.7311  -27.6527  -44.9815 H         1 UNK         0.0786 
     95 H95        23.1676  -26.0490  -42.4094 H         1 UNK         0.3172 
     96 H96        22.4538  -25.1870  -40.5261 H         1 UNK         0.0595 
     97 H97        23.8684  -23.9106  -38.9777 H         1 UNK         0.0839 
     98 H98        25.3323  -24.5478  -39.7041 H         1 UNK         0.0839 
     99 H99        24.2732  -23.4872  -40.6332 H         1 UNK         0.0839 
    100 H100       22.1582  -27.6783  -40.6210 H         1 UNK         0.2998 
    101 H101       22.4729  -28.6754  -37.9121 H         1 UNK         0.0822 
    102 H102       23.5303  -30.8285  -38.6106 H         1 UNK         0.0787 
    103 H103       23.6050  -30.2842  -40.2836 H         1 UNK         0.0787 
    104 H104       24.5862  -29.5043  -39.0521 H         1 UNK         0.0787 
    105 H105       21.4485  -31.1347  -38.1366 H         1 UNK         0.3055 
    106 H106       18.9097  -30.8964  -39.7192 H         1 UNK         0.1106 
    107 H107       18.5557  -30.6582  -37.2426 H         1 UNK         0.0828 
    108 H108       17.8178  -32.1190  -37.8729 H         1 UNK         0.0828 
    109 H109       19.3328  -32.2207  -36.9853 H         1 UNK         0.0828 
    110 H110       21.6483  -32.1142  -40.2978 H         1 UNK         0.2931 
    111 H111       22.5653  -33.8087  -41.3221 H         1 UNK         0.0412 
    112 H112       22.4998  -37.1540  -39.6346 H         1 UNK         0.3472 
    113 H113       22.2555  -36.6753  -41.2923 H         1 UNK         0.3472 
    114 H114       21.3019  -35.4746  -42.6382 H         1 UNK         0.0970 
    115 H115       19.8281  -35.0918  -41.7972 H         1 UNK         0.0970 
    116 H116       18.2771  -33.3722  -42.3962 H         1 UNK         0.0612 
    117 H117       18.2675  -34.2455  -43.9113 H         1 UNK         0.0612 
@<TRIPOS>BOND
     1    1    2 1    
     2    1   62 1    
     3    1   63 1    
     4    1   64 1    
     5    2    3 2    
     6    2    4 am   BACKBONE|DICT|INTERRES
     7    4    5 1    
     8    4   65 1    
     9    5    6 1    
    10    5   25 1    
    11    5   66 1    
    12    6    7 1    
    13    6   67 1    
    14    6   68 1    
    15    7    8 1    
    16    8    9 1    
    17    8   69 1    
    18    8   70 1    
    19    9   10 ar   
    20    9   14 ar   
    21   10   11 ar   
    22   10   71 1    
    23   11   12 ar   
    24   11   61 1    
    25   12   13 ar   
    26   12   72 1    
    27   13   14 ar   
    28   13   15 1    
    29   14   73 1    
    30   15   16 1    
    31   15   74 1    
    32   15   75 1    
    33   16   17 1    
    34   17   18 1    
    35   17   76 1    
    36   17   77 1    
    37   18   19 1    
    38   18   27 1    
    39   18   78 1    
    40   19   20 am   BACKBONE|DICT|INTERRES
    41   19   79 1    
    42   20   21 2    
    43   20   22 1    
    44   22   23 1    
    45   22   24 1    
    46   22   80 1    
    47   23   81 1    
    48   23   82 1    
    49   23   83 1    
    50   24   25 am   BACKBONE|DICT|INTERRES
    51   24   84 1    
    52   25   26 2    
    53   27   28 2    
    54   27   29 am   BACKBONE|DICT|INTERRES
    55   29   30 1    
    56   29   85 1    
    57   30   31 1    
    58   30   32 1    
    59   30   86 1    
    60   31   87 1    
    61   31   88 1    
    62   31   89 1    
    63   32   33 2    
    64   32   34 am   BACKBONE|DICT|INTERRES
    65   34   35 1    
    66   34   90 1    
    67   35   36 1    
    68   35   37 1    
    69   35   91 1    
    70   36   92 1    
    71   36   93 1    
    72   36   94 1    
    73   37   38 2    
    74   37   39 am   BACKBONE|DICT|INTERRES
    75   39   40 1    
    76   39   95 1    
    77   40   41 1    
    78   40   42 1    
    79   40   96 1    
    80   41   97 1    
    81   41   98 1    
    82   41   99 1    
    83   42   43 2    
    84   42   44 am   BACKBONE|DICT|INTERRES
    85   44   45 1    
    86   44  100 1    
    87   45   46 1    
    88   45   47 1    
    89   45  101 1    
    90   46  102 1    
    91   46  103 1    
    92   46  104 1    
    93   47   48 2    
    94   47   49 am   BACKBONE|DICT|INTERRES
    95   49   50 1    
    96   49  105 1    
    97   50   51 1    
    98   50   52 1    
    99   50  106 1    
   100   51  107 1    
   101   51  108 1    
   102   51  109 1    
   103   52   53 2    
   104   52   54 am   BACKBONE|DICT|INTERRES
   105   54   55 1    
   106   54  110 1    
   107   55   56 1    
   108   55   59 1    
   109   55  111 1    
   110   56   57 am   BACKBONE|DICT|INTERRES
   111   56   58 2    
   112   57  112 1    
   113   57  113 1    
   114   59   60 1    
   115   59  114 1    
   116   59  115 1    
   117   60   61 1    
   118   61  116 1    
   119   61  117 1    
@<TRIPOS>SUBSTRUCTURE
     1 UNK         1 GROUP             0       ****    0 ROOT    
