@<TRIPOS>MOLECULE
3R8
117   119    1
SMALL
USER_CHARGES


@<TRIPOS>ATOM
      1 CA         14.8655  -23.2734  -47.3711 C.3       0 UNK        -0.2013 
      2 C          16.1136  -24.1368  -47.2665 C.2       0 UNK         0.4866 
      3 O          17.0945  -23.8831  -47.9659 O.2       0 UNK        -0.5176 
      4 N          16.0848  -25.1570  -46.3991 N.am      1 UNK        -0.4884 
      5 CA         17.2005  -26.0782  -46.1455 C.3       1 UNK         0.0853 
      6 C6         16.7310  -27.3694  -45.4215 C.3       10 UNK        -0.0849 
      7 S7         15.7952  -27.0586  -43.8796 S.3       10 UNK        -0.2776 
      8 C8         15.4535  -28.7536  -43.3037 C.3       10 UNK         0.0316 
      9 C9         16.6512  -29.3438  -42.5750 C.ar      10 UNK        -0.0863 
     10 C10        17.5203  -30.2213  -43.2307 C.ar      10 UNK        -0.1009 
     11 C11        18.6454  -30.7272  -42.5726 C.ar      10 UNK        -0.0712 
     12 C12        18.8881  -30.3616  -41.2455 C.ar      10 UNK        -0.0894 
     13 C13        18.0340  -29.4731  -40.5831 C.ar      10 UNK        -0.0745 
     14 C14        16.9047  -28.9842  -41.2474 C.ar      10 UNK        -0.0972 
     15 C15        18.3827  -28.9662  -39.1901 C.3       10 UNK         0.0209 
     16 S16        20.0239  -28.1642  -39.1399 S.3       10 UNK        -0.2568 
     17 C17        19.8252  -26.6618  -40.1667 C.3       10 UNK        -0.0983 
     18 CA         19.8440  -26.8829  -41.7081 C.3       3 UNK         0.0876 
     19 N          19.2299  -25.7706  -42.4342 N.am      3 UNK        -0.4424 
     20 C          19.7580  -24.5626  -42.6728 C.2       2 UNK         0.4918 
     21 O          20.8182  -24.1714  -42.1829 O.2       2 UNK        -0.4875 
     22 CA         18.9885  -23.6666  -43.6712 C.3       2 UNK         0.0481 
     23 CB         19.9405  -22.7852  -44.5056 C.3       2 UNK        -0.1831 
     24 N          18.0710  -24.4051  -44.5579 N.am      2 UNK        -0.4498 
     25 C          18.3735  -25.4160  -45.3926 C.2       1 UNK         0.5027 
     26 O          19.5115  -25.8660  -45.5379 O.2       1 UNK        -0.4969 
     27 C          21.1890  -27.3535  -42.3184 C.2       3 UNK         0.5005 
     28 O          22.0447  -27.8742  -41.6039 O.2       3 UNK        -0.5279 
     29 N          21.3600  -27.1561  -43.6400 N.am      4 UNK        -0.4463 
     30 CA         22.4598  -27.6183  -44.5049 C.3       4 UNK         0.0283 
     31 CB         22.3570  -29.1465  -44.6890 C.3       4 UNK        -0.1875 
     32 C          23.8870  -27.2078  -44.0774 C.2       4 UNK         0.4949 
     33 O          24.8512  -27.7343  -44.6338 O.2       4 UNK        -0.5039 
     34 N          24.0015  -26.3165  -43.0812 N.am      5 UNK        -0.4663 
     35 CA         25.2001  -26.0113  -42.2890 C.3       5 UNK         0.0242 
     36 CB         26.2703  -25.3079  -43.1512 C.3       5 UNK        -0.1982 
     37 C          25.7595  -27.2329  -41.5197 C.2       5 UNK         0.5017 
     38 O          26.9336  -27.2189  -41.1453 O.2       5 UNK        -0.5012 
     39 N          24.9252  -28.2569  -41.2843 N.am      6 UNK        -0.4439 
     40 CA         25.2710  -29.5155  -40.6287 C.3       6 UNK         0.0297 
     41 CB         26.2322  -30.3523  -41.4996 C.3       6 UNK        -0.2006 
     42 C          23.9766  -30.2900  -40.3636 C.2       6 UNK         0.4892 
     43 O          23.3531  -30.7682  -41.3130 O.2       6 UNK        -0.5089 
     44 N          23.6133  -30.4332  -39.0819 N.am      7 UNK        -0.4243 
     45 CA         22.3872  -31.0993  -38.6199 C.3       7 UNK         0.0196 
     46 CB         22.2333  -30.8805  -37.1061 C.3       7 UNK        -0.2007 
     47 C          22.2853  -32.5968  -38.9668 C.2       7 UNK         0.5020 
     48 O          21.1830  -33.1435  -38.9511 O.2       7 UNK        -0.5147 
     49 N          23.4213  -33.2302  -39.2884 N.am      8 UNK        -0.4734 
     50 CA         23.4979  -34.5972  -39.8106 C.3       8 UNK         0.0238 
     51 CB         24.9400  -35.1083  -39.6524 C.3       8 UNK        -0.1912 
     52 C          23.0388  -34.7235  -41.2780 C.2       8 UNK         0.5038 
     53 O          22.8206  -35.8476  -41.7319 O.2       8 UNK        -0.5046 
     54 N          22.9183  -33.5931  -41.9910 N.am      9 UNK        -0.4200 
     55 CA         22.5135  -33.4846  -43.4031 C.3       9 UNK         0.0839 
     56 C          23.5496  -34.0493  -44.4216 C.2       9 UNK         0.5513 
     57 N          24.8040  -34.2601  -44.0403 N.am      9 UNK        -0.7519 
     58 O          23.2243  -34.2721  -45.5851 O.2       9 UNK        -0.4960 
     59 C59        21.0634  -33.9864  -43.6800 C.3       10 UNK        -0.0876 
     60 S60        19.8002  -33.2562  -42.5812 S.3       10 UNK        -0.2414 
     61 C61        19.6445  -31.6009  -43.3156 C.3       10 UNK         0.0169 
     62 H62        14.4776  -23.2967  -48.3891 H         1 UNK         0.0903 
     63 H63        14.0767  -23.6132  -46.7001 H         1 UNK         0.0903 
     64 H64        15.1023  -22.2398  -47.1202 H         1 UNK         0.0903 
     65 H65        15.2527  -25.3282  -45.8503 H         1 UNK         0.3096 
     66 H66        17.6018  -26.3777  -47.1168 H         1 UNK         0.1121 
     67 H67        16.0892  -27.9421  -46.0930 H         1 UNK         0.0849 
     68 H68        17.5805  -28.0198  -45.2030 H         1 UNK         0.0849 
     69 H69        14.5960  -28.7303  -42.6295 H         1 UNK         0.0865 
     70 H70        15.1584  -29.3819  -44.1457 H         1 UNK         0.0865 
     71 H71        17.3352  -30.4882  -44.2623 H         1 UNK         0.1346 
     72 H72        19.7753  -30.7282  -40.7472 H         1 UNK         0.1412 
     73 H73        16.2466  -28.2844  -40.7500 H         1 UNK         0.1426 
     74 H74        18.3829  -29.8099  -38.4988 H         1 UNK         0.0716 
     75 H75        17.6314  -28.2647  -38.8244 H         1 UNK         0.0716 
     76 H76        20.6060  -25.9532  -39.8861 H         1 UNK         0.0695 
     77 H77        18.8836  -26.1953  -39.8728 H         1 UNK         0.0695 
     78 H78        19.1784  -27.7032  -41.9434 H         1 UNK         0.0983 
     79 H79        18.3452  -25.9806  -42.8747 H         1 UNK         0.3095 
     80 H80        18.3648  -23.0058  -43.0679 H         1 UNK         0.0454 
     81 H81        20.6409  -23.3851  -45.0876 H         1 UNK         0.0851 
     82 H82        20.5302  -22.1273  -43.8660 H         1 UNK         0.0851 
     83 H83        19.3884  -22.1499  -45.1980 H         1 UNK         0.0851 
     84 H84        17.0981  -24.1355  -44.5030 H         1 UNK         0.2976 
     85 H85        20.6216  -26.6702  -44.1431 H         1 UNK         0.3116 
     86 H86        22.2913  -27.1525  -45.4768 H         1 UNK         0.0646 
     87 H87        22.5652  -29.6752  -43.7578 H         1 UNK         0.0847 
     88 H88        23.0700  -29.5063  -45.4317 H         1 UNK         0.0847 
     89 H89        21.3644  -29.4396  -45.0304 H         1 UNK         0.0847 
     90 H90        23.1351  -25.9585  -42.7012 H         1 UNK         0.3040 
     91 H91        24.8801  -25.3040  -41.5223 H         1 UNK         0.1015 
     92 H92        26.7068  -25.9829  -43.8877 H         1 UNK         0.0786 
     93 H93        27.0869  -24.9335  -42.5327 H         1 UNK         0.0786 
     94 H94        25.8525  -24.4537  -43.6839 H         1 UNK         0.0786 
     95 H95        23.9468  -28.1727  -41.5638 H         1 UNK         0.3172 
     96 H96        25.7584  -29.2919  -39.6776 H         1 UNK         0.0595 
     97 H97        26.4187  -31.3285  -41.0504 H         1 UNK         0.0839 
     98 H98        27.1996  -29.8647  -41.6165 H         1 UNK         0.0839 
     99 H99        25.8234  -30.5238  -42.4965 H         1 UNK         0.0839 
    100 H100       24.1908  -30.0143  -38.3668 H         1 UNK         0.2998 
    101 H101       21.5505  -30.6127  -39.1219 H         1 UNK         0.0822 
    102 H102       21.3137  -31.3369  -36.7369 H         1 UNK         0.0787 
    103 H103       23.0623  -31.3179  -36.5484 H         1 UNK         0.0787 
    104 H104       22.1830  -29.8189  -36.8629 H         1 UNK         0.0787 
    105 H105       24.2821  -32.7038  -39.2554 H         1 UNK         0.3055 
    106 H106       22.8395  -35.2327  -39.2137 H         1 UNK         0.1106 
    107 H107       25.0306  -36.1375  -40.0030 H         1 UNK         0.0828 
    108 H108       25.6484  -34.5068  -40.2232 H         1 UNK         0.0828 
    109 H109       25.2530  -35.0969  -38.6082 H         1 UNK         0.0828 
    110 H110       23.1124  -32.7040  -41.5405 H         1 UNK         0.2931 
    111 H111       22.5197  -32.4130  -43.6016 H         1 UNK         0.0412 
    112 H112       25.0885  -34.0688  -43.0936 H         1 UNK         0.3472 
    113 H113       25.4704  -34.6156  -44.7078 H         1 UNK         0.3472 
    114 H114       21.0143  -35.0713  -43.5756 H         1 UNK         0.0970 
    115 H115       20.7758  -33.7765  -44.7118 H         1 UNK         0.0970 
    116 H116       19.3704  -31.6983  -44.3672 H         1 UNK         0.0612 
    117 H117       20.6152  -31.1068  -43.2876 H         1 UNK         0.0612 
@<TRIPOS>BOND
     1    1    2 1    
     2    1   62 1    
     3    1   63 1    
     4    1   64 1    
     5    2    3 2    
     6    2    4 am   BACKBONE|DICT|INTERRES
     7    4    5 1    
     8    4   65 1    
     9    5    6 1    
    10    5   25 1    
    11    5   66 1    
    12    6    7 1    
    13    6   67 1    
    14    6   68 1    
    15    7    8 1    
    16    8    9 1    
    17    8   69 1    
    18    8   70 1    
    19    9   10 ar   
    20    9   14 ar   
    21   10   11 ar   
    22   10   71 1    
    23   11   12 ar   
    24   11   61 1    
    25   12   13 ar   
    26   12   72 1    
    27   13   14 ar   
    28   13   15 1    
    29   14   73 1    
    30   15   16 1    
    31   15   74 1    
    32   15   75 1    
    33   16   17 1    
    34   17   18 1    
    35   17   76 1    
    36   17   77 1    
    37   18   19 1    
    38   18   27 1    
    39   18   78 1    
    40   19   20 am   BACKBONE|DICT|INTERRES
    41   19   79 1    
    42   20   21 2    
    43   20   22 1    
    44   22   23 1    
    45   22   24 1    
    46   22   80 1    
    47   23   81 1    
    48   23   82 1    
    49   23   83 1    
    50   24   25 am   BACKBONE|DICT|INTERRES
    51   24   84 1    
    52   25   26 2    
    53   27   28 2    
    54   27   29 am   BACKBONE|DICT|INTERRES
    55   29   30 1    
    56   29   85 1    
    57   30   31 1    
    58   30   32 1    
    59   30   86 1    
    60   31   87 1    
    61   31   88 1    
    62   31   89 1    
    63   32   33 2    
    64   32   34 am   BACKBONE|DICT|INTERRES
    65   34   35 1    
    66   34   90 1    
    67   35   36 1    
    68   35   37 1    
    69   35   91 1    
    70   36   92 1    
    71   36   93 1    
    72   36   94 1    
    73   37   38 2    
    74   37   39 am   BACKBONE|DICT|INTERRES
    75   39   40 1    
    76   39   95 1    
    77   40   41 1    
    78   40   42 1    
    79   40   96 1    
    80   41   97 1    
    81   41   98 1    
    82   41   99 1    
    83   42   43 2    
    84   42   44 am   BACKBONE|DICT|INTERRES
    85   44   45 1    
    86   44  100 1    
    87   45   46 1    
    88   45   47 1    
    89   45  101 1    
    90   46  102 1    
    91   46  103 1    
    92   46  104 1    
    93   47   48 2    
    94   47   49 am   BACKBONE|DICT|INTERRES
    95   49   50 1    
    96   49  105 1    
    97   50   51 1    
    98   50   52 1    
    99   50  106 1    
   100   51  107 1    
   101   51  108 1    
   102   51  109 1    
   103   52   53 2    
   104   52   54 am   BACKBONE|DICT|INTERRES
   105   54   55 1    
   106   54  110 1    
   107   55   56 1    
   108   55   59 1    
   109   55  111 1    
   110   56   57 am   BACKBONE|DICT|INTERRES
   111   56   58 2    
   112   57  112 1    
   113   57  113 1    
   114   59   60 1    
   115   59  114 1    
   116   59  115 1    
   117   60   61 1    
   118   61  116 1    
   119   61  117 1    
@<TRIPOS>SUBSTRUCTURE
     1 UNK         1 GROUP             0       ****    0 ROOT    
