@<TRIPOS>MOLECULE
3R8
117   119    1
SMALL
USER_CHARGES


@<TRIPOS>ATOM
      1 CA         16.2411  -25.9855  -48.9044 C.3       0 UNK        -0.2013 
      2 C          16.4528  -26.4152  -47.4605 C.2       0 UNK         0.4866 
      3 O          16.1828  -27.5667  -47.1203 O.2       0 UNK        -0.5176 
      4 N          16.9321  -25.4986  -46.6114 N.am      1 UNK        -0.4884 
      5 CA         17.1905  -25.7305  -45.1855 C.3       1 UNK         0.0853 
      6 C6         15.9511  -25.3768  -44.3188 C.3       10 UNK        -0.0849 
      7 S7         15.8827  -26.1921  -42.6846 S.3       10 UNK        -0.2776 
      8 C8         15.4636  -27.9206  -43.0870 C.3       10 UNK         0.0316 
      9 C9         16.6750  -28.8333  -42.9412 C.ar      10 UNK        -0.0863 
     10 C10        17.1163  -29.2223  -41.6719 C.ar      10 UNK        -0.1009 
     11 C11        18.2332  -30.0523  -41.5181 C.ar      10 UNK        -0.0712 
     12 C12        18.9175  -30.4827  -42.6638 C.ar      10 UNK        -0.0894 
     13 C13        18.4784  -30.1123  -43.9370 C.ar      10 UNK        -0.0745 
     14 C14        17.3490  -29.3023  -44.0700 C.ar      10 UNK        -0.0972 
     15 C15        19.2025  -30.6044  -45.1778 C.3       10 UNK         0.0209 
     16 S16        20.1188  -29.2643  -45.9995 S.3       10 UNK        -0.2568 
     17 C17        21.6958  -29.1916  -45.0702 C.3       10 UNK        -0.0983 
     18 CA         21.9468  -27.8795  -44.2677 C.3       3 UNK         0.0876 
     19 N          21.3325  -26.7104  -44.9009 N.am      3 UNK        -0.4424 
     20 C          21.6740  -25.4274  -44.7278 C.2       2 UNK         0.4918 
     21 O          22.6012  -25.0564  -44.0089 O.2       2 UNK        -0.4875 
     22 CA         20.8040  -24.3864  -45.4589 C.3       2 UNK         0.0481 
     23 CB         21.4554  -23.9844  -46.7912 C.3       2 UNK        -0.1831 
     24 N          19.4376  -24.8658  -45.7086 N.am      2 UNK        -0.4498 
     25 C          18.5147  -25.0642  -44.7523 C.2       1 UNK         0.5027 
     26 O          18.7095  -24.7721  -43.5734 O.2       1 UNK        -0.4969 
     27 C          21.6305  -28.0285  -42.7620 C.2       3 UNK         0.5005 
     28 O          22.2242  -28.8995  -42.1198 O.2       3 UNK        -0.5279 
     29 N          20.7679  -27.1575  -42.2103 N.am      4 UNK        -0.4463 
     30 CA         20.3641  -27.1001  -40.7993 C.3       4 UNK         0.0283 
     31 CB         19.2318  -26.0779  -40.6328 C.3       4 UNK        -0.1875 
     32 C          21.4931  -26.8223  -39.7907 C.2       4 UNK         0.4949 
     33 O          21.2833  -27.0053  -38.5923 O.2       4 UNK        -0.5039 
     34 N          22.6838  -26.4504  -40.2772 N.am      5 UNK        -0.4663 
     35 CA         23.9358  -26.3696  -39.5165 C.3       5 UNK         0.0242 
     36 CB         24.9091  -25.4561  -40.2839 C.3       5 UNK        -0.1982 
     37 C          24.5679  -27.7515  -39.2178 C.2       5 UNK         0.5017 
     38 O          25.7578  -27.8104  -38.9057 O.2       5 UNK        -0.5012 
     39 N          23.7775  -28.8302  -39.3369 N.am      6 UNK        -0.4439 
     40 CA         24.1345  -30.2453  -39.1993 C.3       6 UNK         0.0297 
     41 CB         24.6698  -30.5661  -37.7877 C.3       6 UNK        -0.2006 
     42 C          25.0572  -30.7351  -40.3291 C.2       6 UNK         0.4892 
     43 O          25.8777  -31.6267  -40.1070 O.2       6 UNK        -0.5089 
     44 N          24.8908  -30.1633  -41.5310 N.am      7 UNK        -0.4243 
     45 CA         25.6459  -30.5439  -42.7278 C.3       7 UNK         0.0196 
     46 CB         25.6049  -29.4011  -43.7524 C.3       7 UNK        -0.2007 
     47 C          25.1157  -31.8443  -43.3512 C.2       7 UNK         0.5020 
     48 O          25.8998  -32.6069  -43.9158 O.2       7 UNK        -0.5147 
     49 N          23.8032  -32.0790  -43.2254 N.am      8 UNK        -0.4734 
     50 CA         23.1222  -33.2894  -43.6901 C.3       8 UNK         0.0238 
     51 CB         22.6630  -33.1163  -45.1514 C.3       8 UNK        -0.1912 
     52 C          21.9911  -33.6943  -42.7294 C.2       8 UNK         0.5038 
     53 O          20.9856  -34.2547  -43.1677 O.2       8 UNK        -0.5046 
     54 N          22.1791  -33.4116  -41.4349 N.am      9 UNK        -0.4200 
     55 CA         21.2761  -33.7929  -40.3386 C.3       9 UNK         0.0839 
     56 C          22.0007  -33.9822  -38.9740 C.2       9 UNK         0.5513 
     57 N          23.3272  -34.0472  -38.9266 N.am      9 UNK        -0.7519 
     58 O          21.3522  -34.0998  -37.9376 O.2       9 UNK        -0.4960 
     59 C59        20.0005  -32.9077  -40.2605 C.3       10 UNK        -0.0876 
     60 S60        20.3298  -31.1435  -39.9224 S.3       10 UNK        -0.2414 
     61 C61        18.6465  -30.4550  -40.0987 C.3       10 UNK         0.0169 
     62 H62        16.8426  -26.6030  -49.5710 H         1 UNK         0.0903 
     63 H63        15.1941  -26.1060  -49.1811 H         1 UNK         0.0903 
     64 H64        16.5165  -24.9436  -49.0665 H         1 UNK         0.0903 
     65 H65        17.1081  -24.5574  -46.9387 H         1 UNK         0.3096 
     66 H66        17.3920  -26.7918  -45.0539 H         1 UNK         0.1121 
     67 H67        15.0359  -25.6485  -44.8473 H         1 UNK         0.0849 
     68 H68        15.8890  -24.2973  -44.1706 H         1 UNK         0.0849 
     69 H69        14.6769  -28.2580  -42.4106 H         1 UNK         0.0865 
     70 H70        15.0452  -27.9856  -44.0929 H         1 UNK         0.0865 
     71 H71        16.5866  -28.8707  -40.7968 H         1 UNK         0.1346 
     72 H72        19.7911  -31.1120  -42.5800 H         1 UNK         0.1412 
     73 H73        17.0034  -29.0341  -45.0590 H         1 UNK         0.1426 
     74 H74        18.4678  -31.0013  -45.8798 H         1 UNK         0.0716 
     75 H75        19.8689  -31.4335  -44.9413 H         1 UNK         0.0716 
     76 H76        21.7942  -30.0766  -44.4401 H         1 UNK         0.0695 
     77 H77        22.4856  -29.2947  -45.8157 H         1 UNK         0.0695 
     78 H78        23.0216  -27.6937  -44.2922 H         1 UNK         0.0983 
     79 H79        20.5647  -26.9262  -45.5208 H         1 UNK         0.3095 
     80 H80        20.7460  -23.4984  -44.8258 H         1 UNK         0.0454 
     81 H81        20.8877  -23.1988  -47.2901 H         1 UNK         0.0851 
     82 H82        22.4637  -23.5998  -46.6310 H         1 UNK         0.0851 
     83 H83        21.5351  -24.8295  -47.4762 H         1 UNK         0.0851 
     84 H84        19.2152  -25.1401  -46.6552 H         1 UNK         0.2976 
     85 H85        20.3405  -26.4692  -42.8149 H         1 UNK         0.3116 
     86 H86        19.9717  -28.0825  -40.5471 H         1 UNK         0.0646 
     87 H87        19.5500  -25.0725  -40.9105 H         1 UNK         0.0847 
     88 H88        18.8815  -26.0389  -39.6006 H         1 UNK         0.0847 
     89 H89        18.3755  -26.3427  -41.2504 H         1 UNK         0.0847 
     90 H90        22.7585  -26.3255  -41.2769 H         1 UNK         0.3040 
     91 H91        23.7241  -25.9059  -38.5505 H         1 UNK         0.1015 
     92 H92        24.4693  -24.4765  -40.4728 H         1 UNK         0.0786 
     93 H93        25.1928  -25.8878  -41.2447 H         1 UNK         0.0786 
     94 H94        25.8260  -25.2899  -39.7167 H         1 UNK         0.0786 
     95 H95        22.8243  -28.6601  -39.6288 H         1 UNK         0.3172 
     96 H96        23.2035  -30.7986  -39.3204 H         1 UNK         0.0595 
     97 H97        23.9910  -30.2063  -37.0146 H         1 UNK         0.0839 
     98 H98        25.6491  -30.1208  -37.6115 H         1 UNK         0.0839 
     99 H99        24.7755  -31.6425  -37.6477 H         1 UNK         0.0839 
    100 H100       24.1454  -29.4837  -41.6446 H         1 UNK         0.2998 
    101 H101       26.6881  -30.7062  -42.4431 H         1 UNK         0.0822 
    102 H102       24.6089  -29.2801  -44.1735 H         1 UNK         0.0787 
    103 H103       25.9082  -28.4520  -43.3100 H         1 UNK         0.0787 
    104 H104       26.2817  -29.6043  -44.5834 H         1 UNK         0.0787 
    105 H105       23.2294  -31.3858  -42.7622 H         1 UNK         0.3055 
    106 H106       23.8261  -34.1246  -43.6631 H         1 UNK         0.1106 
    107 H107       23.5089  -32.9179  -45.8096 H         1 UNK         0.0828 
    108 H108       22.1747  -34.0183  -45.5225 H         1 UNK         0.0828 
    109 H109       21.9590  -32.2944  -45.2606 H         1 UNK         0.0828 
    110 H110       23.0290  -32.9471  -41.1549 H         1 UNK         0.2931 
    111 H111       20.9298  -34.8021  -40.5696 H         1 UNK         0.0412 
    112 H112       23.7674  -34.1823  -38.0299 H         1 UNK         0.3472 
    113 H113       23.8940  -34.0432  -39.7579 H         1 UNK         0.3472 
    114 H114       19.3264  -33.2866  -39.4903 H         1 UNK         0.0970 
    115 H115       19.4421  -32.9904  -41.1934 H         1 UNK         0.0970 
    116 H116       17.9224  -31.1728  -39.7112 H         1 UNK         0.0612 
    117 H117       18.5795  -29.5822  -39.4480 H         1 UNK         0.0612 
@<TRIPOS>BOND
     1    1    2 1    
     2    1   62 1    
     3    1   63 1    
     4    1   64 1    
     5    2    3 2    
     6    2    4 am   BACKBONE|DICT|INTERRES
     7    4    5 1    
     8    4   65 1    
     9    5    6 1    
    10    5   25 1    
    11    5   66 1    
    12    6    7 1    
    13    6   67 1    
    14    6   68 1    
    15    7    8 1    
    16    8    9 1    
    17    8   69 1    
    18    8   70 1    
    19    9   10 ar   
    20    9   14 ar   
    21   10   11 ar   
    22   10   71 1    
    23   11   12 ar   
    24   11   61 1    
    25   12   13 ar   
    26   12   72 1    
    27   13   14 ar   
    28   13   15 1    
    29   14   73 1    
    30   15   16 1    
    31   15   74 1    
    32   15   75 1    
    33   16   17 1    
    34   17   18 1    
    35   17   76 1    
    36   17   77 1    
    37   18   19 1    
    38   18   27 1    
    39   18   78 1    
    40   19   20 am   BACKBONE|DICT|INTERRES
    41   19   79 1    
    42   20   21 2    
    43   20   22 1    
    44   22   23 1    
    45   22   24 1    
    46   22   80 1    
    47   23   81 1    
    48   23   82 1    
    49   23   83 1    
    50   24   25 am   BACKBONE|DICT|INTERRES
    51   24   84 1    
    52   25   26 2    
    53   27   28 2    
    54   27   29 am   BACKBONE|DICT|INTERRES
    55   29   30 1    
    56   29   85 1    
    57   30   31 1    
    58   30   32 1    
    59   30   86 1    
    60   31   87 1    
    61   31   88 1    
    62   31   89 1    
    63   32   33 2    
    64   32   34 am   BACKBONE|DICT|INTERRES
    65   34   35 1    
    66   34   90 1    
    67   35   36 1    
    68   35   37 1    
    69   35   91 1    
    70   36   92 1    
    71   36   93 1    
    72   36   94 1    
    73   37   38 2    
    74   37   39 am   BACKBONE|DICT|INTERRES
    75   39   40 1    
    76   39   95 1    
    77   40   41 1    
    78   40   42 1    
    79   40   96 1    
    80   41   97 1    
    81   41   98 1    
    82   41   99 1    
    83   42   43 2    
    84   42   44 am   BACKBONE|DICT|INTERRES
    85   44   45 1    
    86   44  100 1    
    87   45   46 1    
    88   45   47 1    
    89   45  101 1    
    90   46  102 1    
    91   46  103 1    
    92   46  104 1    
    93   47   48 2    
    94   47   49 am   BACKBONE|DICT|INTERRES
    95   49   50 1    
    96   49  105 1    
    97   50   51 1    
    98   50   52 1    
    99   50  106 1    
   100   51  107 1    
   101   51  108 1    
   102   51  109 1    
   103   52   53 2    
   104   52   54 am   BACKBONE|DICT|INTERRES
   105   54   55 1    
   106   54  110 1    
   107   55   56 1    
   108   55   59 1    
   109   55  111 1    
   110   56   57 am   BACKBONE|DICT|INTERRES
   111   56   58 2    
   112   57  112 1    
   113   57  113 1    
   114   59   60 1    
   115   59  114 1    
   116   59  115 1    
   117   60   61 1    
   118   61  116 1    
   119   61  117 1    
@<TRIPOS>SUBSTRUCTURE
     1 UNK         1 GROUP             0       ****    0 ROOT    
