@<TRIPOS>MOLECULE
3R8
117   119    1
SMALL
USER_CHARGES


@<TRIPOS>ATOM
      1 CA         16.9612  -26.9328  -49.9326 C.3       0 UNK        -0.2013 
      2 C          18.0051  -27.3612  -48.9124 C.2       0 UNK         0.4866 
      3 O          19.1999  -27.1784  -49.1458 O.2       0 UNK        -0.5176 
      4 N          17.5629  -27.9345  -47.7857 N.am      1 UNK        -0.4884 
      5 CA         18.4104  -28.3719  -46.6693 C.3       1 UNK         0.0853 
      6 C6         17.6394  -29.2885  -45.6810 C.3       10 UNK        -0.0849 
      7 S7         16.0600  -28.5742  -45.0922 S.3       10 UNK        -0.2776 
      8 C8         15.5365  -29.7930  -43.8464 C.3       10 UNK         0.0316 
      9 C9         16.3545  -29.6843  -42.5684 C.ar      10 UNK        -0.0863 
     10 C10        17.2935  -30.6668  -42.2450 C.ar      10 UNK        -0.1009 
     11 C11        18.0439  -30.5702  -41.0696 C.ar      10 UNK        -0.0712 
     12 C12        17.8470  -29.4852  -40.2108 C.ar      10 UNK        -0.0894 
     13 C13        16.9209  -28.4887  -40.5314 C.ar      10 UNK        -0.0745 
     14 C14        16.1671  -28.6017  -41.7041 C.ar      10 UNK        -0.0972 
     15 C15        16.7470  -27.2796  -39.6244 C.3       10 UNK         0.0209 
     16 S16        17.2969  -25.7437  -40.4353 S.3       10 UNK        -0.2568 
     17 C17        19.1124  -25.9521  -40.4981 C.3       10 UNK        -0.0983 
     18 CA         19.6358  -26.6801  -41.7713 C.3       3 UNK         0.0876 
     19 N          19.0397  -26.1974  -43.0231 N.am      3 UNK        -0.4424 
     20 C          19.2117  -25.0035  -43.6078 C.2       2 UNK         0.4918 
     21 O          19.8033  -24.0618  -43.0786 O.2       2 UNK        -0.4875 
     22 CA         18.6728  -24.8489  -45.0494 C.3       2 UNK         0.0481 
     23 CB         19.6532  -24.0539  -45.9363 C.3       2 UNK        -0.1831 
     24 N          18.3067  -26.1093  -45.7191 N.am      2 UNK        -0.4498 
     25 C          19.0779  -27.1891  -45.9378 C.2       1 UNK         0.5027 
     26 O          20.2470  -27.2869  -45.5616 O.2       1 UNK        -0.4969 
     27 C          21.1859  -26.7325  -41.8176 C.2       3 UNK         0.5005 
     28 O          21.8156  -26.7807  -40.7596 O.2       3 UNK        -0.5279 
     29 N          21.7786  -26.7150  -43.0238 N.am      4 UNK        -0.4463 
     30 CA         23.2184  -26.6252  -43.2741 C.3       4 UNK         0.0283 
     31 CB         23.4368  -26.2023  -44.7376 C.3       4 UNK        -0.1875 
     32 C          23.9137  -27.9703  -42.9809 C.2       4 UNK         0.4949 
     33 O          23.7321  -28.8954  -43.7698 O.2       4 UNK        -0.5039 
     34 N          24.6858  -28.1301  -41.8987 N.am      5 UNK        -0.4663 
     35 CA         25.0296  -27.1680  -40.8502 C.3       5 UNK         0.0242 
     36 CB         26.4371  -26.6049  -41.1184 C.3       5 UNK        -0.1982 
     37 C          24.9171  -27.9020  -39.5126 C.2       5 UNK         0.5017 
     38 O          25.9294  -28.3335  -38.9586 O.2       5 UNK        -0.5012 
     39 N          23.6679  -28.1117  -39.0729 N.am      6 UNK        -0.4439 
     40 CA         23.2060  -28.9032  -37.9187 C.3       6 UNK         0.0297 
     41 CB         23.7963  -28.3826  -36.5939 C.3       6 UNK        -0.2006 
     42 C          23.4170  -30.4242  -38.0654 C.2       6 UNK         0.4892 
     43 O          22.5608  -31.1944  -37.6298 O.2       6 UNK        -0.5089 
     44 N          24.5234  -30.8236  -38.6963 N.am      7 UNK        -0.4243 
     45 CA         24.8034  -32.1570  -39.2118 C.3       7 UNK         0.0196 
     46 CB         26.1039  -32.6738  -38.5754 C.3       7 UNK        -0.2007 
     47 C          24.9505  -32.0562  -40.7371 C.2       7 UNK         0.5020 
     48 O          25.2159  -30.9697  -41.2591 O.2       7 UNK        -0.5147 
     49 N          24.7745  -33.1972  -41.4182 N.am      8 UNK        -0.4734 
     50 CA         24.8422  -33.3962  -42.8779 C.3       8 UNK         0.0238 
     51 CB         26.2277  -33.0032  -43.4350 C.3       8 UNK        -0.1912 
     52 C          23.6941  -32.7457  -43.6805 C.2       8 UNK         0.5038 
     53 O          23.7066  -32.8197  -44.9103 O.2       8 UNK        -0.5046 
     54 N          22.7110  -32.1624  -42.9859 N.am      9 UNK        -0.4200 
     55 CA         21.4971  -31.5551  -43.5497 C.3       9 UNK         0.0839 
     56 C          20.4181  -32.5647  -44.0352 C.2       9 UNK         0.5513 
     57 N          20.5316  -33.8554  -43.7452 N.am      9 UNK        -0.7519 
     58 O          19.4632  -32.1673  -44.6968 O.2       9 UNK        -0.4960 
     59 C59        20.9028  -30.4817  -42.5991 C.3       10 UNK        -0.0876 
     60 S60        20.7790  -30.9893  -40.8465 S.3       10 UNK        -0.2414 
     61 C61        19.0797  -31.6316  -40.7352 C.3       10 UNK         0.0169 
     62 H62        17.1301  -27.4445  -50.8798 H         1 UNK         0.0903 
     63 H63        15.9483  -27.1600  -49.6006 H         1 UNK         0.0903 
     64 H64        17.0275  -25.8594  -50.1085 H         1 UNK         0.0903 
     65 H65        16.5699  -28.0653  -47.6461 H         1 UNK         0.3096 
     66 H66        19.2251  -28.9635  -47.0941 H         1 UNK         0.1121 
     67 H67        17.4160  -30.2381  -46.1700 H         1 UNK         0.0849 
     68 H68        18.2656  -29.5444  -44.8241 H         1 UNK         0.0849 
     69 H69        14.4842  -29.6267  -43.6113 H         1 UNK         0.0865 
     70 H70        15.5981  -30.7972  -44.2691 H         1 UNK         0.0865 
     71 H71        17.4475  -31.5032  -42.9136 H         1 UNK         0.1346 
     72 H72        18.4373  -29.4064  -39.3079 H         1 UNK         0.1412 
     73 H73        15.4496  -27.8322  -41.9559 H         1 UNK         0.1426 
     74 H74        15.6926  -27.1814  -39.3627 H         1 UNK         0.0716 
     75 H75        17.2860  -27.4082  -38.6844 H         1 UNK         0.0716 
     76 H76        19.5530  -24.9558  -40.4315 H         1 UNK         0.0695 
     77 H77        19.4323  -26.4811  -39.5985 H         1 UNK         0.0695 
     78 H78        19.3339  -27.7239  -41.6998 H         1 UNK         0.0983 
     79 H79        18.5053  -26.8832  -43.5357 H         1 UNK         0.3095 
     80 H80        17.7518  -24.2704  -44.9671 H         1 UNK         0.0454 
     81 H81        19.8358  -23.0583  -45.5303 H         1 UNK         0.0851 
     82 H82        20.6188  -24.5538  -46.0182 H         1 UNK         0.0851 
     83 H83        19.2590  -23.9219  -46.9438 H         1 UNK         0.0851 
     84 H84        17.3504  -26.1645  -46.0430 H         1 UNK         0.2976 
     85 H85        21.1911  -26.7652  -43.8508 H         1 UNK         0.3116 
     86 H86        23.6264  -25.8185  -42.6696 H         1 UNK         0.0646 
     87 H87        24.5006  -26.1189  -44.9634 H         1 UNK         0.0847 
     88 H88        22.9847  -25.2316  -44.9417 H         1 UNK         0.0847 
     89 H89        23.0106  -26.9215  -45.4385 H         1 UNK         0.0847 
     90 H90        25.0351  -29.0712  -41.7282 H         1 UNK         0.3040 
     91 H91        24.3347  -26.3328  -40.7887 H         1 UNK         0.1015 
     92 H92        26.4654  -26.0391  -42.0496 H         1 UNK         0.0786 
     93 H93        27.1837  -27.3972  -41.1867 H         1 UNK         0.0786 
     94 H94        26.7466  -25.9310  -40.3185 H         1 UNK         0.0786 
     95 H95        22.9202  -27.7211  -39.6487 H         1 UNK         0.3172 
     96 H96        22.1269  -28.7453  -37.8796 H         1 UNK         0.0595 
     97 H97        24.8743  -28.5353  -36.5369 H         1 UNK         0.0839 
     98 H98        23.3530  -28.9018  -35.7432 H         1 UNK         0.0839 
     99 H99        23.5996  -27.3187  -36.4626 H         1 UNK         0.0839 
    100 H100       25.1577  -30.0969  -39.0161 H         1 UNK         0.2998 
    101 H101       23.9830  -32.8392  -38.9782 H         1 UNK         0.0822 
    102 H102       26.0178  -32.7264  -37.4899 H         1 UNK         0.0787 
    103 H103       26.3451  -33.6766  -38.9304 H         1 UNK         0.0787 
    104 H104       26.9521  -32.0297  -38.8123 H         1 UNK         0.0787 
    105 H105       24.5584  -34.0305  -40.8866 H         1 UNK         0.3055 
    106 H106       24.7275  -34.4702  -43.0337 H         1 UNK         0.1106 
    107 H107       26.3334  -33.3150  -44.4748 H         1 UNK         0.0828 
    108 H108       26.3870  -31.9249  -43.4069 H         1 UNK         0.0828 
    109 H109       27.0322  -33.4775  -42.8733 H         1 UNK         0.0828 
    110 H110       22.7795  -32.1400  -41.9798 H         1 UNK         0.2931 
    111 H111       21.8056  -31.0239  -44.4525 H         1 UNK         0.0412 
    112 H112       19.8279  -34.4979  -44.0735 H         1 UNK         0.3472 
    113 H113       21.3100  -34.1926  -43.2029 H         1 UNK         0.3472 
    114 H114       19.9466  -30.1086  -42.9660 H         1 UNK         0.0970 
    115 H115       21.5551  -29.6124  -42.6109 H         1 UNK         0.0970 
    116 H116       18.9078  -31.9931  -39.7206 H         1 UNK         0.0612 
    117 H117       18.9785  -32.4984  -41.3896 H         1 UNK         0.0612 
@<TRIPOS>BOND
     1    1    2 1    
     2    1   62 1    
     3    1   63 1    
     4    1   64 1    
     5    2    3 2    
     6    2    4 am   BACKBONE|DICT|INTERRES
     7    4    5 1    
     8    4   65 1    
     9    5    6 1    
    10    5   25 1    
    11    5   66 1    
    12    6    7 1    
    13    6   67 1    
    14    6   68 1    
    15    7    8 1    
    16    8    9 1    
    17    8   69 1    
    18    8   70 1    
    19    9   10 ar   
    20    9   14 ar   
    21   10   11 ar   
    22   10   71 1    
    23   11   12 ar   
    24   11   61 1    
    25   12   13 ar   
    26   12   72 1    
    27   13   14 ar   
    28   13   15 1    
    29   14   73 1    
    30   15   16 1    
    31   15   74 1    
    32   15   75 1    
    33   16   17 1    
    34   17   18 1    
    35   17   76 1    
    36   17   77 1    
    37   18   19 1    
    38   18   27 1    
    39   18   78 1    
    40   19   20 am   BACKBONE|DICT|INTERRES
    41   19   79 1    
    42   20   21 2    
    43   20   22 1    
    44   22   23 1    
    45   22   24 1    
    46   22   80 1    
    47   23   81 1    
    48   23   82 1    
    49   23   83 1    
    50   24   25 am   BACKBONE|DICT|INTERRES
    51   24   84 1    
    52   25   26 2    
    53   27   28 2    
    54   27   29 am   BACKBONE|DICT|INTERRES
    55   29   30 1    
    56   29   85 1    
    57   30   31 1    
    58   30   32 1    
    59   30   86 1    
    60   31   87 1    
    61   31   88 1    
    62   31   89 1    
    63   32   33 2    
    64   32   34 am   BACKBONE|DICT|INTERRES
    65   34   35 1    
    66   34   90 1    
    67   35   36 1    
    68   35   37 1    
    69   35   91 1    
    70   36   92 1    
    71   36   93 1    
    72   36   94 1    
    73   37   38 2    
    74   37   39 am   BACKBONE|DICT|INTERRES
    75   39   40 1    
    76   39   95 1    
    77   40   41 1    
    78   40   42 1    
    79   40   96 1    
    80   41   97 1    
    81   41   98 1    
    82   41   99 1    
    83   42   43 2    
    84   42   44 am   BACKBONE|DICT|INTERRES
    85   44   45 1    
    86   44  100 1    
    87   45   46 1    
    88   45   47 1    
    89   45  101 1    
    90   46  102 1    
    91   46  103 1    
    92   46  104 1    
    93   47   48 2    
    94   47   49 am   BACKBONE|DICT|INTERRES
    95   49   50 1    
    96   49  105 1    
    97   50   51 1    
    98   50   52 1    
    99   50  106 1    
   100   51  107 1    
   101   51  108 1    
   102   51  109 1    
   103   52   53 2    
   104   52   54 am   BACKBONE|DICT|INTERRES
   105   54   55 1    
   106   54  110 1    
   107   55   56 1    
   108   55   59 1    
   109   55  111 1    
   110   56   57 am   BACKBONE|DICT|INTERRES
   111   56   58 2    
   112   57  112 1    
   113   57  113 1    
   114   59   60 1    
   115   59  114 1    
   116   59  115 1    
   117   60   61 1    
   118   61  116 1    
   119   61  117 1    
@<TRIPOS>SUBSTRUCTURE
     1 UNK         1 GROUP             0       ****    0 ROOT    
