@<TRIPOS>MOLECULE
3R8
117   119    1
SMALL
USER_CHARGES


@<TRIPOS>ATOM
      1 CA         22.4726  -24.5217  -48.4485 C.3       0 UNK        -0.2013 
      2 C          22.4786  -25.1915  -47.0827 C.2       0 UNK         0.4866 
      3 O          23.0874  -24.6705  -46.1484 O.2       0 UNK        -0.5176 
      4 N          21.8075  -26.3442  -46.9616 N.am      1 UNK        -0.4884 
      5 CA         21.6676  -27.1156  -45.7194 C.3       1 UNK         0.0853 
      6 C6         21.1802  -28.5635  -45.9862 C.3       10 UNK        -0.0849 
      7 S7         19.6971  -28.6583  -47.0510 S.3       10 UNK        -0.2776 
      8 C8         19.2212  -30.4033  -46.8485 C.3       10 UNK         0.0316 
      9 C9         18.5644  -30.6542  -45.4999 C.ar      10 UNK        -0.0863 
     10 C10        19.2305  -31.3778  -44.5081 C.ar      10 UNK        -0.1009 
     11 C11        18.6242  -31.6111  -43.2703 C.ar      10 UNK        -0.0712 
     12 C12        17.3401  -31.1131  -43.0258 C.ar      10 UNK        -0.0894 
     13 C13        16.6683  -30.3790  -44.0089 C.ar      10 UNK        -0.0745 
     14 C14        17.2811  -30.1650  -45.2468 C.ar      10 UNK        -0.0972 
     15 C15        15.2829  -29.8080  -43.7455 C.3       10 UNK         0.0209 
     16 S16        15.3012  -27.9860  -43.7368 S.3       10 UNK        -0.2568 
     17 C17        15.9762  -27.6141  -42.0822 C.3       10 UNK        -0.0983 
     18 CA         17.5306  -27.5507  -42.0089 C.3       3 UNK         0.0876 
     19 N          18.1504  -26.7327  -43.0589 N.am      3 UNK        -0.4424 
     20 C          18.0391  -25.4102  -43.2356 C.2       2 UNK         0.4918 
     21 O          17.3076  -24.6926  -42.5522 O.2       2 UNK        -0.4875 
     22 CA         18.8889  -24.7582  -44.3509 C.3       2 UNK         0.0481 
     23 CB         19.7020  -23.5716  -43.7930 C.3       2 UNK        -0.1831 
     24 N          19.7750  -25.6530  -45.1172 N.am      2 UNK        -0.4498 
     25 C          20.7949  -26.4023  -44.6650 C.2       1 UNK         0.5027 
     26 O          21.0572  -26.5483  -43.4732 O.2       1 UNK        -0.4969 
     27 C          18.0241  -27.1871  -40.5851 C.2       3 UNK         0.5005 
     28 O          17.3247  -27.4764  -39.6115 O.2       3 UNK        -0.5279 
     29 N          19.2063  -26.5660  -40.4664 N.am      4 UNK        -0.4463 
     30 CA         19.7881  -26.1025  -39.2079 C.3       4 UNK         0.0283 
     31 CB         19.1525  -24.7596  -38.8004 C.3       4 UNK        -0.1875 
     32 C          21.3043  -25.9583  -39.3672 C.2       4 UNK         0.4949 
     33 O          21.7824  -25.7788  -40.4879 O.2       4 UNK        -0.5039 
     34 N          22.0232  -26.0163  -38.2371 N.am      5 UNK        -0.4663 
     35 CA         23.4869  -25.9681  -38.1228 C.3       5 UNK         0.0242 
     36 CB         24.0275  -24.5747  -38.5224 C.3       5 UNK        -0.1982 
     37 C          24.1412  -27.1492  -38.8670 C.2       5 UNK         0.5017 
     38 O          23.7617  -28.2951  -38.6137 O.2       5 UNK        -0.5012 
     39 N          25.0891  -26.8733  -39.7726 N.am      6 UNK        -0.4439 
     40 CA         25.7900  -27.8556  -40.6066 C.3       6 UNK         0.0297 
     41 CB         27.1196  -27.2430  -41.0859 C.3       6 UNK        -0.2006 
     42 C          24.9161  -28.3661  -41.7729 C.2       6 UNK         0.4892 
     43 O          25.3105  -28.2609  -42.9357 O.2       6 UNK        -0.5089 
     44 N          23.7373  -28.9048  -41.4377 N.am      7 UNK        -0.4243 
     45 CA         22.7532  -29.4342  -42.3842 C.3       7 UNK         0.0196 
     46 CB         21.3717  -29.4346  -41.7139 C.3       7 UNK        -0.2007 
     47 C          23.1189  -30.8288  -42.9265 C.2       7 UNK         0.5020 
     48 O          22.6166  -31.2092  -43.9820 O.2       7 UNK        -0.5147 
     49 N          23.9988  -31.5479  -42.2127 N.am      8 UNK        -0.4734 
     50 CA         24.6236  -32.8246  -42.5890 C.3       8 UNK         0.0238 
     51 CB         25.4505  -32.6749  -43.8857 C.3       8 UNK        -0.1912 
     52 C          23.6718  -34.0391  -42.6239 C.2       8 UNK         0.5038 
     53 O          23.9531  -35.0028  -43.3393 O.2       8 UNK        -0.5046 
     54 N          22.6023  -34.0098  -41.8154 N.am      9 UNK        -0.4200 
     55 CA         21.7557  -35.1870  -41.5334 C.3       9 UNK         0.0839 
     56 C          22.3802  -36.1757  -40.5033 C.2       9 UNK         0.5513 
     57 N          23.4555  -35.8293  -39.8046 N.am      9 UNK        -0.7519 
     58 O          21.8820  -37.2869  -40.3420 O.2       9 UNK        -0.4960 
     59 C59        20.3126  -34.7933  -41.1175 C.3       10 UNK        -0.0876 
     60 S60        19.3299  -34.1681  -42.5194 S.3       10 UNK        -0.2414 
     61 C61        19.3708  -32.3849  -42.1962 C.3       10 UNK         0.0169 
     62 H62        21.9019  -25.0925  -49.1809 H         1 UNK         0.0903 
     63 H63        22.0329  -23.5273  -48.3764 H         1 UNK         0.0903 
     64 H64        23.4918  -24.4176  -48.8197 H         1 UNK         0.0903 
     65 H65        21.3265  -26.7330  -47.7617 H         1 UNK         0.3096 
     66 H66        22.6639  -27.1880  -45.2758 H         1 UNK         0.1121 
     67 H67        20.9880  -29.0859  -45.0472 H         1 UNK         0.0849 
     68 H68        21.9765  -29.1280  -46.4739 H         1 UNK         0.0849 
     69 H69        20.0971  -31.0400  -46.9841 H         1 UNK         0.0865 
     70 H70        18.5225  -30.6734  -47.6416 H         1 UNK         0.0865 
     71 H71        20.2223  -31.7647  -44.6969 H         1 UNK         0.1346 
     72 H72        16.8699  -31.2872  -42.0675 H         1 UNK         0.1412 
     73 H73        16.7644  -29.5975  -46.0093 H         1 UNK         0.1426 
     74 H74        14.8702  -30.1802  -42.8066 H         1 UNK         0.0716 
     75 H75        14.6072  -30.1473  -44.5319 H         1 UNK         0.0716 
     76 H76        15.5907  -28.3570  -41.3817 H         1 UNK         0.0695 
     77 H77        15.5490  -26.6605  -41.7672 H         1 UNK         0.0695 
     78 H78        17.9072  -28.5584  -42.1787 H         1 UNK         0.0983 
     79 H79        18.7916  -27.2216  -43.6663 H         1 UNK         0.3095 
     80 H80        18.1759  -24.3596  -45.0738 H         1 UNK         0.0454 
     81 H81        19.0499  -22.8222  -43.3429 H         1 UNK         0.0851 
     82 H82        20.2691  -23.0736  -44.5794 H         1 UNK         0.0851 
     83 H83        20.4063  -23.8917  -43.0239 H         1 UNK         0.0851 
     84 H84        19.6270  -25.6515  -46.1171 H         1 UNK         0.2976 
     85 H85        19.7795  -26.3938  -41.2869 H         1 UNK         0.3116 
     86 H86        19.5984  -26.8472  -38.4317 H         1 UNK         0.0646 
     87 H87        18.0799  -24.8596  -38.6340 H         1 UNK         0.0847 
     88 H88        19.3013  -23.9982  -39.5673 H         1 UNK         0.0847 
     89 H89        19.5875  -24.3810  -37.8746 H         1 UNK         0.0847 
     90 H90        21.5303  -26.1872  -37.3710 H         1 UNK         0.3040 
     91 H91        23.7196  -26.1187  -37.0673 H         1 UNK         0.1015 
     92 H92        25.0981  -24.4944  -38.3290 H         1 UNK         0.0786 
     93 H93        23.5438  -23.7897  -37.9409 H         1 UNK         0.0786 
     94 H94        23.8597  -24.3491  -39.5762 H         1 UNK         0.0786 
     95 H95        25.2974  -25.9018  -39.9528 H         1 UNK         0.3172 
     96 H96        26.0332  -28.7226  -39.9886 H         1 UNK         0.0595 
     97 H97        26.9579  -26.3674  -41.7160 H         1 UNK         0.0839 
     98 H98        27.6936  -27.9633  -41.6705 H         1 UNK         0.0839 
     99 H99        27.7450  -26.9419  -40.2453 H         1 UNK         0.0839 
    100 H100       23.4916  -28.9120  -40.4521 H         1 UNK         0.2998 
    101 H101       22.7122  -28.7558  -43.2378 H         1 UNK         0.0822 
    102 H102       20.5933  -29.6832  -42.4344 H         1 UNK         0.0787 
    103 H103       21.1314  -28.4484  -41.3195 H         1 UNK         0.0787 
    104 H104       21.3154  -30.1473  -40.8906 H         1 UNK         0.0787 
    105 H105       24.3319  -31.1371  -41.3514 H         1 UNK         0.3055 
    106 H106       25.3330  -33.0483  -41.7906 H         1 UNK         0.1106 
    107 H107       26.1297  -31.8243  -43.8282 H         1 UNK         0.0828 
    108 H108       26.0601  -33.5607  -44.0681 H         1 UNK         0.0828 
    109 H109       24.8128  -32.5368  -44.7594 H         1 UNK         0.0828 
    110 H110       22.4407  -33.1866  -41.2560 H         1 UNK         0.2931 
    111 H111       21.6710  -35.7637  -42.4569 H         1 UNK         0.0412 
    112 H112       23.8760  -34.9217  -39.9175 H         1 UNK         0.3472 
    113 H113       23.8462  -36.4863  -39.1469 H         1 UNK         0.3472 
    114 H114       20.3251  -34.0689  -40.3014 H         1 UNK         0.0970 
    115 H115       19.7702  -35.6596  -40.7330 H         1 UNK         0.0970 
    116 H116       18.9496  -32.1799  -41.2108 H         1 UNK         0.0612 
    117 H117       20.4111  -32.0641  -42.1682 H         1 UNK         0.0612 
@<TRIPOS>BOND
     1    1    2 1    
     2    1   62 1    
     3    1   63 1    
     4    1   64 1    
     5    2    3 2    
     6    2    4 am   BACKBONE|DICT|INTERRES
     7    4    5 1    
     8    4   65 1    
     9    5    6 1    
    10    5   25 1    
    11    5   66 1    
    12    6    7 1    
    13    6   67 1    
    14    6   68 1    
    15    7    8 1    
    16    8    9 1    
    17    8   69 1    
    18    8   70 1    
    19    9   10 ar   
    20    9   14 ar   
    21   10   11 ar   
    22   10   71 1    
    23   11   12 ar   
    24   11   61 1    
    25   12   13 ar   
    26   12   72 1    
    27   13   14 ar   
    28   13   15 1    
    29   14   73 1    
    30   15   16 1    
    31   15   74 1    
    32   15   75 1    
    33   16   17 1    
    34   17   18 1    
    35   17   76 1    
    36   17   77 1    
    37   18   19 1    
    38   18   27 1    
    39   18   78 1    
    40   19   20 am   BACKBONE|DICT|INTERRES
    41   19   79 1    
    42   20   21 2    
    43   20   22 1    
    44   22   23 1    
    45   22   24 1    
    46   22   80 1    
    47   23   81 1    
    48   23   82 1    
    49   23   83 1    
    50   24   25 am   BACKBONE|DICT|INTERRES
    51   24   84 1    
    52   25   26 2    
    53   27   28 2    
    54   27   29 am   BACKBONE|DICT|INTERRES
    55   29   30 1    
    56   29   85 1    
    57   30   31 1    
    58   30   32 1    
    59   30   86 1    
    60   31   87 1    
    61   31   88 1    
    62   31   89 1    
    63   32   33 2    
    64   32   34 am   BACKBONE|DICT|INTERRES
    65   34   35 1    
    66   34   90 1    
    67   35   36 1    
    68   35   37 1    
    69   35   91 1    
    70   36   92 1    
    71   36   93 1    
    72   36   94 1    
    73   37   38 2    
    74   37   39 am   BACKBONE|DICT|INTERRES
    75   39   40 1    
    76   39   95 1    
    77   40   41 1    
    78   40   42 1    
    79   40   96 1    
    80   41   97 1    
    81   41   98 1    
    82   41   99 1    
    83   42   43 2    
    84   42   44 am   BACKBONE|DICT|INTERRES
    85   44   45 1    
    86   44  100 1    
    87   45   46 1    
    88   45   47 1    
    89   45  101 1    
    90   46  102 1    
    91   46  103 1    
    92   46  104 1    
    93   47   48 2    
    94   47   49 am   BACKBONE|DICT|INTERRES
    95   49   50 1    
    96   49  105 1    
    97   50   51 1    
    98   50   52 1    
    99   50  106 1    
   100   51  107 1    
   101   51  108 1    
   102   51  109 1    
   103   52   53 2    
   104   52   54 am   BACKBONE|DICT|INTERRES
   105   54   55 1    
   106   54  110 1    
   107   55   56 1    
   108   55   59 1    
   109   55  111 1    
   110   56   57 am   BACKBONE|DICT|INTERRES
   111   56   58 2    
   112   57  112 1    
   113   57  113 1    
   114   59   60 1    
   115   59  114 1    
   116   59  115 1    
   117   60   61 1    
   118   61  116 1    
   119   61  117 1    
@<TRIPOS>SUBSTRUCTURE
     1 UNK         1 GROUP             0       ****    0 ROOT    
