@<TRIPOS>MOLECULE
3R8
117   119    1
SMALL
USER_CHARGES


@<TRIPOS>ATOM
      1 CA         13.9610  -29.3667  -42.0985 C.3       0 UNK        -0.2013 
      2 C          14.6953  -28.0413  -42.2279 C.2       0 UNK         0.4866 
      3 O          14.6040  -27.1982  -41.3359 O.2       0 UNK        -0.5176 
      4 N          15.4292  -27.8523  -43.3321 N.am      1 UNK        -0.4884 
      5 CA         16.1783  -26.6266  -43.6543 C.3       1 UNK         0.0853 
      6 C6         16.3469  -26.3979  -45.1850 C.3       10 UNK        -0.0849 
      7 S7         14.8763  -26.8750  -46.1729 S.3       10 UNK        -0.2776 
      8 C8         15.4722  -28.2279  -47.2539 C.3       10 UNK         0.0316 
      9 C9         16.4588  -29.1700  -46.5727 C.ar      10 UNK        -0.0863 
     10 C10        16.0395  -30.0526  -45.5726 C.ar      10 UNK        -0.1009 
     11 C11        16.9655  -30.8663  -44.9084 C.ar      10 UNK        -0.0712 
     12 C12        18.3126  -30.8186  -45.2858 C.ar      10 UNK        -0.0894 
     13 C13        18.7421  -29.9497  -46.2908 C.ar      10 UNK        -0.0745 
     14 C14        17.8075  -29.1374  -46.9369 C.ar      10 UNK        -0.0972 
     15 C15        20.2070  -29.8971  -46.7015 C.3       10 UNK         0.0209 
     16 S16        20.9216  -28.2377  -46.4577 S.3       10 UNK        -0.2568 
     17 C17        21.9655  -28.4401  -44.9771 C.3       10 UNK        -0.0983 
     18 CA         21.8344  -27.2172  -44.0259 C.3       3 UNK         0.0876 
     19 N          20.6190  -27.2608  -43.1988 N.am      3 UNK        -0.4424 
     20 C          20.3818  -28.0803  -42.1634 C.2       2 UNK         0.4918 
     21 O          21.1519  -28.9628  -41.7880 O.2       2 UNK        -0.4875 
     22 CA         19.0738  -27.8943  -41.3813 C.3       2 UNK         0.0481 
     23 CB         19.2392  -26.8292  -40.2808 C.3       2 UNK        -0.1831 
     24 N          17.8858  -27.6507  -42.2043 N.am      2 UNK        -0.4498 
     25 C          17.5480  -26.5794  -42.9380 C.2       1 UNK         0.5027 
     26 O          18.2761  -25.5960  -43.0828 O.2       1 UNK        -0.4969 
     27 C          23.0781  -27.0126  -43.1343 C.2       3 UNK         0.5005 
     28 O          23.8942  -27.9245  -42.9915 O.2       3 UNK        -0.5279 
     29 N          23.1593  -25.8295  -42.5053 N.am      4 UNK        -0.4463 
     30 CA         24.0738  -25.4519  -41.4150 C.3       4 UNK         0.0283 
     31 CB         23.8440  -23.9722  -41.0664 C.3       4 UNK        -0.1875 
     32 C          25.5783  -25.7193  -41.6229 C.2       4 UNK         0.4949 
     33 O          26.3060  -25.7973  -40.6332 O.2       4 UNK        -0.5039 
     34 N          26.0223  -25.8767  -42.8778 N.am      5 UNK        -0.4663 
     35 CA         27.3715  -26.3340  -43.2295 C.3       5 UNK         0.0242 
     36 CB         27.5749  -26.1942  -44.7467 C.3       5 UNK        -0.1982 
     37 C          27.6571  -27.7806  -42.7763 C.2       5 UNK         0.5017 
     38 O          28.8019  -28.0906  -42.4449 O.2       5 UNK        -0.5012 
     39 N          26.6150  -28.6222  -42.7557 N.am      6 UNK        -0.4439 
     40 CA         26.6251  -29.9755  -42.1987 C.3       6 UNK         0.0297 
     41 CB         25.9286  -30.9346  -43.1793 C.3       6 UNK        -0.2006 
     42 C          25.9198  -30.0034  -40.8325 C.2       6 UNK         0.4892 
     43 O          26.4251  -30.6502  -39.9142 O.2       6 UNK        -0.5089 
     44 N          24.7896  -29.2842  -40.7382 N.am      7 UNK        -0.4243 
     45 CA         23.8469  -29.1594  -39.6217 C.3       7 UNK         0.0196 
     46 CB         24.5457  -28.6985  -38.3273 C.3       7 UNK        -0.2007 
     47 C          23.0025  -30.4262  -39.3982 C.2       7 UNK         0.5020 
     48 O          23.4154  -31.5342  -39.7462 O.2       7 UNK        -0.5147 
     49 N          21.8050  -30.2245  -38.8266 N.am      8 UNK        -0.4734 
     50 CA         20.7947  -31.2432  -38.4936 C.3       8 UNK         0.0238 
     51 CB         21.2682  -32.0816  -37.2869 C.3       8 UNK        -0.1912 
     52 C          20.3605  -32.1221  -39.6884 C.2       8 UNK         0.5038 
     53 O          20.0353  -33.2951  -39.4955 O.2       8 UNK        -0.5046 
     54 N          20.3823  -31.5411  -40.8955 N.am      9 UNK        -0.4200 
     55 CA         20.1586  -32.1936  -42.1943 C.3       9 UNK         0.0839 
     56 C          21.2871  -33.1838  -42.6185 C.2       9 UNK         0.5513 
     57 N          22.4530  -33.1898  -41.9825 N.am      9 UNK        -0.7519 
     58 O          21.1191  -33.9411  -43.5709 O.2       9 UNK        -0.4960 
     59 C59        18.7306  -32.7967  -42.3521 C.3       10 UNK        -0.0876 
     60 S60        17.3972  -31.5494  -42.2281 S.3       10 UNK        -0.2414 
     61 C61        16.4992  -31.8032  -43.7992 C.3       10 UNK         0.0169 
     62 H62        13.8202  -29.8458  -43.0666 H         1 UNK         0.0903 
     63 H63        14.5197  -30.0455  -41.4545 H         1 UNK         0.0903 
     64 H64        12.9764  -29.2115  -41.6582 H         1 UNK         0.0903 
     65 H65        15.4731  -28.5705  -44.0419 H         1 UNK         0.3096 
     66 H66        15.6057  -25.7807  -43.2668 H         1 UNK         0.1121 
     67 H67        17.2344  -26.9037  -45.5629 H         1 UNK         0.0849 
     68 H68        16.5365  -25.3391  -45.3704 H         1 UNK         0.0849 
     69 H69        14.6139  -28.7998  -47.6095 H         1 UNK         0.0865 
     70 H70        15.9232  -27.7839  -48.1428 H         1 UNK         0.0865 
     71 H71        14.9917  -30.0942  -45.3078 H         1 UNK         0.1346 
     72 H72        19.0299  -31.4613  -44.8007 H         1 UNK         0.1412 
     73 H73        18.1408  -28.4608  -47.7124 H         1 UNK         0.1426 
     74 H74        20.7962  -30.6466  -46.1710 H         1 UNK         0.0716 
     75 H75        20.2788  -30.1516  -47.7597 H         1 UNK         0.0716 
     76 H76        22.9887  -28.5515  -45.3413 H         1 UNK         0.0695 
     77 H77        21.7274  -29.3690  -44.4565 H         1 UNK         0.0695 
     78 H78        21.7652  -26.3181  -44.6409 H         1 UNK         0.0983 
     79 H79        19.9144  -26.5556  -43.3936 H         1 UNK         0.3095 
     80 H80        18.8773  -28.8440  -40.8809 H         1 UNK         0.0454 
     81 H81        18.3412  -26.7506  -39.6681 H         1 UNK         0.0851 
     82 H82        19.4513  -25.8422  -40.6925 H         1 UNK         0.0851 
     83 H83        20.0644  -27.0831  -39.6144 H         1 UNK         0.0851 
     84 H84        17.2190  -28.4104  -42.2135 H         1 UNK         0.2976 
     85 H85        22.4358  -25.1539  -42.7074 H         1 UNK         0.3116 
     86 H86        23.7781  -26.0462  -40.5486 H         1 UNK         0.0646 
     87 H87        22.8131  -23.7879  -40.7635 H         1 UNK         0.0847 
     88 H88        24.4801  -23.6603  -40.2364 H         1 UNK         0.0847 
     89 H89        24.0698  -23.3201  -41.9111 H         1 UNK         0.0847 
     90 H90        25.3558  -25.7909  -43.6312 H         1 UNK         0.3040 
     91 H91        28.0901  -25.6851  -42.7236 H         1 UNK         0.1015 
     92 H92        26.8695  -26.8086  -45.3077 H         1 UNK         0.0786 
     93 H93        28.5798  -26.5061  -45.0351 H         1 UNK         0.0786 
     94 H94        27.4532  -25.1603  -45.0703 H         1 UNK         0.0786 
     95 H95        25.7010  -28.2552  -43.0138 H         1 UNK         0.3172 
     96 H96        27.6516  -30.3203  -42.0577 H         1 UNK         0.0595 
     97 H97        24.8939  -30.6435  -43.3676 H         1 UNK         0.0839 
     98 H98        25.9130  -31.9513  -42.7842 H         1 UNK         0.0839 
     99 H99        26.4470  -30.9658  -44.1375 H         1 UNK         0.0839 
    100 H100       24.4635  -28.8354  -41.5930 H         1 UNK         0.2998 
    101 H101       23.1591  -28.3694  -39.9270 H         1 UNK         0.0822 
    102 H102       23.8158  -28.4504  -37.5560 H         1 UNK         0.0787 
    103 H103       25.1947  -29.4724  -37.9166 H         1 UNK         0.0787 
    104 H104       25.1508  -27.8081  -38.4999 H         1 UNK         0.0787 
    105 H105       21.5489  -29.2746  -38.5956 H         1 UNK         0.3055 
    106 H106       19.8983  -30.7015  -38.1872 H         1 UNK         0.1106 
    107 H107       20.4819  -32.7533  -36.9402 H         1 UNK         0.0828 
    108 H108       22.1335  -32.6958  -37.5389 H         1 UNK         0.0828 
    109 H109       21.5420  -31.4465  -36.4445 H         1 UNK         0.0828 
    110 H110       20.7113  -30.5823  -40.9656 H         1 UNK         0.2931 
    111 H111       20.2454  -31.3808  -42.9146 H         1 UNK         0.0412 
    112 H112       23.1689  -33.8312  -42.2828 H         1 UNK         0.3472 
    113 H113       22.6331  -32.5695  -41.1983 H         1 UNK         0.3472 
    114 H114       18.5519  -33.5690  -41.6035 H         1 UNK         0.0970 
    115 H115       18.6427  -33.3074  -43.3116 H         1 UNK         0.0970 
    116 H116       15.4384  -31.6496  -43.5992 H         1 UNK         0.0612 
    117 H117       16.5879  -32.8376  -44.1327 H         1 UNK         0.0612 
@<TRIPOS>BOND
     1    1    2 1    
     2    1   62 1    
     3    1   63 1    
     4    1   64 1    
     5    2    3 2    
     6    2    4 am   BACKBONE|DICT|INTERRES
     7    4    5 1    
     8    4   65 1    
     9    5    6 1    
    10    5   25 1    
    11    5   66 1    
    12    6    7 1    
    13    6   67 1    
    14    6   68 1    
    15    7    8 1    
    16    8    9 1    
    17    8   69 1    
    18    8   70 1    
    19    9   10 ar   
    20    9   14 ar   
    21   10   11 ar   
    22   10   71 1    
    23   11   12 ar   
    24   11   61 1    
    25   12   13 ar   
    26   12   72 1    
    27   13   14 ar   
    28   13   15 1    
    29   14   73 1    
    30   15   16 1    
    31   15   74 1    
    32   15   75 1    
    33   16   17 1    
    34   17   18 1    
    35   17   76 1    
    36   17   77 1    
    37   18   19 1    
    38   18   27 1    
    39   18   78 1    
    40   19   20 am   BACKBONE|DICT|INTERRES
    41   19   79 1    
    42   20   21 2    
    43   20   22 1    
    44   22   23 1    
    45   22   24 1    
    46   22   80 1    
    47   23   81 1    
    48   23   82 1    
    49   23   83 1    
    50   24   25 am   BACKBONE|DICT|INTERRES
    51   24   84 1    
    52   25   26 2    
    53   27   28 2    
    54   27   29 am   BACKBONE|DICT|INTERRES
    55   29   30 1    
    56   29   85 1    
    57   30   31 1    
    58   30   32 1    
    59   30   86 1    
    60   31   87 1    
    61   31   88 1    
    62   31   89 1    
    63   32   33 2    
    64   32   34 am   BACKBONE|DICT|INTERRES
    65   34   35 1    
    66   34   90 1    
    67   35   36 1    
    68   35   37 1    
    69   35   91 1    
    70   36   92 1    
    71   36   93 1    
    72   36   94 1    
    73   37   38 2    
    74   37   39 am   BACKBONE|DICT|INTERRES
    75   39   40 1    
    76   39   95 1    
    77   40   41 1    
    78   40   42 1    
    79   40   96 1    
    80   41   97 1    
    81   41   98 1    
    82   41   99 1    
    83   42   43 2    
    84   42   44 am   BACKBONE|DICT|INTERRES
    85   44   45 1    
    86   44  100 1    
    87   45   46 1    
    88   45   47 1    
    89   45  101 1    
    90   46  102 1    
    91   46  103 1    
    92   46  104 1    
    93   47   48 2    
    94   47   49 am   BACKBONE|DICT|INTERRES
    95   49   50 1    
    96   49  105 1    
    97   50   51 1    
    98   50   52 1    
    99   50  106 1    
   100   51  107 1    
   101   51  108 1    
   102   51  109 1    
   103   52   53 2    
   104   52   54 am   BACKBONE|DICT|INTERRES
   105   54   55 1    
   106   54  110 1    
   107   55   56 1    
   108   55   59 1    
   109   55  111 1    
   110   56   57 am   BACKBONE|DICT|INTERRES
   111   56   58 2    
   112   57  112 1    
   113   57  113 1    
   114   59   60 1    
   115   59  114 1    
   116   59  115 1    
   117   60   61 1    
   118   61  116 1    
   119   61  117 1    
@<TRIPOS>SUBSTRUCTURE
     1 UNK         1 GROUP             0       ****    0 ROOT    
