@<TRIPOS>MOLECULE
3R8
117   119    1
SMALL
USER_CHARGES


@<TRIPOS>ATOM
      1 CA         20.8251  -24.5756  -41.0639 C.3       0 UNK        -0.2013 
      2 C          19.4802  -24.3399  -41.7374 C.2       0 UNK         0.4866 
      3 O          18.5953  -23.7248  -41.1414 O.2       0 UNK        -0.5176 
      4 N          19.3302  -24.8240  -42.9729 N.am      1 UNK        -0.4884 
      5 CA         18.1455  -24.6874  -43.8211 C.3       1 UNK         0.0853 
      6 C6         17.4006  -26.0432  -43.9762 C.3       10 UNK        -0.0849 
      7 S7         16.7942  -26.7863  -42.4258 S.3       10 UNK        -0.2776 
      8 C8         15.7781  -28.1579  -43.0754 C.3       10 UNK         0.0316 
      9 C9         16.6178  -29.2164  -43.7820 C.ar      10 UNK        -0.0863 
     10 C10        17.0921  -30.3283  -43.0807 C.ar      10 UNK        -0.1009 
     11 C11        17.8684  -31.2972  -43.7249 C.ar      10 UNK        -0.0712 
     12 C12        18.1869  -31.1392  -45.0780 C.ar      10 UNK        -0.0894 
     13 C13        17.7307  -30.0225  -45.7881 C.ar      10 UNK        -0.0745 
     14 C14        16.9205  -29.0855  -45.1406 C.ar      10 UNK        -0.0972 
     15 C15        18.1190  -29.7989  -47.2473 C.3       10 UNK         0.0209 
     16 S16        19.9194  -29.8643  -47.5679 S.3       10 UNK        -0.2568 
     17 C17        20.6627  -28.8911  -46.2126 C.3       10 UNK        -0.0983 
     18 CA         21.1138  -27.4674  -46.6244 C.3       3 UNK         0.0876 
     19 N          19.9721  -26.6262  -46.9824 N.am      3 UNK        -0.4424 
     20 C          20.0400  -25.4684  -47.6545 C.2       2 UNK         0.4918 
     21 O          21.0443  -25.0710  -48.2455 O.2       2 UNK        -0.4875 
     22 CA         18.7759  -24.5852  -47.6111 C.3       2 UNK         0.0481 
     23 CB         17.7814  -25.0058  -48.7050 C.3       2 UNK        -0.1831 
     24 N          18.1273  -24.6576  -46.2962 N.am      2 UNK        -0.4498 
     25 C          18.6458  -24.1288  -45.1749 C.2       1 UNK         0.5027 
     26 O          19.5324  -23.2702  -45.1891 O.2       1 UNK        -0.4969 
     27 C          21.8609  -26.8323  -45.4347 C.2       3 UNK         0.5005 
     28 O          21.2403  -26.1518  -44.6105 O.2       3 UNK        -0.5279 
     29 N          23.1520  -27.1558  -45.2857 N.am      4 UNK        -0.4463 
     30 CA         23.9691  -26.8270  -44.1106 C.3       4 UNK         0.0283 
     31 CB         25.4583  -26.9069  -44.4944 C.3       4 UNK        -0.1875 
     32 C          23.6209  -27.7279  -42.9052 C.2       4 UNK         0.4949 
     33 O          24.4926  -28.4027  -42.3578 O.2       4 UNK        -0.5039 
     34 N          22.3391  -27.7309  -42.5204 N.am      5 UNK        -0.4663 
     35 CA         21.6895  -28.5854  -41.5198 C.3       5 UNK         0.0242 
     36 CB         20.1658  -28.4947  -41.7307 C.3       5 UNK        -0.1982 
     37 C          22.0918  -28.3088  -40.0539 C.2       5 UNK         0.5017 
     38 O          21.2761  -28.4905  -39.1483 O.2       5 UNK        -0.5012 
     39 N          23.3464  -27.9062  -39.8232 N.am      6 UNK        -0.4439 
     40 CA         23.9542  -27.6856  -38.5101 C.3       6 UNK         0.0297 
     41 CB         25.1194  -26.6908  -38.6642 C.3       6 UNK        -0.2006 
     42 C          24.3949  -29.0296  -37.9022 C.2       6 UNK         0.4892 
     43 O          25.5919  -29.2995  -37.8004 O.2       6 UNK        -0.5089 
     44 N          23.4015  -29.8739  -37.5871 N.am      7 UNK        -0.4243 
     45 CA         23.4925  -31.2677  -37.1219 C.3       7 UNK         0.0196 
     46 CB         24.2993  -31.3776  -35.8113 C.3       7 UNK        -0.2007 
     47 C          23.9877  -32.2706  -38.1860 C.2       7 UNK         0.5020 
     48 O          24.0431  -33.4675  -37.9003 O.2       7 UNK        -0.5147 
     49 N          24.2907  -31.7963  -39.4039 N.am      8 UNK        -0.4734 
     50 CA         24.7648  -32.5923  -40.5439 C.3       8 UNK         0.0238 
     51 CB         25.1712  -31.6417  -41.6810 C.3       8 UNK        -0.1912 
     52 C          23.7486  -33.6288  -41.0573 C.2       8 UNK         0.5038 
     53 O          24.1515  -34.6039  -41.6927 O.2       8 UNK        -0.5046 
     54 N          22.4621  -33.4034  -40.7651 N.am      9 UNK        -0.4200 
     55 CA         21.3499  -34.3229  -41.0413 C.3       9 UNK         0.0839 
     56 C          21.3603  -35.6174  -40.1741 C.2       9 UNK         0.5513 
     57 N          22.1447  -35.7041  -39.1045 N.am      9 UNK        -0.7519 
     58 O          20.6396  -36.5631  -40.4818 O.2       9 UNK        -0.4960 
     59 C59        19.9806  -33.6037  -40.9260 C.3       10 UNK        -0.0876 
     60 S60        19.8523  -32.1271  -41.9937 S.3       10 UNK        -0.2414 
     61 C61        18.3562  -32.5121  -42.9517 C.3       10 UNK         0.0169 
     62 H62        20.7128  -25.2749  -40.2356 H         1 UNK         0.0903 
     63 H63        21.5606  -24.9832  -41.7571 H         1 UNK         0.0903 
     64 H64        21.2183  -23.6390  -40.6696 H         1 UNK         0.0903 
     65 H65        20.1203  -25.2555  -43.4508 H         1 UNK         0.3096 
     66 H66        17.4591  -23.9461  -43.4066 H         1 UNK         0.1121 
     67 H67        16.5348  -25.9325  -44.6310 H         1 UNK         0.0849 
     68 H68        18.0731  -26.7678  -44.4373 H         1 UNK         0.0849 
     69 H69        15.2319  -28.6111  -42.2467 H         1 UNK         0.0865 
     70 H70        15.0193  -27.7634  -43.7530 H         1 UNK         0.0865 
     71 H71        16.8614  -30.4397  -42.0299 H         1 UNK         0.1346 
     72 H72        18.8057  -31.8737  -45.5751 H         1 UNK         0.1412 
     73 H73        16.5445  -28.2336  -45.6894 H         1 UNK         0.1426 
     74 H74        17.6274  -30.5545  -47.8612 H         1 UNK         0.0716 
     75 H75        17.7499  -28.8347  -47.6000 H         1 UNK         0.0716 
     76 H76        19.9883  -28.8422  -45.3572 H         1 UNK         0.0695 
     77 H77        21.5198  -29.4721  -45.8657 H         1 UNK         0.0695 
     78 H78        21.7928  -27.5301  -47.4777 H         1 UNK         0.0983 
     79 H79        19.1094  -26.8562  -46.5193 H         1 UNK         0.3095 
     80 H80        19.0743  -23.5517  -47.7993 H         1 UNK         0.0454 
     81 H81        16.9038  -24.3592  -48.7128 H         1 UNK         0.0851 
     82 H82        18.2399  -24.9377  -49.6925 H         1 UNK         0.0851 
     83 H83        17.4408  -26.0338  -48.5758 H         1 UNK         0.0851 
     84 H84        17.3458  -25.2906  -46.2159 H         1 UNK         0.2976 
     85 H85        23.5840  -27.7574  -45.9731 H         1 UNK         0.3116 
     86 H86        23.7588  -25.7970  -43.8141 H         1 UNK         0.0646 
     87 H87        26.0939  -26.6248  -43.6538 H         1 UNK         0.0847 
     88 H88        25.6942  -26.2305  -45.3160 H         1 UNK         0.0847 
     89 H89        25.7458  -27.9153  -44.7948 H         1 UNK         0.0847 
     90 H90        21.7209  -27.1318  -43.0596 H         1 UNK         0.3040 
     91 H91        21.9896  -29.6150  -41.7262 H         1 UNK         0.1015 
     92 H92        19.7895  -27.4908  -41.5345 H         1 UNK         0.0786 
     93 H93        19.6301  -29.1762  -41.0688 H         1 UNK         0.0786 
     94 H94        19.8854  -28.7633  -42.7498 H         1 UNK         0.0786 
     95 H95        23.9680  -27.8795  -40.6280 H         1 UNK         0.3172 
     96 H96        23.2173  -27.2385  -37.8393 H         1 UNK         0.0595 
     97 H97        25.8861  -27.0657  -39.3437 H         1 UNK         0.0839 
     98 H98        25.5992  -26.5001  -37.7033 H         1 UNK         0.0839 
     99 H99        24.7724  -25.7314  -39.0485 H         1 UNK         0.0839 
    100 H100       22.4599  -29.5427  -37.7760 H         1 UNK         0.2998 
    101 H101       22.4673  -31.5652  -36.8960 H         1 UNK         0.0822 
    102 H102       23.9280  -30.6844  -35.0565 H         1 UNK         0.0787 
    103 H103       24.2251  -32.3816  -35.3914 H         1 UNK         0.0787 
    104 H104       25.3589  -31.1725  -35.9651 H         1 UNK         0.0787 
    105 H105       24.2440  -30.7974  -39.5397 H         1 UNK         0.3055 
    106 H106       25.6499  -33.1429  -40.2176 H         1 UNK         0.1106 
    107 H107       25.5995  -32.1947  -42.5181 H         1 UNK         0.0828 
    108 H108       24.3153  -31.0854  -42.0649 H         1 UNK         0.0828 
    109 H109       25.9208  -30.9205  -41.3540 H         1 UNK         0.0828 
    110 H110       22.2300  -32.5694  -40.2488 H         1 UNK         0.2931 
    111 H111       21.4592  -34.6522  -42.0766 H         1 UNK         0.0412 
    112 H112       22.1380  -36.5510  -38.5582 H         1 UNK         0.3472 
    113 H113       22.7480  -34.9372  -38.8341 H         1 UNK         0.3472 
    114 H114       19.1732  -34.2958  -41.1729 H         1 UNK         0.0970 
    115 H115       19.8005  -33.2913  -39.8957 H         1 UNK         0.0970 
    116 H116       18.5644  -33.3423  -43.6285 H         1 UNK         0.0612 
    117 H117       17.5677  -32.8496  -42.2771 H         1 UNK         0.0612 
@<TRIPOS>BOND
     1    1    2 1    
     2    1   62 1    
     3    1   63 1    
     4    1   64 1    
     5    2    3 2    
     6    2    4 am   BACKBONE|DICT|INTERRES
     7    4    5 1    
     8    4   65 1    
     9    5    6 1    
    10    5   25 1    
    11    5   66 1    
    12    6    7 1    
    13    6   67 1    
    14    6   68 1    
    15    7    8 1    
    16    8    9 1    
    17    8   69 1    
    18    8   70 1    
    19    9   10 ar   
    20    9   14 ar   
    21   10   11 ar   
    22   10   71 1    
    23   11   12 ar   
    24   11   61 1    
    25   12   13 ar   
    26   12   72 1    
    27   13   14 ar   
    28   13   15 1    
    29   14   73 1    
    30   15   16 1    
    31   15   74 1    
    32   15   75 1    
    33   16   17 1    
    34   17   18 1    
    35   17   76 1    
    36   17   77 1    
    37   18   19 1    
    38   18   27 1    
    39   18   78 1    
    40   19   20 am   BACKBONE|DICT|INTERRES
    41   19   79 1    
    42   20   21 2    
    43   20   22 1    
    44   22   23 1    
    45   22   24 1    
    46   22   80 1    
    47   23   81 1    
    48   23   82 1    
    49   23   83 1    
    50   24   25 am   BACKBONE|DICT|INTERRES
    51   24   84 1    
    52   25   26 2    
    53   27   28 2    
    54   27   29 am   BACKBONE|DICT|INTERRES
    55   29   30 1    
    56   29   85 1    
    57   30   31 1    
    58   30   32 1    
    59   30   86 1    
    60   31   87 1    
    61   31   88 1    
    62   31   89 1    
    63   32   33 2    
    64   32   34 am   BACKBONE|DICT|INTERRES
    65   34   35 1    
    66   34   90 1    
    67   35   36 1    
    68   35   37 1    
    69   35   91 1    
    70   36   92 1    
    71   36   93 1    
    72   36   94 1    
    73   37   38 2    
    74   37   39 am   BACKBONE|DICT|INTERRES
    75   39   40 1    
    76   39   95 1    
    77   40   41 1    
    78   40   42 1    
    79   40   96 1    
    80   41   97 1    
    81   41   98 1    
    82   41   99 1    
    83   42   43 2    
    84   42   44 am   BACKBONE|DICT|INTERRES
    85   44   45 1    
    86   44  100 1    
    87   45   46 1    
    88   45   47 1    
    89   45  101 1    
    90   46  102 1    
    91   46  103 1    
    92   46  104 1    
    93   47   48 2    
    94   47   49 am   BACKBONE|DICT|INTERRES
    95   49   50 1    
    96   49  105 1    
    97   50   51 1    
    98   50   52 1    
    99   50  106 1    
   100   51  107 1    
   101   51  108 1    
   102   51  109 1    
   103   52   53 2    
   104   52   54 am   BACKBONE|DICT|INTERRES
   105   54   55 1    
   106   54  110 1    
   107   55   56 1    
   108   55   59 1    
   109   55  111 1    
   110   56   57 am   BACKBONE|DICT|INTERRES
   111   56   58 2    
   112   57  112 1    
   113   57  113 1    
   114   59   60 1    
   115   59  114 1    
   116   59  115 1    
   117   60   61 1    
   118   61  116 1    
   119   61  117 1    
@<TRIPOS>SUBSTRUCTURE
     1 UNK         1 GROUP             0       ****    0 ROOT    
