@<TRIPOS>MOLECULE
3R8
117   119    1
SMALL
USER_CHARGES


@<TRIPOS>ATOM
      1 CA         16.6061  -28.9867  -38.1073 C.3       0 UNK        -0.2013 
      2 C          16.5165  -28.1424  -39.3700 C.2       0 UNK         0.4866 
      3 O          16.3394  -26.9273  -39.2836 O.2       0 UNK        -0.5176 
      4 N          16.6421  -28.7776  -40.5420 N.am      1 UNK        -0.4884 
      5 CA         16.7026  -28.1127  -41.8494 C.3       1 UNK         0.0853 
      6 C6         16.3345  -29.0928  -42.9894 C.3       10 UNK        -0.0849 
      7 S7         15.7711  -28.2328  -44.4958 S.3       10 UNK        -0.2776 
      8 C8         15.6880  -29.6081  -45.6865 C.3       10 UNK         0.0316 
      9 C9         17.0728  -30.1110  -46.0672 C.ar      10 UNK        -0.0863 
     10 C10        17.5774  -31.2876  -45.5042 C.ar      10 UNK        -0.1009 
     11 C11        18.8524  -31.7465  -45.8461 C.ar      10 UNK        -0.0712 
     12 C12        19.6202  -31.0231  -46.7634 C.ar      10 UNK        -0.0894 
     13 C13        19.1296  -29.8426  -47.3293 C.ar      10 UNK        -0.0745 
     14 C14        17.8499  -29.3971  -46.9848 C.ar      10 UNK        -0.0972 
     15 C15        19.9930  -29.0467  -48.3007 C.3       10 UNK         0.0209 
     16 S16        20.4083  -27.3808  -47.6826 S.3       10 UNK        -0.2568 
     17 C17        21.2373  -27.7467  -46.0989 C.3       10 UNK        -0.0983 
     18 CA         21.2144  -26.5192  -45.1371 C.3       3 UNK         0.0876 
     19 N          20.6670  -26.8644  -43.8161 N.am      3 UNK        -0.4424 
     20 C          21.2594  -27.6233  -42.8859 C.2       2 UNK         0.4918 
     21 O          22.3570  -28.1575  -43.0373 O.2       2 UNK        -0.4875 
     22 CA         20.5528  -27.7577  -41.5312 C.3       2 UNK         0.0481 
     23 CB         20.7574  -26.4895  -40.6816 C.3       2 UNK        -0.1831 
     24 N          19.1376  -28.1423  -41.5824 N.am      2 UNK        -0.4498 
     25 C          18.0871  -27.4667  -42.0738 C.2       1 UNK         0.5027 
     26 O          18.1740  -26.3795  -42.6478 O.2       1 UNK        -0.4969 
     27 C          22.5790  -25.7869  -45.0337 C.2       3 UNK         0.5005 
     28 O          23.4252  -25.9095  -45.9222 O.2       3 UNK        -0.5279 
     29 N          22.7884  -25.0887  -43.9045 N.am      4 UNK        -0.4463 
     30 CA         24.0331  -24.5174  -43.3755 C.3       4 UNK         0.0283 
     31 CB         24.6052  -23.4285  -44.3043 C.3       4 UNK        -0.1875 
     32 C          25.1028  -25.5698  -43.0201 C.2       4 UNK         0.4949 
     33 O          25.6121  -25.5596  -41.8998 O.2       4 UNK        -0.5039 
     34 N          25.4393  -26.4404  -43.9776 N.am      5 UNK        -0.4663 
     35 CA         26.5736  -27.3629  -43.9190 C.3       5 UNK         0.0242 
     36 CB         26.9059  -27.8253  -45.3471 C.3       5 UNK        -0.1982 
     37 C          26.3837  -28.5819  -43.0008 C.2       5 UNK         0.5017 
     38 O          27.3810  -29.0799  -42.4769 O.2       5 UNK        -0.5012 
     39 N          25.1440  -29.0666  -42.8418 N.am      6 UNK        -0.4439 
     40 CA         24.8403  -30.3269  -42.1507 C.3       6 UNK         0.0297 
     41 CB         23.8566  -31.1456  -43.0028 C.3       6 UNK        -0.2006 
     42 C          24.3179  -30.1342  -40.7165 C.2       6 UNK         0.4892 
     43 O          23.9305  -31.1240  -40.0918 O.2       6 UNK        -0.5089 
     44 N          24.3087  -28.8880  -40.2162 N.am      7 UNK        -0.4243 
     45 CA         23.9763  -28.4307  -38.8534 C.3       7 UNK         0.0196 
     46 CB         24.9587  -29.0169  -37.8214 C.3       7 UNK        -0.2007 
     47 C          22.5193  -28.6515  -38.3992 C.2       7 UNK         0.5020 
     48 O          21.9555  -27.7716  -37.7494 O.2       7 UNK        -0.5147 
     49 N          21.9310  -29.7946  -38.7569 N.am      8 UNK        -0.4734 
     50 CA         20.5247  -30.1402  -38.5517 C.3       8 UNK         0.0238 
     51 CB         20.3460  -30.9047  -37.2301 C.3       8 UNK        -0.1912 
     52 C          19.9793  -30.9447  -39.7383 C.2       8 UNK         0.5038 
     53 O          18.8501  -30.6919  -40.1591 O.2       8 UNK        -0.5046 
     54 N          20.7938  -31.8543  -40.2920 N.am      9 UNK        -0.4200 
     55 CA         20.4478  -32.7272  -41.4278 C.3       9 UNK         0.0839 
     56 C          19.3771  -33.8180  -41.1086 C.2       9 UNK         0.5513 
     57 N          19.1175  -34.1335  -39.8450 N.am      9 UNK        -0.7519 
     58 O          18.7882  -34.4078  -42.0101 O.2       9 UNK        -0.4960 
     59 C59        20.1504  -31.9241  -42.7318 C.3       10 UNK        -0.0876 
     60 S60        20.8687  -32.7235  -44.2075 S.3       10 UNK        -0.2414 
     61 C61        19.3999  -33.0297  -45.2375 C.3       10 UNK         0.0169 
     62 H62        17.4361  -28.6478  -37.4880 H         1 UNK         0.0903 
     63 H63        15.6878  -28.8948  -37.5279 H         1 UNK         0.0903 
     64 H64        16.7612  -30.0419  -38.3323 H         1 UNK         0.0903 
     65 H65        16.8512  -29.7691  -40.5360 H         1 UNK         0.3096 
     66 H66        15.9668  -27.3047  -41.8414 H         1 UNK         0.1121 
     67 H67        17.1723  -29.7525  -43.2205 H         1 UNK         0.0849 
     68 H68        15.5175  -29.7437  -42.6732 H         1 UNK         0.0849 
     69 H69        15.0806  -30.4145  -45.2721 H         1 UNK         0.0865 
     70 H70        15.1677  -29.2679  -46.5831 H         1 UNK         0.0865 
     71 H71        16.9789  -31.8443  -44.7958 H         1 UNK         0.1346 
     72 H72        20.6091  -31.3762  -47.0224 H         1 UNK         0.1412 
     73 H73        17.4679  -28.4814  -47.4156 H         1 UNK         0.1426 
     74 H74        20.9203  -29.5777  -48.5215 H         1 UNK         0.0716 
     75 H75        19.4629  -28.9487  -49.2490 H         1 UNK         0.0716 
     76 H76        20.7213  -28.5873  -45.6349 H         1 UNK         0.0695 
     77 H77        22.2445  -28.1181  -46.2959 H         1 UNK         0.0695 
     78 H78        20.5246  -25.7712  -45.5312 H         1 UNK         0.0983 
     79 H79        19.7512  -26.4821  -43.5868 H         1 UNK         0.3095 
     80 H80        21.0563  -28.5759  -41.0215 H         1 UNK         0.0454 
     81 H81        20.2931  -25.6116  -41.1313 H         1 UNK         0.0851 
     82 H82        20.3347  -26.6112  -39.6843 H         1 UNK         0.0851 
     83 H83        21.8186  -26.2692  -40.5574 H         1 UNK         0.0851 
     84 H84        18.9267  -29.0335  -41.1424 H         1 UNK         0.2976 
     85 H85        22.0139  -25.0647  -43.2565 H         1 UNK         0.3116 
     86 H86        23.7550  -24.0293  -42.4399 H         1 UNK         0.0646 
     87 H87        25.4742  -22.9503  -43.8506 H         1 UNK         0.0847 
     88 H88        23.8704  -22.6472  -44.4980 H         1 UNK         0.0847 
     89 H89        24.9257  -23.8314  -45.2653 H         1 UNK         0.0847 
     90 H90        24.9248  -26.3836  -44.8538 H         1 UNK         0.3040 
     91 H91        27.4338  -26.8084  -43.5364 H         1 UNK         0.1015 
     92 H92        27.1531  -26.9805  -45.9904 H         1 UNK         0.0786 
     93 H93        26.0707  -28.3600  -45.8016 H         1 UNK         0.0786 
     94 H94        27.7659  -28.4968  -45.3524 H         1 UNK         0.0786 
     95 H95        24.3518  -28.5755  -43.2466 H         1 UNK         0.3172 
     96 H96        25.7482  -30.9263  -42.0591 H         1 UNK         0.0595 
     97 H97        24.2553  -31.3326  -43.9998 H         1 UNK         0.0839 
     98 H98        23.6553  -32.1179  -42.5515 H         1 UNK         0.0839 
     99 H99        22.9004  -30.6396  -43.1182 H         1 UNK         0.0839 
    100 H100       24.6139  -28.1578  -40.8455 H         1 UNK         0.2998 
    101 H101       24.1285  -27.3500  -38.8690 H         1 UNK         0.0822 
    102 H102       25.9914  -28.7827  -38.0800 H         1 UNK         0.0787 
    103 H103       24.7722  -28.6054  -36.8284 H         1 UNK         0.0787 
    104 H104       24.8701  -30.1011  -37.7438 H         1 UNK         0.0787 
    105 H105       22.5097  -30.4450  -39.2861 H         1 UNK         0.3055 
    106 H106       19.9368  -29.2205  -38.4998 H         1 UNK         0.1106 
    107 H107       19.3024  -31.1837  -37.0771 H         1 UNK         0.0828 
    108 H108       20.9390  -31.8195  -37.2072 H         1 UNK         0.0828 
    109 H109       20.6446  -30.2928  -36.3787 H         1 UNK         0.0828 
    110 H110       21.7071  -32.0138  -39.8905 H         1 UNK         0.2931 
    111 H111       21.3656  -33.2939  -41.5895 H         1 UNK         0.0412 
    112 H112       19.5992  -33.6733  -39.0901 H         1 UNK         0.3472 
    113 H113       18.4308  -34.8444  -39.6472 H         1 UNK         0.3472 
    114 H114       20.5882  -30.9268  -42.6778 H         1 UNK         0.0970 
    115 H115       19.0794  -31.7584  -42.8607 H         1 UNK         0.0970 
    116 H116       19.6740  -33.7128  -46.0425 H         1 UNK         0.0612 
    117 H117       18.6410  -33.5426  -44.6448 H         1 UNK         0.0612 
@<TRIPOS>BOND
     1    1    2 1    
     2    1   62 1    
     3    1   63 1    
     4    1   64 1    
     5    2    3 2    
     6    2    4 am   BACKBONE|DICT|INTERRES
     7    4    5 1    
     8    4   65 1    
     9    5    6 1    
    10    5   25 1    
    11    5   66 1    
    12    6    7 1    
    13    6   67 1    
    14    6   68 1    
    15    7    8 1    
    16    8    9 1    
    17    8   69 1    
    18    8   70 1    
    19    9   10 ar   
    20    9   14 ar   
    21   10   11 ar   
    22   10   71 1    
    23   11   12 ar   
    24   11   61 1    
    25   12   13 ar   
    26   12   72 1    
    27   13   14 ar   
    28   13   15 1    
    29   14   73 1    
    30   15   16 1    
    31   15   74 1    
    32   15   75 1    
    33   16   17 1    
    34   17   18 1    
    35   17   76 1    
    36   17   77 1    
    37   18   19 1    
    38   18   27 1    
    39   18   78 1    
    40   19   20 am   BACKBONE|DICT|INTERRES
    41   19   79 1    
    42   20   21 2    
    43   20   22 1    
    44   22   23 1    
    45   22   24 1    
    46   22   80 1    
    47   23   81 1    
    48   23   82 1    
    49   23   83 1    
    50   24   25 am   BACKBONE|DICT|INTERRES
    51   24   84 1    
    52   25   26 2    
    53   27   28 2    
    54   27   29 am   BACKBONE|DICT|INTERRES
    55   29   30 1    
    56   29   85 1    
    57   30   31 1    
    58   30   32 1    
    59   30   86 1    
    60   31   87 1    
    61   31   88 1    
    62   31   89 1    
    63   32   33 2    
    64   32   34 am   BACKBONE|DICT|INTERRES
    65   34   35 1    
    66   34   90 1    
    67   35   36 1    
    68   35   37 1    
    69   35   91 1    
    70   36   92 1    
    71   36   93 1    
    72   36   94 1    
    73   37   38 2    
    74   37   39 am   BACKBONE|DICT|INTERRES
    75   39   40 1    
    76   39   95 1    
    77   40   41 1    
    78   40   42 1    
    79   40   96 1    
    80   41   97 1    
    81   41   98 1    
    82   41   99 1    
    83   42   43 2    
    84   42   44 am   BACKBONE|DICT|INTERRES
    85   44   45 1    
    86   44  100 1    
    87   45   46 1    
    88   45   47 1    
    89   45  101 1    
    90   46  102 1    
    91   46  103 1    
    92   46  104 1    
    93   47   48 2    
    94   47   49 am   BACKBONE|DICT|INTERRES
    95   49   50 1    
    96   49  105 1    
    97   50   51 1    
    98   50   52 1    
    99   50  106 1    
   100   51  107 1    
   101   51  108 1    
   102   51  109 1    
   103   52   53 2    
   104   52   54 am   BACKBONE|DICT|INTERRES
   105   54   55 1    
   106   54  110 1    
   107   55   56 1    
   108   55   59 1    
   109   55  111 1    
   110   56   57 am   BACKBONE|DICT|INTERRES
   111   56   58 2    
   112   57  112 1    
   113   57  113 1    
   114   59   60 1    
   115   59  114 1    
   116   59  115 1    
   117   60   61 1    
   118   61  116 1    
   119   61  117 1    
@<TRIPOS>SUBSTRUCTURE
     1 UNK         1 GROUP             0       ****    0 ROOT    
