@<TRIPOS>MOLECULE
3R8
117   119    1
SMALL
USER_CHARGES


@<TRIPOS>ATOM
      1 CA         21.1642  -25.4026  -38.7745 C.3       0 UNK        -0.2013 
      2 C          20.0587  -25.4170  -39.8200 C.2       0 UNK         0.4866 
      3 O          19.3405  -24.4272  -39.9652 O.2       0 UNK        -0.5176 
      4 N          19.9129  -26.5338  -40.5425 N.am      1 UNK        -0.4884 
      5 CA         18.9544  -26.7168  -41.6369 C.3       1 UNK         0.0853 
      6 C6         18.7393  -28.2243  -41.9524 C.3       10 UNK        -0.0849 
      7 S7         16.9736  -28.6862  -41.9800 S.3       10 UNK        -0.2776 
      8 C8         16.6214  -28.9291  -43.7574 C.3       10 UNK         0.0316 
      9 C9         17.5155  -29.9468  -44.4638 C.ar      10 UNK        -0.0863 
     10 C10        18.0141  -31.0785  -43.8055 C.ar      10 UNK        -0.1009 
     11 C11        18.8326  -31.9904  -44.4775 C.ar      10 UNK        -0.0712 
     12 C12        19.1426  -31.7750  -45.8224 C.ar      10 UNK        -0.0894 
     13 C13        18.6486  -30.6551  -46.4960 C.ar      10 UNK        -0.0745 
     14 C14        17.8269  -29.7524  -45.8133 C.ar      10 UNK        -0.0972 
     15 C15        19.0100  -30.4342  -47.9607 C.3       10 UNK         0.0209 
     16 S16        19.6386  -28.7582  -48.3110 S.3       10 UNK        -0.2568 
     17 C17        21.0612  -28.6225  -47.1734 C.3       10 UNK        -0.0983 
     18 CA         21.2707  -27.1602  -46.7110 C.3       3 UNK         0.0876 
     19 N          20.1240  -26.6352  -45.9725 N.am      3 UNK        -0.4424 
     20 C          19.7692  -25.3449  -45.9555 C.2       2 UNK         0.4918 
     21 O          20.3433  -24.4708  -46.6066 O.2       2 UNK        -0.4875 
     22 CA         18.5835  -24.9484  -45.0540 C.3       2 UNK         0.0481 
     23 CB         17.2718  -25.0084  -45.8532 C.3       2 UNK        -0.1831 
     24 N          18.4332  -25.7332  -43.8213 N.am      2 UNK        -0.4498 
     25 C          19.3815  -25.9282  -42.8937 C.2       1 UNK         0.5027 
     26 O          20.5443  -25.5372  -43.0165 O.2       1 UNK        -0.4969 
     27 C          22.5351  -27.0084  -45.8461 C.2       3 UNK         0.5005 
     28 O          22.7547  -27.8112  -44.9364 O.2       3 UNK        -0.5279 
     29 N          23.3340  -25.9730  -46.1460 N.am      4 UNK        -0.4463 
     30 CA         24.6917  -25.7135  -45.6426 C.3       4 UNK         0.0283 
     31 CB         25.6700  -26.7575  -46.2235 C.3       4 UNK        -0.1875 
     32 C          24.8287  -25.5892  -44.1097 C.2       4 UNK         0.4949 
     33 O          25.9229  -25.8080  -43.5876 O.2       4 UNK        -0.5039 
     34 N          23.7340  -25.2395  -43.4164 N.am      5 UNK        -0.4663 
     35 CA         23.6168  -25.1385  -41.9546 C.3       5 UNK         0.0242 
     36 CB         24.4953  -23.9947  -41.4017 C.3       5 UNK        -0.1982 
     37 C          23.8481  -26.4819  -41.2310 C.2       5 UNK         0.5017 
     38 O          24.3440  -26.4836  -40.1025 O.2       5 UNK        -0.5012 
     39 N          23.4917  -27.5999  -41.8847 N.am      6 UNK        -0.4439 
     40 CA         23.6007  -28.9579  -41.3438 C.3       6 UNK         0.0297 
     41 CB         23.2036  -29.9698  -42.4307 C.3       6 UNK        -0.2006 
     42 C          22.7207  -29.1511  -40.0994 C.2       6 UNK         0.4892 
     43 O          21.5648  -28.7242  -40.1035 O.2       6 UNK        -0.5089 
     44 N          23.2556  -29.8195  -39.0708 N.am      7 UNK        -0.4243 
     45 CA         22.5751  -30.0920  -37.7988 C.3       7 UNK         0.0196 
     46 CB         23.6373  -30.3312  -36.7092 C.3       7 UNK        -0.2007 
     47 C          21.5727  -31.2579  -37.9188 C.2       7 UNK         0.5020 
     48 O          21.7229  -32.2736  -37.2396 O.2       7 UNK        -0.5147 
     49 N          20.5942  -31.0984  -38.8212 N.am      8 UNK        -0.4734 
     50 CA         19.5627  -32.0672  -39.2264 C.3       8 UNK         0.0238 
     51 CB         18.6350  -32.4209  -38.0446 C.3       8 UNK        -0.1912 
     52 C          20.1181  -33.3210  -39.9375 C.2       8 UNK         0.5038 
     53 O          19.3978  -34.3129  -40.0642 O.2       8 UNK        -0.5046 
     54 N          21.3650  -33.2355  -40.4210 N.am      9 UNK        -0.4200 
     55 CA         22.1095  -34.2736  -41.1526 C.3       9 UNK         0.0839 
     56 C          22.4322  -35.5341  -40.2913 C.2       9 UNK         0.5513 
     57 N          22.8963  -36.6185  -40.8994 N.am      9 UNK        -0.7519 
     58 O          22.3190  -35.5322  -39.0673 O.2       9 UNK        -0.4960 
     59 C59        21.4775  -34.6114  -42.5363 C.3       10 UNK        -0.0876 
     60 S60        21.1808  -33.1297  -43.5615 S.3       10 UNK        -0.2414 
     61 C61        19.3742  -33.2152  -43.7578 C.3       10 UNK         0.0169 
     62 H62        20.7487  -25.1867  -37.7907 H         1 UNK         0.0903 
     63 H63        21.6859  -26.3579  -38.7183 H         1 UNK         0.0903 
     64 H64        21.8966  -24.6319  -39.0129 H         1 UNK         0.0903 
     65 H65        20.5496  -27.3159  -40.3863 H         1 UNK         0.3096 
     66 H66        18.0130  -26.2800  -41.2951 H         1 UNK         0.1121 
     67 H67        19.1861  -28.8479  -41.1774 H         1 UNK         0.0849 
     68 H68        19.2390  -28.5357  -42.8720 H         1 UNK         0.0849 
     69 H69        15.5860  -29.2566  -43.8597 H         1 UNK         0.0865 
     70 H70        16.6826  -27.9630  -44.2583 H         1 UNK         0.0865 
     71 H71        17.7686  -31.2512  -42.7670 H         1 UNK         0.1346 
     72 H72        19.7779  -32.4813  -46.3396 H         1 UNK         0.1412 
     73 H73        17.4372  -28.8906  -46.3382 H         1 UNK         0.1426 
     74 H74        18.1241  -30.6119  -48.5714 H         1 UNK         0.0716 
     75 H75        19.7600  -31.1562  -48.2877 H         1 UNK         0.0716 
     76 H76        21.9454  -28.9902  -47.6973 H         1 UNK         0.0695 
     77 H77        20.9224  -29.2775  -46.3120 H         1 UNK         0.0695 
     78 H78        21.4095  -26.5655  -47.6173 H         1 UNK         0.0983 
     79 H79        19.6304  -27.2901  -45.3861 H         1 UNK         0.3095 
     80 H80        18.7462  -23.9126  -44.7497 H         1 UNK         0.0454 
     81 H81        17.0304  -26.0272  -46.1589 H         1 UNK         0.0851 
     82 H82        17.3395  -24.4057  -46.7602 H         1 UNK         0.0851 
     83 H83        16.4329  -24.6215  -45.2746 H         1 UNK         0.0851 
     84 H84        17.5062  -26.0842  -43.6305 H         1 UNK         0.2976 
     85 H85        23.0095  -25.3239  -46.8513 H         1 UNK         0.3116 
     86 H86        24.9775  -24.7394  -46.0421 H         1 UNK         0.0646 
     87 H87        25.5927  -26.8158  -47.3091 H         1 UNK         0.0847 
     88 H88        25.4809  -27.7528  -45.8193 H         1 UNK         0.0847 
     89 H89        26.7049  -26.5035  -45.9909 H         1 UNK         0.0847 
     90 H90        22.8677  -25.1222  -43.9267 H         1 UNK         0.3040 
     91 H91        22.5838  -24.8661  -41.7426 H         1 UNK         0.1015 
     92 H92        25.5587  -24.2192  -41.4871 H         1 UNK         0.0786 
     93 H93        24.2867  -23.8182  -40.3458 H         1 UNK         0.0786 
     94 H94        24.3055  -23.0591  -41.9275 H         1 UNK         0.0786 
     95 H95        23.1080  -27.5130  -42.8204 H         1 UNK         0.3172 
     96 H96        24.6448  -29.1260  -41.0728 H         1 UNK         0.0595 
     97 H97        22.1709  -29.8300  -42.7551 H         1 UNK         0.0839 
     98 H98        23.2955  -30.9952  -42.0703 H         1 UNK         0.0839 
     99 H99        23.8415  -29.8788  -43.3102 H         1 UNK         0.0839 
    100 H100       24.2022  -30.1623  -39.1540 H         1 UNK         0.2998 
    101 H101       22.0031  -29.2067  -37.5113 H         1 UNK         0.0822 
    102 H102       24.2956  -29.4689  -36.6013 H         1 UNK         0.0787 
    103 H103       23.1698  -30.5021  -35.7385 H         1 UNK         0.0787 
    104 H104       24.2566  -31.2013  -36.9312 H         1 UNK         0.0787 
    105 H105       20.6088  -30.2246  -39.3424 H         1 UNK         0.3055 
    106 H106       18.9541  -31.5571  -39.9752 H         1 UNK         0.1106 
    107 H107       19.1511  -33.0093  -37.2856 H         1 UNK         0.0828 
    108 H108       17.7793  -33.0077  -38.3806 H         1 UNK         0.0828 
    109 H109       18.2416  -31.5242  -37.5661 H         1 UNK         0.0828 
    110 H110       21.8744  -32.3868  -40.2327 H         1 UNK         0.2931 
    111 H111       23.0824  -33.8206  -41.3471 H         1 UNK         0.0412 
    112 H112       23.1240  -37.4280  -40.3428 H         1 UNK         0.3472 
    113 H113       23.0349  -36.6453  -41.8971 H         1 UNK         0.3472 
    114 H114       20.5483  -35.1684  -42.4036 H         1 UNK         0.0970 
    115 H115       22.1364  -35.2630  -43.1113 H         1 UNK         0.0970 
    116 H116       19.1144  -34.1119  -44.3222 H         1 UNK         0.0612 
    117 H117       18.9097  -33.3185  -42.7761 H         1 UNK         0.0612 
@<TRIPOS>BOND
     1    1    2 1    
     2    1   62 1    
     3    1   63 1    
     4    1   64 1    
     5    2    3 2    
     6    2    4 am   BACKBONE|DICT|INTERRES
     7    4    5 1    
     8    4   65 1    
     9    5    6 1    
    10    5   25 1    
    11    5   66 1    
    12    6    7 1    
    13    6   67 1    
    14    6   68 1    
    15    7    8 1    
    16    8    9 1    
    17    8   69 1    
    18    8   70 1    
    19    9   10 ar   
    20    9   14 ar   
    21   10   11 ar   
    22   10   71 1    
    23   11   12 ar   
    24   11   61 1    
    25   12   13 ar   
    26   12   72 1    
    27   13   14 ar   
    28   13   15 1    
    29   14   73 1    
    30   15   16 1    
    31   15   74 1    
    32   15   75 1    
    33   16   17 1    
    34   17   18 1    
    35   17   76 1    
    36   17   77 1    
    37   18   19 1    
    38   18   27 1    
    39   18   78 1    
    40   19   20 am   BACKBONE|DICT|INTERRES
    41   19   79 1    
    42   20   21 2    
    43   20   22 1    
    44   22   23 1    
    45   22   24 1    
    46   22   80 1    
    47   23   81 1    
    48   23   82 1    
    49   23   83 1    
    50   24   25 am   BACKBONE|DICT|INTERRES
    51   24   84 1    
    52   25   26 2    
    53   27   28 2    
    54   27   29 am   BACKBONE|DICT|INTERRES
    55   29   30 1    
    56   29   85 1    
    57   30   31 1    
    58   30   32 1    
    59   30   86 1    
    60   31   87 1    
    61   31   88 1    
    62   31   89 1    
    63   32   33 2    
    64   32   34 am   BACKBONE|DICT|INTERRES
    65   34   35 1    
    66   34   90 1    
    67   35   36 1    
    68   35   37 1    
    69   35   91 1    
    70   36   92 1    
    71   36   93 1    
    72   36   94 1    
    73   37   38 2    
    74   37   39 am   BACKBONE|DICT|INTERRES
    75   39   40 1    
    76   39   95 1    
    77   40   41 1    
    78   40   42 1    
    79   40   96 1    
    80   41   97 1    
    81   41   98 1    
    82   41   99 1    
    83   42   43 2    
    84   42   44 am   BACKBONE|DICT|INTERRES
    85   44   45 1    
    86   44  100 1    
    87   45   46 1    
    88   45   47 1    
    89   45  101 1    
    90   46  102 1    
    91   46  103 1    
    92   46  104 1    
    93   47   48 2    
    94   47   49 am   BACKBONE|DICT|INTERRES
    95   49   50 1    
    96   49  105 1    
    97   50   51 1    
    98   50   52 1    
    99   50  106 1    
   100   51  107 1    
   101   51  108 1    
   102   51  109 1    
   103   52   53 2    
   104   52   54 am   BACKBONE|DICT|INTERRES
   105   54   55 1    
   106   54  110 1    
   107   55   56 1    
   108   55   59 1    
   109   55  111 1    
   110   56   57 am   BACKBONE|DICT|INTERRES
   111   56   58 2    
   112   57  112 1    
   113   57  113 1    
   114   59   60 1    
   115   59  114 1    
   116   59  115 1    
   117   60   61 1    
   118   61  116 1    
   119   61  117 1    
@<TRIPOS>SUBSTRUCTURE
     1 UNK         1 GROUP             0       ****    0 ROOT    
