@<TRIPOS>MOLECULE
3R8
117   119    1
SMALL
USER_CHARGES


@<TRIPOS>ATOM
      1 CA         17.4484  -25.1995  -49.3135 C.3       0 UNK        -0.2013 
      2 C          18.3503  -25.8083  -48.2500 C.2       0 UNK         0.4866 
      3 O          19.5641  -25.6029  -48.2853 O.2       0 UNK        -0.5176 
      4 N          17.7685  -26.5631  -47.3107 N.am      1 UNK        -0.4884 
      5 CA         18.4631  -27.1615  -46.1670 C.3       1 UNK         0.0853 
      6 C6         17.6631  -28.3490  -45.5695 C.3       10 UNK        -0.0849 
      7 S7         15.9409  -27.9528  -45.1007 S.3       10 UNK        -0.2776 
      8 C8         15.2122  -29.6198  -44.9584 C.3       10 UNK         0.0316 
      9 C9         15.9561  -30.4887  -43.9523 C.ar      10 UNK        -0.0863 
     10 C10        16.6087  -31.6535  -44.3699 C.ar      10 UNK        -0.1009 
     11 C11        17.3393  -32.4292  -43.4600 C.ar      10 UNK        -0.0712 
     12 C12        17.3738  -32.0445  -42.1153 C.ar      10 UNK        -0.0894 
     13 C13        16.7315  -30.8778  -41.6873 C.ar      10 UNK        -0.0745 
     14 C14        16.0126  -30.1126  -42.6075 C.ar      10 UNK        -0.0972 
     15 C15        16.8574  -30.4145  -40.2412 C.3       10 UNK         0.0209 
     16 S16        18.0140  -29.0106  -40.0702 S.3       10 UNK        -0.2568 
     17 C17        19.5327  -29.7185  -40.7932 C.3       10 UNK        -0.0983 
     18 CA         20.6886  -28.7211  -41.0310 C.3       3 UNK         0.0876 
     19 N          20.2393  -27.5188  -41.7387 N.am      3 UNK        -0.4424 
     20 C          21.0136  -26.5243  -42.1876 C.2       2 UNK         0.4918 
     21 O          22.1976  -26.3812  -41.8810 O.2       2 UNK        -0.4875 
     22 CA         20.3552  -25.5835  -43.2022 C.3       2 UNK         0.0481 
     23 CB         21.3148  -24.4999  -43.7318 C.3       2 UNK        -0.1831 
     24 N          19.8550  -26.4028  -44.3047 N.am      2 UNK        -0.4498 
     25 C          18.8236  -26.1025  -45.1001 C.2       1 UNK         0.5027 
     26 O          18.1660  -25.0619  -45.0045 O.2       1 UNK        -0.4969 
     27 C          21.5204  -28.4915  -39.7575 C.2       3 UNK         0.5005 
     28 O          22.4039  -29.3054  -39.4797 O.2       3 UNK        -0.5279 
     29 N          21.2582  -27.3935  -39.0367 N.am      4 UNK        -0.4463 
     30 CA         22.0119  -26.9844  -37.8488 C.3       4 UNK         0.0283 
     31 CB         21.2469  -25.8670  -37.1217 C.3       4 UNK        -0.1875 
     32 C          23.4514  -26.5335  -38.1606 C.2       4 UNK         0.4949 
     33 O          24.3267  -26.6986  -37.3109 O.2       4 UNK        -0.5039 
     34 N          23.6706  -25.9752  -39.3585 N.am      5 UNK        -0.4663 
     35 CA         24.9780  -25.5239  -39.8391 C.3       5 UNK         0.0242 
     36 CB         24.8043  -24.2078  -40.6157 C.3       5 UNK        -0.1982 
     37 C          25.6435  -26.5856  -40.7259 C.2       5 UNK         0.5017 
     38 O          26.8491  -26.8048  -40.6082 O.2       5 UNK        -0.5012 
     39 N          24.8478  -27.2229  -41.5956 N.am      6 UNK        -0.4439 
     40 CA         25.2866  -28.2319  -42.5619 C.3       6 UNK         0.0297 
     41 CB         24.1965  -28.3965  -43.6330 C.3       6 UNK        -0.2006 
     42 C          25.6249  -29.5988  -41.9406 C.2       6 UNK         0.4892 
     43 O          26.3030  -30.3869  -42.6001 O.2       6 UNK        -0.5089 
     44 N          25.1436  -29.8540  -40.7129 N.am      7 UNK        -0.4243 
     45 CA         25.1934  -31.1246  -39.9802 C.3       7 UNK         0.0196 
     46 CB         26.6452  -31.5708  -39.6991 C.3       7 UNK        -0.2007 
     47 C          24.3448  -32.1906  -40.6963 C.2       7 UNK         0.5020 
     48 O          24.8841  -33.1725  -41.2089 O.2       7 UNK        -0.5147 
     49 N          23.0280  -31.9360  -40.7076 N.am      8 UNK        -0.4734 
     50 CA         21.9459  -32.6447  -41.4073 C.3       8 UNK         0.0238 
     51 CB         22.0085  -34.1769  -41.2415 C.3       8 UNK        -0.1912 
     52 C          21.8556  -32.2340  -42.8873 C.2       8 UNK         0.5038 
     53 O          22.8511  -32.2970  -43.6091 O.2       8 UNK        -0.5046 
     54 N          20.6446  -31.8377  -43.3023 N.am      9 UNK        -0.4200 
     55 CA         20.2706  -31.3648  -44.6426 C.3       9 UNK         0.0839 
     56 C          21.1031  -30.1251  -45.0811 C.2       9 UNK         0.5513 
     57 N          21.9697  -30.2249  -46.0797 N.am      9 UNK        -0.7519 
     58 O          20.9142  -29.0393  -44.5389 O.2       9 UNK        -0.4960 
     59 C59        20.1786  -32.5051  -45.6986 C.3       10 UNK        -0.0876 
     60 S60        18.7614  -33.6716  -45.6017 S.3       10 UNK        -0.2414 
     61 C61        18.1023  -33.6834  -43.8919 C.3       10 UNK         0.0169 
     62 H62        17.7539  -25.5373  -50.3034 H         1 UNK         0.0903 
     63 H63        16.4038  -25.4749  -49.1688 H         1 UNK         0.0903 
     64 H64        17.5191  -24.1124  -49.2871 H         1 UNK         0.0903 
     65 H65        16.7635  -26.6690  -47.3002 H         1 UNK         0.3096 
     66 H66        19.4093  -27.5640  -46.5379 H         1 UNK         0.1121 
     67 H67        18.1715  -28.7538  -44.6927 H         1 UNK         0.0849 
     68 H68        17.6405  -29.1631  -46.2959 H         1 UNK         0.0849 
     69 H69        14.1703  -29.5272  -44.6492 H         1 UNK         0.0865 
     70 H70        15.1984  -30.0874  -45.9442 H         1 UNK         0.0865 
     71 H71        16.5651  -31.9429  -45.4105 H         1 UNK         0.1346 
     72 H72        17.9256  -32.6402  -41.4007 H         1 UNK         0.1412 
     73 H73        15.5256  -29.2026  -42.2837 H         1 UNK         0.1426 
     74 H74        15.8772  -30.1147  -39.8679 H         1 UNK         0.0716 
     75 H75        17.1916  -31.2325  -39.6012 H         1 UNK         0.0716 
     76 H76        19.8462  -30.5602  -40.1749 H         1 UNK         0.0695 
     77 H77        19.2662  -30.1287  -41.7641 H         1 UNK         0.0695 
     78 H78        21.3800  -29.2075  -41.7223 H         1 UNK         0.0983 
     79 H79        19.2704  -27.5287  -42.0234 H         1 UNK         0.3095 
     80 H80        19.5181  -25.0977  -42.6967 H         1 UNK         0.0454 
     81 H81        20.8119  -23.8285  -44.4277 H         1 UNK         0.0851 
     82 H82        21.7031  -23.8891  -42.9160 H         1 UNK         0.0851 
     83 H83        22.1696  -24.9385  -44.2479 H         1 UNK         0.0851 
     84 H84        20.3190  -27.3049  -44.4181 H         1 UNK         0.2976 
     85 H85        20.5064  -26.7912  -39.3406 H         1 UNK         0.3116 
     86 H86        22.0755  -27.8447  -37.1788 H         1 UNK         0.0646 
     87 H87        21.1349  -24.9799  -37.7464 H         1 UNK         0.0847 
     88 H88        20.2519  -26.1962  -36.8217 H         1 UNK         0.0847 
     89 H89        21.7717  -25.5619  -36.2152 H         1 UNK         0.0847 
     90 H90        22.9036  -25.9241  -40.0195 H         1 UNK         0.3040 
     91 H91        25.6429  -25.3312  -38.9937 H         1 UNK         0.1015 
     92 H92        24.1467  -24.3268  -41.4780 H         1 UNK         0.0786 
     93 H93        25.7640  -23.8430  -40.9847 H         1 UNK         0.0786 
     94 H94        24.3843  -23.4276  -39.9808 H         1 UNK         0.0786 
     95 H95        23.8708  -26.9392  -41.6521 H         1 UNK         0.3172 
     96 H96        26.1903  -27.8613  -43.0503 H         1 UNK         0.0595 
     97 H97        24.5064  -29.1032  -44.4042 H         1 UNK         0.0839 
     98 H98        23.9731  -27.4515  -44.1284 H         1 UNK         0.0839 
     99 H99        23.2699  -28.7760  -43.2032 H         1 UNK         0.0839 
    100 H100       24.5650  -29.1412  -40.2870 H         1 UNK         0.2998 
    101 H101       24.7217  -30.9406  -39.0133 H         1 UNK         0.0822 
    102 H102       26.6589  -32.4552  -39.0612 H         1 UNK         0.0787 
    103 H103       27.1844  -31.8258  -40.6115 H         1 UNK         0.0787 
    104 H104       27.2063  -30.7902  -39.1853 H         1 UNK         0.0787 
    105 H105       22.7448  -31.0759  -40.2436 H         1 UNK         0.3055 
    106 H106       21.0322  -32.3262  -40.9081 H         1 UNK         0.1106 
    107 H107       22.1214  -34.4618  -40.1955 H         1 UNK         0.0828 
    108 H108       21.0930  -34.6424  -41.6082 H         1 UNK         0.0828 
    109 H109       22.8332  -34.6171  -41.8027 H         1 UNK         0.0828 
    110 H110       19.8864  -31.8290  -42.6390 H         1 UNK         0.2931 
    111 H111       19.2680  -30.9564  -44.5397 H         1 UNK         0.0412 
    112 H112       22.4845  -29.4066  -46.3621 H         1 UNK         0.3472 
    113 H113       22.1604  -31.1113  -46.5185 H         1 UNK         0.3472 
    114 H114       20.1121  -32.0747  -46.6994 H         1 UNK         0.0970 
    115 H115       21.0990  -33.0911  -45.6959 H         1 UNK         0.0970 
    116 H116       18.9185  -33.9047  -43.2038 H         1 UNK         0.0612 
    117 H117       17.4139  -34.5254  -43.8125 H         1 UNK         0.0612 
@<TRIPOS>BOND
     1    1    2 1    
     2    1   62 1    
     3    1   63 1    
     4    1   64 1    
     5    2    3 2    
     6    2    4 am   BACKBONE|DICT|INTERRES
     7    4    5 1    
     8    4   65 1    
     9    5    6 1    
    10    5   25 1    
    11    5   66 1    
    12    6    7 1    
    13    6   67 1    
    14    6   68 1    
    15    7    8 1    
    16    8    9 1    
    17    8   69 1    
    18    8   70 1    
    19    9   10 ar   
    20    9   14 ar   
    21   10   11 ar   
    22   10   71 1    
    23   11   12 ar   
    24   11   61 1    
    25   12   13 ar   
    26   12   72 1    
    27   13   14 ar   
    28   13   15 1    
    29   14   73 1    
    30   15   16 1    
    31   15   74 1    
    32   15   75 1    
    33   16   17 1    
    34   17   18 1    
    35   17   76 1    
    36   17   77 1    
    37   18   19 1    
    38   18   27 1    
    39   18   78 1    
    40   19   20 am   BACKBONE|DICT|INTERRES
    41   19   79 1    
    42   20   21 2    
    43   20   22 1    
    44   22   23 1    
    45   22   24 1    
    46   22   80 1    
    47   23   81 1    
    48   23   82 1    
    49   23   83 1    
    50   24   25 am   BACKBONE|DICT|INTERRES
    51   24   84 1    
    52   25   26 2    
    53   27   28 2    
    54   27   29 am   BACKBONE|DICT|INTERRES
    55   29   30 1    
    56   29   85 1    
    57   30   31 1    
    58   30   32 1    
    59   30   86 1    
    60   31   87 1    
    61   31   88 1    
    62   31   89 1    
    63   32   33 2    
    64   32   34 am   BACKBONE|DICT|INTERRES
    65   34   35 1    
    66   34   90 1    
    67   35   36 1    
    68   35   37 1    
    69   35   91 1    
    70   36   92 1    
    71   36   93 1    
    72   36   94 1    
    73   37   38 2    
    74   37   39 am   BACKBONE|DICT|INTERRES
    75   39   40 1    
    76   39   95 1    
    77   40   41 1    
    78   40   42 1    
    79   40   96 1    
    80   41   97 1    
    81   41   98 1    
    82   41   99 1    
    83   42   43 2    
    84   42   44 am   BACKBONE|DICT|INTERRES
    85   44   45 1    
    86   44  100 1    
    87   45   46 1    
    88   45   47 1    
    89   45  101 1    
    90   46  102 1    
    91   46  103 1    
    92   46  104 1    
    93   47   48 2    
    94   47   49 am   BACKBONE|DICT|INTERRES
    95   49   50 1    
    96   49  105 1    
    97   50   51 1    
    98   50   52 1    
    99   50  106 1    
   100   51  107 1    
   101   51  108 1    
   102   51  109 1    
   103   52   53 2    
   104   52   54 am   BACKBONE|DICT|INTERRES
   105   54   55 1    
   106   54  110 1    
   107   55   56 1    
   108   55   59 1    
   109   55  111 1    
   110   56   57 am   BACKBONE|DICT|INTERRES
   111   56   58 2    
   112   57  112 1    
   113   57  113 1    
   114   59   60 1    
   115   59  114 1    
   116   59  115 1    
   117   60   61 1    
   118   61  116 1    
   119   61  117 1    
@<TRIPOS>SUBSTRUCTURE
     1 UNK         1 GROUP             0       ****    0 ROOT    
