@<TRIPOS>MOLECULE
3R8
117   119    1
SMALL
USER_CHARGES


@<TRIPOS>ATOM
      1 CA         15.8031  -23.6395  -44.7060 C.3       0 UNK        -0.2013 
      2 C          15.8669  -24.8988  -43.8547 C.2       0 UNK         0.4866 
      3 O          15.4799  -24.8623  -42.6867 O.2       0 UNK        -0.5176 
      4 N          16.3543  -26.0044  -44.4360 N.am      1 UNK        -0.4884 
      5 CA         16.5014  -27.3310  -43.8134 C.3       1 UNK         0.0853 
      6 C6         15.1483  -28.0288  -43.5088 C.3       10 UNK        -0.0849 
      7 S7         14.2417  -28.3667  -45.0591 S.3       10 UNK        -0.2776 
      8 C8         14.4558  -30.1682  -45.2680 C.3       10 UNK         0.0316 
      9 C9         15.9074  -30.6241  -45.1555 C.ar      10 UNK        -0.0863 
     10 C10        16.2866  -31.4829  -44.1197 C.ar      10 UNK        -0.1009 
     11 C11        17.6096  -31.9177  -44.0001 C.ar      10 UNK        -0.0712 
     12 C12        18.5609  -31.4796  -44.9277 C.ar      10 UNK        -0.0894 
     13 C13        18.1941  -30.6359  -45.9804 C.ar      10 UNK        -0.0745 
     14 C14        16.8637  -30.2156  -46.0920 C.ar      10 UNK        -0.0972 
     15 C15        19.2181  -30.2220  -47.0297 C.3       10 UNK         0.0209 
     16 S16        19.9378  -28.5852  -46.6884 S.3       10 UNK        -0.2568 
     17 C17        21.5232  -29.0067  -45.8811 C.3       10 UNK        -0.0983 
     18 CA         21.9777  -27.8747  -44.9295 C.3       3 UNK         0.0876 
     19 N          21.0467  -27.7154  -43.8165 N.am      3 UNK        -0.4424 
     20 C          21.0166  -26.6829  -42.9678 C.2       2 UNK         0.4918 
     21 O          21.8168  -25.7456  -42.9913 O.2       2 UNK        -0.4875 
     22 CA         19.8185  -26.6671  -42.0136 C.3       2 UNK         0.0481 
     23 CB         19.8121  -25.4703  -41.0459 C.3       2 UNK        -0.1831 
     24 N          18.6241  -26.6512  -42.8505 N.am      2 UNK        -0.4498 
     25 C          17.4855  -27.3136  -42.6245 C.2       1 UNK         0.5027 
     26 O          17.2212  -27.8943  -41.5710 O.2       1 UNK        -0.4969 
     27 C          23.4100  -28.0759  -44.4003 C.2       3 UNK         0.5005 
     28 O          23.6118  -28.8329  -43.4511 O.2       3 UNK        -0.5279 
     29 N          24.3684  -27.3330  -44.9766 N.am      4 UNK        -0.4463 
     30 CA         25.7751  -27.2235  -44.5531 C.3       4 UNK         0.0283 
     31 CB         26.5088  -28.5711  -44.7292 C.3       4 UNK        -0.1875 
     32 C          25.9737  -26.6408  -43.1332 C.2       4 UNK         0.4949 
     33 O          27.0827  -26.7180  -42.6047 O.2       4 UNK        -0.5039 
     34 N          24.9087  -26.0715  -42.5441 N.am      5 UNK        -0.4663 
     35 CA         24.8004  -25.4856  -41.2010 C.3       5 UNK         0.0242 
     36 CB         25.7501  -24.2782  -41.0485 C.3       5 UNK        -0.1982 
     37 C          24.9474  -26.4801  -40.0295 C.2       5 UNK         0.5017 
     38 O          24.8730  -26.0435  -38.8797 O.2       5 UNK        -0.5012 
     39 N          25.1327  -27.7768  -40.3072 N.am      6 UNK        -0.4439 
     40 CA         25.3304  -28.8433  -39.3283 C.3       6 UNK         0.0297 
     41 CB         26.6971  -28.6893  -38.6277 C.3       6 UNK        -0.2006 
     42 C          25.2526  -30.2009  -40.0350 C.2       6 UNK         0.4892 
     43 O          25.4485  -30.2716  -41.2506 O.2       6 UNK        -0.5089 
     44 N          25.0117  -31.2540  -39.2414 N.am      7 UNK        -0.4243 
     45 CA         24.9129  -32.6752  -39.6026 C.3       7 UNK         0.0196 
     46 CB         26.2090  -33.2013  -40.2528 C.3       7 UNK        -0.2007 
     47 C          23.6743  -33.0106  -40.4477 C.2       7 UNK         0.5020 
     48 O          22.8476  -33.8135  -40.0125 O.2       7 UNK        -0.5147 
     49 N          23.5381  -32.3806  -41.6194 N.am      8 UNK        -0.4734 
     50 CA         22.3781  -32.5013  -42.5030 C.3       8 UNK         0.0238 
     51 CB         22.8180  -32.2605  -43.9580 C.3       8 UNK        -0.1912 
     52 C          21.2612  -31.5521  -42.0343 C.2       8 UNK         0.5038 
     53 O          20.9462  -30.5749  -42.7145 O.2       8 UNK        -0.5046 
     54 N          20.6893  -31.8754  -40.8673 N.am      9 UNK        -0.4200 
     55 CA         19.6928  -31.0810  -40.1340 C.3       9 UNK         0.0839 
     56 C          20.2991  -29.7733  -39.5359 C.2       9 UNK         0.5513 
     57 N          19.4778  -28.8454  -39.0635 N.am      9 UNK        -0.7519 
     58 O          21.5133  -29.6125  -39.4291 O.2       9 UNK        -0.4960 
     59 C59        18.3694  -30.8772  -40.9334 C.3       10 UNK        -0.0876 
     60 S60        17.4747  -32.4397  -41.2334 S.3       10 UNK        -0.2414 
     61 C61        18.0028  -32.9145  -42.9147 C.3       10 UNK         0.0169 
     62 H62        16.4015  -22.8497  -44.2527 H         1 UNK         0.0903 
     63 H63        16.1747  -23.8088  -45.7165 H         1 UNK         0.0903 
     64 H64        14.7741  -23.2883  -44.7785 H         1 UNK         0.0903 
     65 H65        16.6365  -25.9572  -45.4057 H         1 UNK         0.3096 
     66 H66        17.0121  -27.9443  -44.5564 H         1 UNK         0.1121 
     67 H67        14.5286  -27.4090  -42.8593 H         1 UNK         0.0849 
     68 H68        15.2978  -28.9672  -42.9720 H         1 UNK         0.0849 
     69 H69        13.8330  -30.6786  -44.5315 H         1 UNK         0.0865 
     70 H70        14.0664  -30.4586  -46.2448 H         1 UNK         0.0865 
     71 H71        15.5493  -31.8253  -43.4062 H         1 UNK         0.1346 
     72 H72        19.5848  -31.8159  -44.8467 H         1 UNK         0.1412 
     73 H73        16.5715  -29.5657  -46.9061 H         1 UNK         0.1426 
     74 H74        18.7362  -30.1885  -48.0080 H         1 UNK         0.0716 
     75 H75        20.0092  -30.9689  -47.1139 H         1 UNK         0.0716 
     76 H76        22.2649  -29.1788  -46.6632 H         1 UNK         0.0695 
     77 H77        21.4194  -29.9463  -45.3366 H         1 UNK         0.0695 
     78 H78        21.9608  -26.9385  -45.4924 H         1 UNK         0.0983 
     79 H79        20.4244  -28.4971  -43.6599 H         1 UNK         0.3095 
     80 H80        19.8559  -27.5922  -41.4396 H         1 UNK         0.0454 
     81 H81        19.7742  -24.5200  -41.5793 H         1 UNK         0.0851 
     82 H82        20.7107  -25.4656  -40.4279 H         1 UNK         0.0851 
     83 H83        18.9547  -25.5123  -40.3743 H         1 UNK         0.0851 
     84 H84        18.7338  -26.1953  -43.7464 H         1 UNK         0.2976 
     85 H85        24.1050  -26.7237  -45.7402 H         1 UNK         0.3116 
     86 H86        26.2375  -26.5076  -45.2346 H         1 UNK         0.0646 
     87 H87        26.1633  -29.3180  -44.0126 H         1 UNK         0.0847 
     88 H88        26.3667  -28.9754  -45.7313 H         1 UNK         0.0847 
     89 H89        27.5828  -28.4548  -44.5784 H         1 UNK         0.0847 
     90 H90        24.0347  -26.0852  -43.0568 H         1 UNK         0.3040 
     91 H91        23.7796  -25.1062  -41.1303 H         1 UNK         0.1015 
     92 H92        25.5605  -23.7463  -40.1151 H         1 UNK         0.0786 
     93 H93        25.6155  -23.5619  -41.8590 H         1 UNK         0.0786 
     94 H94        26.7969  -24.5827  -41.0382 H         1 UNK         0.0786 
     95 H95        25.1416  -28.0890  -41.2728 H         1 UNK         0.3172 
     96 H96        24.5265  -28.7907  -38.5910 H         1 UNK         0.0595 
     97 H97        27.5157  -28.6849  -39.3485 H         1 UNK         0.0839 
     98 H98        26.8809  -29.5085  -37.9314 H         1 UNK         0.0839 
     99 H99        26.7559  -27.7665  -38.0512 H         1 UNK         0.0839 
    100 H100       24.8459  -31.0606  -38.2630 H         1 UNK         0.2998 
    101 H101       24.7940  -33.2067  -38.6566 H         1 UNK         0.0822 
    102 H102       26.1473  -34.2770  -40.4227 H         1 UNK         0.0787 
    103 H103       26.4076  -32.7347  -41.2181 H         1 UNK         0.0787 
    104 H104       27.0727  -33.0236  -39.6121 H         1 UNK         0.0787 
    105 H105       24.2152  -31.6537  -41.8406 H         1 UNK         0.3055 
    106 H106       21.9838  -33.5190  -42.4491 H         1 UNK         0.1106 
    107 H107       23.5538  -32.9996  -44.2747 H         1 UNK         0.0828 
    108 H108       21.9715  -32.3342  -44.6408 H         1 UNK         0.0828 
    109 H109       23.2613  -31.2750  -44.0901 H         1 UNK         0.0828 
    110 H110       21.0720  -32.6684  -40.3670 H         1 UNK         0.2931 
    111 H111       19.4513  -31.6835  -39.2577 H         1 UNK         0.0412 
    112 H112       19.8709  -28.0184  -38.6437 H         1 UNK         0.3472 
    113 H113       18.4777  -28.9395  -39.1385 H         1 UNK         0.3472 
    114 H114       17.6754  -30.2502  -40.3737 H         1 UNK         0.0970 
    115 H115       18.5425  -30.3506  -41.8722 H         1 UNK         0.0970 
    116 H116       17.5423  -33.8738  -43.1542 H         1 UNK         0.0612 
    117 H117       19.0769  -33.0934  -42.9175 H         1 UNK         0.0612 
@<TRIPOS>BOND
     1    1    2 1    
     2    1   62 1    
     3    1   63 1    
     4    1   64 1    
     5    2    3 2    
     6    2    4 am   BACKBONE|DICT|INTERRES
     7    4    5 1    
     8    4   65 1    
     9    5    6 1    
    10    5   25 1    
    11    5   66 1    
    12    6    7 1    
    13    6   67 1    
    14    6   68 1    
    15    7    8 1    
    16    8    9 1    
    17    8   69 1    
    18    8   70 1    
    19    9   10 ar   
    20    9   14 ar   
    21   10   11 ar   
    22   10   71 1    
    23   11   12 ar   
    24   11   61 1    
    25   12   13 ar   
    26   12   72 1    
    27   13   14 ar   
    28   13   15 1    
    29   14   73 1    
    30   15   16 1    
    31   15   74 1    
    32   15   75 1    
    33   16   17 1    
    34   17   18 1    
    35   17   76 1    
    36   17   77 1    
    37   18   19 1    
    38   18   27 1    
    39   18   78 1    
    40   19   20 am   BACKBONE|DICT|INTERRES
    41   19   79 1    
    42   20   21 2    
    43   20   22 1    
    44   22   23 1    
    45   22   24 1    
    46   22   80 1    
    47   23   81 1    
    48   23   82 1    
    49   23   83 1    
    50   24   25 am   BACKBONE|DICT|INTERRES
    51   24   84 1    
    52   25   26 2    
    53   27   28 2    
    54   27   29 am   BACKBONE|DICT|INTERRES
    55   29   30 1    
    56   29   85 1    
    57   30   31 1    
    58   30   32 1    
    59   30   86 1    
    60   31   87 1    
    61   31   88 1    
    62   31   89 1    
    63   32   33 2    
    64   32   34 am   BACKBONE|DICT|INTERRES
    65   34   35 1    
    66   34   90 1    
    67   35   36 1    
    68   35   37 1    
    69   35   91 1    
    70   36   92 1    
    71   36   93 1    
    72   36   94 1    
    73   37   38 2    
    74   37   39 am   BACKBONE|DICT|INTERRES
    75   39   40 1    
    76   39   95 1    
    77   40   41 1    
    78   40   42 1    
    79   40   96 1    
    80   41   97 1    
    81   41   98 1    
    82   41   99 1    
    83   42   43 2    
    84   42   44 am   BACKBONE|DICT|INTERRES
    85   44   45 1    
    86   44  100 1    
    87   45   46 1    
    88   45   47 1    
    89   45  101 1    
    90   46  102 1    
    91   46  103 1    
    92   46  104 1    
    93   47   48 2    
    94   47   49 am   BACKBONE|DICT|INTERRES
    95   49   50 1    
    96   49  105 1    
    97   50   51 1    
    98   50   52 1    
    99   50  106 1    
   100   51  107 1    
   101   51  108 1    
   102   51  109 1    
   103   52   53 2    
   104   52   54 am   BACKBONE|DICT|INTERRES
   105   54   55 1    
   106   54  110 1    
   107   55   56 1    
   108   55   59 1    
   109   55  111 1    
   110   56   57 am   BACKBONE|DICT|INTERRES
   111   56   58 2    
   112   57  112 1    
   113   57  113 1    
   114   59   60 1    
   115   59  114 1    
   116   59  115 1    
   117   60   61 1    
   118   61  116 1    
   119   61  117 1    
@<TRIPOS>SUBSTRUCTURE
     1 UNK         1 GROUP             0       ****    0 ROOT    
