@<TRIPOS>MOLECULE
3R8
117   119    1
SMALL
USER_CHARGES


@<TRIPOS>ATOM
      1 CA         17.5375  -28.5983  -48.6030 C.3       0 UNK        -0.2013 
      2 C          18.4153  -27.8842  -47.5876 C.2       0 UNK         0.4866 
      3 O          18.0156  -27.7420  -46.4344 O.2       0 UNK        -0.5176 
      4 N          19.5935  -27.4072  -48.0166 N.am      1 UNK        -0.4884 
      5 CA         20.6668  -26.7761  -47.2227 C.3       1 UNK         0.0853 
      6 C6         21.4890  -27.8217  -46.3998 C.3       10 UNK        -0.0849 
      7 S7         20.8992  -28.1925  -44.7090 S.3       10 UNK        -0.2776 
      8 C8         20.1397  -29.8428  -44.8553 C.3       10 UNK         0.0316 
      9 C9         19.1705  -30.0394  -43.7012 C.ar      10 UNK        -0.0863 
     10 C10        19.6563  -30.2650  -42.4108 C.ar      10 UNK        -0.1009 
     11 C11        18.7906  -30.2802  -41.3084 C.ar      10 UNK        -0.0712 
     12 C12        17.4293  -30.0363  -41.5194 C.ar      10 UNK        -0.0894 
     13 C13        16.9338  -29.7946  -42.8046 C.ar      10 UNK        -0.0745 
     14 C14        17.7997  -29.8616  -43.8989 C.ar      10 UNK        -0.0972 
     15 C15        15.4916  -29.3457  -43.0028 C.3       10 UNK         0.0209 
     16 S16        15.3859  -27.6441  -43.6756 S.3       10 UNK        -0.2568 
     17 C17        16.3783  -26.6638  -42.4899 C.3       10 UNK        -0.0983 
     18 CA         17.8506  -26.4819  -42.9566 C.3       3 UNK         0.0876 
     19 N          17.9900  -25.7849  -44.2408 N.am      3 UNK        -0.4424 
     20 C          17.9557  -24.4629  -44.4696 C.2       2 UNK         0.4918 
     21 O          17.6799  -23.6261  -43.6086 O.2       2 UNK        -0.4875 
     22 CA         18.2961  -23.9903  -45.9033 C.3       2 UNK         0.0481 
     23 CB         19.0102  -22.6222  -45.9197 C.3       2 UNK        -0.1831 
     24 N          19.0400  -24.9881  -46.6864 N.am      2 UNK        -0.4498 
     25 C          20.2543  -25.5038  -46.4292 C.2       1 UNK         0.5027 
     26 O          21.0252  -25.0328  -45.5913 O.2       1 UNK        -0.4969 
     27 C          18.8026  -25.9477  -41.8645 C.2       3 UNK         0.5005 
     28 O          18.3902  -25.7405  -40.7205 O.2       3 UNK        -0.5279 
     29 N          20.0689  -25.7296  -42.2459 N.am      4 UNK        -0.4463 
     30 CA         21.1561  -25.3564  -41.3447 C.3       4 UNK         0.0283 
     31 CB         22.3226  -24.7987  -42.1755 C.3       4 UNK        -0.1875 
     32 C          21.6132  -26.5718  -40.5230 C.2       4 UNK         0.4949 
     33 O          21.7663  -27.6579  -41.0827 O.2       4 UNK        -0.5039 
     34 N          21.8497  -26.3622  -39.2216 N.am      5 UNK        -0.4663 
     35 CA         22.3710  -27.3777  -38.3046 C.3       5 UNK         0.0242 
     36 CB         22.1771  -26.9046  -36.8538 C.3       5 UNK        -0.1982 
     37 C          23.8499  -27.6661  -38.6106 C.2       5 UNK         0.5017 
     38 O          24.6937  -26.7959  -38.3830 O.2       5 UNK        -0.5012 
     39 N          24.1296  -28.8596  -39.1412 N.am      6 UNK        -0.4439 
     40 CA         25.4379  -29.3146  -39.6055 C.3       6 UNK         0.0297 
     41 CB         25.8303  -28.5559  -40.8942 C.3       6 UNK        -0.2006 
     42 C          25.3648  -30.8279  -39.8542 C.2       6 UNK         0.4892 
     43 O          24.3064  -31.4321  -39.6650 O.2       6 UNK        -0.5089 
     44 N          26.4692  -31.4134  -40.3401 N.am      7 UNK        -0.4243 
     45 CA         26.5478  -32.8105  -40.7948 C.3       7 UNK         0.0196 
     46 CB         27.9964  -33.1316  -41.1962 C.3       7 UNK        -0.2007 
     47 C          25.5811  -33.1481  -41.9497 C.2       7 UNK         0.5020 
     48 O          25.2274  -34.3145  -42.1245 O.2       7 UNK        -0.5147 
     49 N          25.1314  -32.1171  -42.6810 N.am      8 UNK        -0.4734 
     50 CA         24.0931  -32.1700  -43.7137 C.3       8 UNK         0.0238 
     51 CB         23.9540  -30.7756  -44.3483 C.3       8 UNK        -0.1912 
     52 C          22.7223  -32.6719  -43.2159 C.2       8 UNK         0.5038 
     53 O          21.9293  -33.1249  -44.0419 O.2       8 UNK        -0.5046 
     54 N          22.4689  -32.6073  -41.8992 N.am      9 UNK        -0.4200 
     55 CA         21.2905  -33.2089  -41.2533 C.3       9 UNK         0.0839 
     56 C          21.2879  -34.7670  -41.2553 C.2       9 UNK         0.5513 
     57 N          22.4000  -35.4417  -41.5290 N.am      9 UNK        -0.7519 
     58 O          20.2518  -35.3761  -41.0021 O.2       9 UNK        -0.4960 
     59 C59        21.0632  -32.6795  -39.8115 C.3       10 UNK        -0.0876 
     60 S60        21.0443  -30.8612  -39.6561 S.3       10 UNK        -0.2414 
     61 C61        19.2759  -30.4564  -39.8669 C.3       10 UNK         0.0169 
     62 H62        18.0001  -28.6383  -49.5888 H         1 UNK         0.0903 
     63 H63        17.3461  -29.6199  -48.2758 H         1 UNK         0.0903 
     64 H64        16.5802  -28.0863  -48.6962 H         1 UNK         0.0903 
     65 H65        19.8221  -27.5278  -48.9945 H         1 UNK         0.3096 
     66 H66        21.3518  -26.3881  -47.9787 H         1 UNK         0.1121 
     67 H67        21.5922  -28.7524  -46.9596 H         1 UNK         0.0849 
     68 H68        22.5081  -27.4482  -46.2860 H         1 UNK         0.0849 
     69 H69        20.9094  -30.6137  -44.8368 H         1 UNK         0.0865 
     70 H70        19.6235  -29.9367  -45.8110 H         1 UNK         0.0865 
     71 H71        20.7231  -30.3653  -42.2746 H         1 UNK         0.1346 
     72 H72        16.7616  -29.9826  -40.6701 H         1 UNK         0.1412 
     73 H73        17.4201  -29.6477  -44.8881 H         1 UNK         0.1426 
     74 H74        14.9371  -29.3895  -42.0642 H         1 UNK         0.0716 
     75 H75        14.9931  -30.0313  -43.6892 H         1 UNK         0.0716 
     76 H76        16.3340  -27.1603  -41.5190 H         1 UNK         0.0695 
     77 H77        15.9032  -25.6908  -42.3567 H         1 UNK         0.0695 
     78 H78        18.2550  -27.4685  -43.1496 H         1 UNK         0.0983 
     79 H79        18.1584  -26.4011  -45.0331 H         1 UNK         0.3095 
     80 H80        17.3393  -23.8670  -46.4122 H         1 UNK         0.0454 
     81 H81        19.2535  -22.3124  -46.9357 H         1 UNK         0.0851 
     82 H82        19.9349  -22.6392  -45.3423 H         1 UNK         0.0851 
     83 H83        18.3766  -21.8459  -45.4892 H         1 UNK         0.0851 
     84 H84        18.4971  -25.4705  -47.3895 H         1 UNK         0.2976 
     85 H85        20.3339  -25.9661  -43.1939 H         1 UNK         0.3116 
     86 H86        20.8009  -24.5732  -40.6714 H         1 UNK         0.0646 
     87 H87        23.1498  -24.4935  -41.5335 H         1 UNK         0.0847 
     88 H88        22.0175  -23.9256  -42.7529 H         1 UNK         0.0847 
     89 H89        22.7085  -25.5419  -42.8753 H         1 UNK         0.0847 
     90 H90        21.7335  -25.4319  -38.8463 H         1 UNK         0.3040 
     91 H91        21.7915  -28.2930  -38.4385 H         1 UNK         0.1015 
     92 H92        21.1224  -26.7510  -36.6247 H         1 UNK         0.0786 
     93 H93        22.7035  -25.9698  -36.6564 H         1 UNK         0.0786 
     94 H94        22.5561  -27.6468  -36.1499 H         1 UNK         0.0786 
     95 H95        23.3901  -29.5414  -39.2801 H         1 UNK         0.3172 
     96 H96        26.1779  -29.1321  -38.8240 H         1 UNK         0.0595 
     97 H97        25.1048  -28.7213  -41.6920 H         1 UNK         0.0839 
     98 H98        26.8073  -28.8647  -41.2665 H         1 UNK         0.0839 
     99 H99        25.8904  -27.4810  -40.7247 H         1 UNK         0.0839 
    100 H100       27.3033  -30.8554  -40.4558 H         1 UNK         0.2998 
    101 H101       26.2742  -33.4477  -39.9511 H         1 UNK         0.0822 
    102 H102       28.3341  -32.5070  -42.0242 H         1 UNK         0.0787 
    103 H103       28.6823  -32.9854  -40.3615 H         1 UNK         0.0787 
    104 H104       28.0922  -34.1715  -41.5126 H         1 UNK         0.0787 
    105 H105       25.4915  -31.2015  -42.4581 H         1 UNK         0.3055 
    106 H106       24.4315  -32.8696  -44.4811 H         1 UNK         0.1106 
    107 H107       23.2662  -30.7998  -45.1942 H         1 UNK         0.0828 
    108 H108       24.9087  -30.4100  -44.7266 H         1 UNK         0.0828 
    109 H109       23.5690  -30.0429  -43.6370 H         1 UNK         0.0828 
    110 H110       23.1612  -32.2095  -41.2749 H         1 UNK         0.2931 
    111 H111       20.4213  -32.9136  -41.8430 H         1 UNK         0.0412 
    112 H112       22.3764  -36.4492  -41.5266 H         1 UNK         0.3472 
    113 H113       23.2667  -34.9601  -41.7379 H         1 UNK         0.3472 
    114 H114       20.1333  -33.0767  -39.4005 H         1 UNK         0.0970 
    115 H115       21.8564  -33.0456  -39.1565 H         1 UNK         0.0970 
    116 H116       18.6694  -31.2112  -39.3648 H         1 UNK         0.0612 
    117 H117       19.0950  -29.5184  -39.3402 H         1 UNK         0.0612 
@<TRIPOS>BOND
     1    1    2 1    
     2    1   62 1    
     3    1   63 1    
     4    1   64 1    
     5    2    3 2    
     6    2    4 am   BACKBONE|DICT|INTERRES
     7    4    5 1    
     8    4   65 1    
     9    5    6 1    
    10    5   25 1    
    11    5   66 1    
    12    6    7 1    
    13    6   67 1    
    14    6   68 1    
    15    7    8 1    
    16    8    9 1    
    17    8   69 1    
    18    8   70 1    
    19    9   10 ar   
    20    9   14 ar   
    21   10   11 ar   
    22   10   71 1    
    23   11   12 ar   
    24   11   61 1    
    25   12   13 ar   
    26   12   72 1    
    27   13   14 ar   
    28   13   15 1    
    29   14   73 1    
    30   15   16 1    
    31   15   74 1    
    32   15   75 1    
    33   16   17 1    
    34   17   18 1    
    35   17   76 1    
    36   17   77 1    
    37   18   19 1    
    38   18   27 1    
    39   18   78 1    
    40   19   20 am   BACKBONE|DICT|INTERRES
    41   19   79 1    
    42   20   21 2    
    43   20   22 1    
    44   22   23 1    
    45   22   24 1    
    46   22   80 1    
    47   23   81 1    
    48   23   82 1    
    49   23   83 1    
    50   24   25 am   BACKBONE|DICT|INTERRES
    51   24   84 1    
    52   25   26 2    
    53   27   28 2    
    54   27   29 am   BACKBONE|DICT|INTERRES
    55   29   30 1    
    56   29   85 1    
    57   30   31 1    
    58   30   32 1    
    59   30   86 1    
    60   31   87 1    
    61   31   88 1    
    62   31   89 1    
    63   32   33 2    
    64   32   34 am   BACKBONE|DICT|INTERRES
    65   34   35 1    
    66   34   90 1    
    67   35   36 1    
    68   35   37 1    
    69   35   91 1    
    70   36   92 1    
    71   36   93 1    
    72   36   94 1    
    73   37   38 2    
    74   37   39 am   BACKBONE|DICT|INTERRES
    75   39   40 1    
    76   39   95 1    
    77   40   41 1    
    78   40   42 1    
    79   40   96 1    
    80   41   97 1    
    81   41   98 1    
    82   41   99 1    
    83   42   43 2    
    84   42   44 am   BACKBONE|DICT|INTERRES
    85   44   45 1    
    86   44  100 1    
    87   45   46 1    
    88   45   47 1    
    89   45  101 1    
    90   46  102 1    
    91   46  103 1    
    92   46  104 1    
    93   47   48 2    
    94   47   49 am   BACKBONE|DICT|INTERRES
    95   49   50 1    
    96   49  105 1    
    97   50   51 1    
    98   50   52 1    
    99   50  106 1    
   100   51  107 1    
   101   51  108 1    
   102   51  109 1    
   103   52   53 2    
   104   52   54 am   BACKBONE|DICT|INTERRES
   105   54   55 1    
   106   54  110 1    
   107   55   56 1    
   108   55   59 1    
   109   55  111 1    
   110   56   57 am   BACKBONE|DICT|INTERRES
   111   56   58 2    
   112   57  112 1    
   113   57  113 1    
   114   59   60 1    
   115   59  114 1    
   116   59  115 1    
   117   60   61 1    
   118   61  116 1    
   119   61  117 1    
@<TRIPOS>SUBSTRUCTURE
     1 UNK         1 GROUP             0       ****    0 ROOT    
