@<TRIPOS>MOLECULE
3R8
117   119    1
SMALL
USER_CHARGES


@<TRIPOS>ATOM
      1 CA         11.6952  -25.2475  -44.3910 C.3       0 UNK        -0.2013 
      2 C          13.0062  -25.2169  -45.1628 C.2       0 UNK         0.4866 
      3 O          13.2686  -24.2521  -45.8813 O.2       0 UNK        -0.5176 
      4 N          13.8190  -26.2712  -45.0269 N.am      1 UNK        -0.4884 
      5 CA         15.1490  -26.4066  -45.6251 C.3       1 UNK         0.0853 
      6 C6         15.4479  -27.8796  -46.0217 C.3       10 UNK        -0.0849 
      7 S7         15.1916  -29.1137  -44.6897 S.3       10 UNK        -0.2776 
      8 C8         16.4218  -30.3902  -45.1053 C.3       10 UNK         0.0316 
      9 C9         17.8493  -29.9194  -44.8639 C.ar      10 UNK        -0.0863 
     10 C10        18.4001  -29.9588  -43.5794 C.ar      10 UNK        -0.1009 
     11 C11        19.7247  -29.5636  -43.3632 C.ar      10 UNK        -0.0712 
     12 C12        20.4953  -29.1187  -44.4412 C.ar      10 UNK        -0.0894 
     13 C13        19.9479  -29.0563  -45.7260 C.ar      10 UNK        -0.0745 
     14 C14        18.6300  -29.4693  -45.9318 C.ar      10 UNK        -0.0972 
     15 C15        20.7726  -28.5546  -46.9012 C.3       10 UNK         0.0209 
     16 S16        20.6059  -26.7524  -47.1111 S.3       10 UNK        -0.2568 
     17 C17        21.7508  -26.1373  -45.8310 C.3       10 UNK        -0.0983 
     18 CA         21.0800  -25.2818  -44.7236 C.3       3 UNK         0.0876 
     19 N          19.8855  -25.9243  -44.1516 N.am      3 UNK        -0.4424 
     20 C          19.0070  -25.3229  -43.3381 C.2       2 UNK         0.4918 
     21 O          19.1028  -24.1483  -42.9784 O.2       2 UNK        -0.4875 
     22 CA         17.8424  -26.1968  -42.8374 C.3       2 UNK         0.0481 
     23 CB         17.0895  -25.5584  -41.6516 C.3       2 UNK        -0.1831 
     24 N          16.8993  -26.5651  -43.8983 N.am      2 UNK        -0.4498 
     25 C          16.1951  -25.7487  -44.6973 C.2       1 UNK         0.5027 
     26 O          16.3133  -24.5224  -44.7042 O.2       1 UNK        -0.4969 
     27 C          22.1501  -24.9053  -43.6704 C.2       3 UNK         0.5005 
     28 O          23.0492  -24.1263  -43.9908 O.2       3 UNK        -0.5279 
     29 N          22.0608  -25.4902  -42.4631 N.am      4 UNK        -0.4463 
     30 CA         23.0316  -25.4219  -41.3619 C.3       4 UNK         0.0283 
     31 CB         23.1831  -23.9819  -40.8258 C.3       4 UNK        -0.1875 
     32 C          24.3738  -26.0798  -41.7385 C.2       4 UNK         0.4949 
     33 O          25.4416  -25.5359  -41.4513 O.2       4 UNK        -0.5039 
     34 N          24.2817  -27.2452  -42.3930 N.am      5 UNK        -0.4663 
     35 CA         25.4133  -28.0838  -42.7863 C.3       5 UNK         0.0242 
     36 CB         24.9207  -29.1147  -43.8172 C.3       5 UNK        -0.1982 
     37 C          26.0440  -28.7947  -41.5766 C.2       5 UNK         0.5017 
     38 O          25.3793  -28.9877  -40.5552 O.2       5 UNK        -0.5012 
     39 N          27.3041  -29.2197  -41.7309 N.am      6 UNK        -0.4439 
     40 CA         28.0551  -30.0039  -40.7461 C.3       6 UNK         0.0297 
     41 CB         29.5624  -29.7827  -40.9747 C.3       6 UNK        -0.2006 
     42 C          27.6576  -31.4927  -40.8029 C.2       6 UNK         0.4892 
     43 O          28.4798  -32.3421  -41.1518 O.2       6 UNK        -0.5089 
     44 N          26.3913  -31.7748  -40.4857 N.am      7 UNK        -0.4243 
     45 CA         25.7751  -33.0967  -40.4894 C.3       7 UNK         0.0196 
     46 CB         25.3055  -33.4421  -41.9159 C.3       7 UNK        -0.2007 
     47 C          24.5927  -33.0910  -39.5157 C.2       7 UNK         0.5020 
     48 O          24.0902  -32.0223  -39.1618 O.2       7 UNK        -0.5147 
     49 N          24.1228  -34.2853  -39.1386 N.am      8 UNK        -0.4734 
     50 CA         22.9457  -34.4951  -38.2852 C.3       8 UNK         0.0238 
     51 CB         23.1152  -35.8226  -37.5213 C.3       8 UNK        -0.1912 
     52 C          21.6242  -34.4351  -39.0832 C.2       8 UNK         0.5038 
     53 O          20.7386  -35.2661  -38.8707 O.2       8 UNK        -0.5046 
     54 N          21.5267  -33.4750  -40.0090 N.am      9 UNK        -0.4200 
     55 CA         20.3546  -33.2123  -40.8507 C.3       9 UNK         0.0839 
     56 C          19.1753  -32.5598  -40.0767 C.2       9 UNK         0.5513 
     57 N          17.9678  -32.6331  -40.6208 N.am      9 UNK        -0.7519 
     58 O          19.3402  -31.9720  -39.0092 O.2       9 UNK        -0.4960 
     59 C59        20.7446  -32.4215  -42.1283 C.3       10 UNK        -0.0876 
     60 S60        21.6462  -30.8589  -41.8192 S.3       10 UNK        -0.2414 
     61 C61        20.3237  -29.6144  -41.9646 C.3       10 UNK         0.0169 
     62 H62        11.5849  -26.1623  -43.8089 H         1 UNK         0.0903 
     63 H63        11.6438  -24.4017  -43.7058 H         1 UNK         0.0903 
     64 H64        10.8528  -25.1805  -45.0790 H         1 UNK         0.0903 
     65 H65        13.5508  -27.0327  -44.4182 H         1 UNK         0.3096 
     66 H66        15.1746  -25.8273  -46.5514 H         1 UNK         0.1121 
     67 H67        16.4569  -27.9505  -46.4254 H         1 UNK         0.0849 
     68 H68        14.7932  -28.1618  -46.8478 H         1 UNK         0.0849 
     69 H69        16.2264  -31.2763  -44.4994 H         1 UNK         0.0865 
     70 H70        16.2867  -30.7007  -46.1428 H         1 UNK         0.0865 
     71 H71        17.7995  -30.3085  -42.7503 H         1 UNK         0.1346 
     72 H72        21.5232  -28.8294  -44.2753 H         1 UNK         0.1412 
     73 H73        18.2134  -29.4408  -46.9296 H         1 UNK         0.1426 
     74 H74        20.4417  -29.0429  -47.8191 H         1 UNK         0.0716 
     75 H75        21.8224  -28.8268  -46.7806 H         1 UNK         0.0716 
     76 H76        22.2931  -26.9768  -45.3945 H         1 UNK         0.0695 
     77 H77        22.5091  -25.5435  -46.3454 H         1 UNK         0.0695 
     78 H78        20.7486  -24.3462  -45.1797 H         1 UNK         0.0983 
     79 H79        19.7103  -26.8762  -44.4453 H         1 UNK         0.3095 
     80 H80        18.2805  -27.1281  -42.4766 H         1 UNK         0.0454 
     81 H81        17.7710  -25.3403  -40.8285 H         1 UNK         0.0851 
     82 H82        16.6085  -24.6205  -41.9315 H         1 UNK         0.0851 
     83 H83        16.3196  -26.2264  -41.2656 H         1 UNK         0.0851 
     84 H84        16.7158  -27.5574  -43.9936 H         1 UNK         0.2976 
     85 H85        21.2688  -26.0964  -42.3085 H         1 UNK         0.3116 
     86 H86        22.6174  -26.0257  -40.5529 H         1 UNK         0.0646 
     87 H87        23.7934  -23.9665  -39.9221 H         1 UNK         0.0847 
     88 H88        22.2158  -23.5492  -40.5708 H         1 UNK         0.0847 
     89 H89        23.6648  -23.3243  -41.5498 H         1 UNK         0.0847 
     90 H90        23.3644  -27.6358  -42.5413 H         1 UNK         0.3040 
     91 H91        26.1695  -27.4464  -43.2505 H         1 UNK         0.1015 
     92 H92        24.4828  -28.6280  -44.6891 H         1 UNK         0.0786 
     93 H93        24.1697  -29.7828  -43.3928 H         1 UNK         0.0786 
     94 H94        25.7414  -29.7374  -44.1755 H         1 UNK         0.0786 
     95 H95        27.7637  -29.0593  -42.6162 H         1 UNK         0.3172 
     96 H96        27.8172  -29.6403  -39.7440 H         1 UNK         0.0595 
     97 H97        30.1527  -30.3352  -40.2423 H         1 UNK         0.0839 
     98 H98        29.8291  -28.7305  -40.8742 H         1 UNK         0.0839 
     99 H99        29.8770  -30.1161  -41.9645 H         1 UNK         0.0839 
    100 H100       25.7751  -31.0185  -40.1962 H         1 UNK         0.2998 
    101 H101       26.5014  -33.8368  -40.1461 H         1 UNK         0.0822 
    102 H102       26.1408  -33.4589  -42.6162 H         1 UNK         0.0787 
    103 H103       24.8362  -34.4259  -41.9517 H         1 UNK         0.0787 
    104 H104       24.5764  -32.7182  -42.2835 H         1 UNK         0.0787 
    105 H105       24.5624  -35.1177  -39.5068 H         1 UNK         0.3055 
    106 H106       22.8965  -33.6933  -37.5445 H         1 UNK         0.1106 
    107 H107       23.1347  -36.6781  -38.1975 H         1 UNK         0.0828 
    108 H108       24.0376  -35.8317  -36.9404 H         1 UNK         0.0828 
    109 H109       22.2946  -35.9795  -36.8198 H         1 UNK         0.0828 
    110 H110       22.2723  -32.7924  -40.0671 H         1 UNK         0.2931 
    111 H111       19.9917  -34.1864  -41.1857 H         1 UNK         0.0412 
    112 H112       17.1884  -32.2140  -40.1379 H         1 UNK         0.3472 
    113 H113       17.8137  -33.1222  -41.4887 H         1 UNK         0.3472 
    114 H114       19.8697  -32.2391  -42.7527 H         1 UNK         0.0970 
    115 H115       21.3968  -33.0456  -42.7409 H         1 UNK         0.0970 
    116 H116       20.7370  -28.6358  -41.7177 H         1 UNK         0.0612 
    117 H117       19.5550  -29.8166  -41.2175 H         1 UNK         0.0612 
@<TRIPOS>BOND
     1    1    2 1    
     2    1   62 1    
     3    1   63 1    
     4    1   64 1    
     5    2    3 2    
     6    2    4 am   BACKBONE|DICT|INTERRES
     7    4    5 1    
     8    4   65 1    
     9    5    6 1    
    10    5   25 1    
    11    5   66 1    
    12    6    7 1    
    13    6   67 1    
    14    6   68 1    
    15    7    8 1    
    16    8    9 1    
    17    8   69 1    
    18    8   70 1    
    19    9   10 ar   
    20    9   14 ar   
    21   10   11 ar   
    22   10   71 1    
    23   11   12 ar   
    24   11   61 1    
    25   12   13 ar   
    26   12   72 1    
    27   13   14 ar   
    28   13   15 1    
    29   14   73 1    
    30   15   16 1    
    31   15   74 1    
    32   15   75 1    
    33   16   17 1    
    34   17   18 1    
    35   17   76 1    
    36   17   77 1    
    37   18   19 1    
    38   18   27 1    
    39   18   78 1    
    40   19   20 am   BACKBONE|DICT|INTERRES
    41   19   79 1    
    42   20   21 2    
    43   20   22 1    
    44   22   23 1    
    45   22   24 1    
    46   22   80 1    
    47   23   81 1    
    48   23   82 1    
    49   23   83 1    
    50   24   25 am   BACKBONE|DICT|INTERRES
    51   24   84 1    
    52   25   26 2    
    53   27   28 2    
    54   27   29 am   BACKBONE|DICT|INTERRES
    55   29   30 1    
    56   29   85 1    
    57   30   31 1    
    58   30   32 1    
    59   30   86 1    
    60   31   87 1    
    61   31   88 1    
    62   31   89 1    
    63   32   33 2    
    64   32   34 am   BACKBONE|DICT|INTERRES
    65   34   35 1    
    66   34   90 1    
    67   35   36 1    
    68   35   37 1    
    69   35   91 1    
    70   36   92 1    
    71   36   93 1    
    72   36   94 1    
    73   37   38 2    
    74   37   39 am   BACKBONE|DICT|INTERRES
    75   39   40 1    
    76   39   95 1    
    77   40   41 1    
    78   40   42 1    
    79   40   96 1    
    80   41   97 1    
    81   41   98 1    
    82   41   99 1    
    83   42   43 2    
    84   42   44 am   BACKBONE|DICT|INTERRES
    85   44   45 1    
    86   44  100 1    
    87   45   46 1    
    88   45   47 1    
    89   45  101 1    
    90   46  102 1    
    91   46  103 1    
    92   46  104 1    
    93   47   48 2    
    94   47   49 am   BACKBONE|DICT|INTERRES
    95   49   50 1    
    96   49  105 1    
    97   50   51 1    
    98   50   52 1    
    99   50  106 1    
   100   51  107 1    
   101   51  108 1    
   102   51  109 1    
   103   52   53 2    
   104   52   54 am   BACKBONE|DICT|INTERRES
   105   54   55 1    
   106   54  110 1    
   107   55   56 1    
   108   55   59 1    
   109   55  111 1    
   110   56   57 am   BACKBONE|DICT|INTERRES
   111   56   58 2    
   112   57  112 1    
   113   57  113 1    
   114   59   60 1    
   115   59  114 1    
   116   59  115 1    
   117   60   61 1    
   118   61  116 1    
   119   61  117 1    
@<TRIPOS>SUBSTRUCTURE
     1 UNK         1 GROUP             0       ****    0 ROOT    
