@<TRIPOS>MOLECULE
3R8
117   119    1
SMALL
USER_CHARGES


@<TRIPOS>ATOM
      1 CA         16.2893  -26.0930  -48.0166 C.3       0 UNK        -0.2013 
      2 C          16.9177  -26.9242  -46.9080 C.2       0 UNK         0.4866 
      3 O          17.6251  -27.8899  -47.1944 O.2       0 UNK        -0.5176 
      4 N          16.6580  -26.5608  -45.6459 N.am      1 UNK        -0.4884 
      5 CA         17.2054  -27.2112  -44.4515 C.3       1 UNK         0.0853 
      6 C6         16.4711  -26.7447  -43.1688 C.3       10 UNK        -0.0849 
      7 S7         14.8156  -27.5060  -43.0564 S.3       10 UNK        -0.2776 
      8 C8         15.0208  -28.7064  -41.6939 C.3       10 UNK         0.0316 
      9 C9         16.2760  -29.5593  -41.8399 C.ar      10 UNK        -0.0863 
     10 C10        16.4051  -30.4516  -42.9078 C.ar      10 UNK        -0.1009 
     11 C11        17.5726  -31.2021  -43.0608 C.ar      10 UNK        -0.0712 
     12 C12        18.6087  -31.0608  -42.1346 C.ar      10 UNK        -0.0894 
     13 C13        18.4934  -30.1865  -41.0509 C.ar      10 UNK        -0.0745 
     14 C14        17.3134  -29.4437  -40.9079 C.ar      10 UNK        -0.0972 
     15 C15        19.6642  -30.1145  -40.0676 C.3       10 UNK         0.0209 
     16 S16        19.5176  -28.9198  -38.6919 S.3       10 UNK        -0.2568 
     17 C17        19.6790  -27.2756  -39.4721 C.3       10 UNK        -0.0983 
     18 CA         20.9403  -27.1124  -40.3638 C.3       3 UNK         0.0876 
     19 N          20.6457  -27.4680  -41.7616 N.am      3 UNK        -0.4424 
     20 C          21.4920  -27.4637  -42.8032 C.2       2 UNK         0.4918 
     21 O          22.6472  -27.0430  -42.7527 O.2       2 UNK        -0.4875 
     22 CA         20.9668  -28.0076  -44.1411 C.3       2 UNK         0.0481 
     23 CB         21.5352  -29.4118  -44.3922 C.3       2 UNK        -0.1831 
     24 N          19.5041  -28.0447  -44.2430 N.am      2 UNK        -0.4498 
     25 C          18.7209  -26.9605  -44.3403 C.2       1 UNK         0.5027 
     26 O          19.1444  -25.8023  -44.3182 O.2       1 UNK        -0.4969 
     27 C          21.5830  -25.7209  -40.1632 C.2       3 UNK         0.5005 
     28 O          22.2376  -25.5101  -39.1409 O.2       3 UNK        -0.5279 
     29 N          21.4209  -24.8084  -41.1323 N.am      4 UNK        -0.4463 
     30 CA         22.1246  -23.5242  -41.1909 C.3       4 UNK         0.0283 
     31 CB         21.5195  -22.6717  -42.3177 C.3       4 UNK        -0.1875 
     32 C          23.6494  -23.6653  -41.3847 C.2       4 UNK         0.4949 
     33 O          24.3848  -22.7598  -40.9905 O.2       4 UNK        -0.5039 
     34 N          24.0931  -24.7792  -41.9834 N.am      5 UNK        -0.4663 
     35 CA         25.4952  -25.1115  -42.2239 C.3       5 UNK         0.0242 
     36 CB         25.6858  -25.4797  -43.7056 C.3       5 UNK        -0.1982 
     37 C          25.9634  -26.2572  -41.3145 C.2       5 UNK         0.5017 
     38 O          26.9924  -26.1041  -40.6549 O.2       5 UNK        -0.5012 
     39 N          25.2294  -27.3799  -41.2924 N.am      6 UNK        -0.4439 
     40 CA         25.5933  -28.5971  -40.5604 C.3       6 UNK         0.0297 
     41 CB         26.7517  -29.3210  -41.2773 C.3       6 UNK        -0.2006 
     42 C          24.3834  -29.5312  -40.4373 C.2       6 UNK         0.4892 
     43 O          23.4335  -29.4094  -41.2088 O.2       6 UNK        -0.5089 
     44 N          24.4433  -30.4665  -39.4816 N.am      7 UNK        -0.4243 
     45 CA         23.4235  -31.4993  -39.2838 C.3       7 UNK         0.0196 
     46 CB         23.6825  -32.2198  -37.9507 C.3       7 UNK        -0.2007 
     47 C          23.3921  -32.5078  -40.4485 C.2       7 UNK         0.5020 
     48 O          24.4556  -32.9014  -40.9326 O.2       7 UNK        -0.5147 
     49 N          22.1721  -32.9284  -40.8157 N.am      8 UNK        -0.4734 
     50 CA         21.7892  -33.8398  -41.9059 C.3       8 UNK         0.0238 
     51 CB         22.4870  -35.2093  -41.7815 C.3       8 UNK        -0.1912 
     52 C          21.9855  -33.2436  -43.3145 C.2       8 UNK         0.5038 
     53 O          23.0154  -32.6327  -43.6026 O.2       8 UNK        -0.5046 
     54 N          20.9874  -33.4610  -44.1792 N.am      9 UNK        -0.4200 
     55 CA         21.0298  -33.1160  -45.6082 C.3       9 UNK         0.0839 
     56 C          21.8214  -34.1769  -46.4180 C.2       9 UNK         0.5513 
     57 N          22.4829  -33.7688  -47.4919 N.am      9 UNK        -0.7519 
     58 O          21.8084  -35.3666  -46.1071 O.2       9 UNK        -0.4960 
     59 C59        19.6053  -32.9208  -46.1938 C.3       10 UNK        -0.0876 
     60 S60        18.7801  -31.4427  -45.5134 S.3       10 UNK        -0.2414 
     61 C61        17.7277  -32.1677  -44.2225 C.3       10 UNK         0.0169 
     62 H62        15.6808  -25.2792  -47.6224 H         1 UNK         0.0903 
     63 H63        17.0658  -25.6608  -48.6472 H         1 UNK         0.0903 
     64 H64        15.6531  -26.7200  -48.6407 H         1 UNK         0.0903 
     65 H65        16.0752  -25.7543  -45.4725 H         1 UNK         0.3096 
     66 H66        17.0554  -28.2867  -44.5688 H         1 UNK         0.1121 
     67 H67        17.0392  -26.9840  -42.2688 H         1 UNK         0.0849 
     68 H68        16.3622  -25.6585  -43.1587 H         1 UNK         0.0849 
     69 H69        15.0307  -28.1621  -40.7482 H         1 UNK         0.0865 
     70 H70        14.1462  -29.3574  -41.6594 H         1 UNK         0.0865 
     71 H71        15.6029  -30.5465  -43.6273 H         1 UNK         0.1346 
     72 H72        19.5117  -31.6410  -42.2599 H         1 UNK         0.1412 
     73 H73        17.1886  -28.7698  -40.0733 H         1 UNK         0.1426 
     74 H74        20.5926  -29.9354  -40.6108 H         1 UNK         0.0716 
     75 H75        19.7703  -31.1008  -39.6149 H         1 UNK         0.0716 
     76 H76        18.7711  -27.0390  -40.0284 H         1 UNK         0.0695 
     77 H77        19.6855  -26.5702  -38.6381 H         1 UNK         0.0695 
     78 H78        21.7014  -27.8146  -40.0197 H         1 UNK         0.0983 
     79 H79        19.7241  -27.8423  -41.9272 H         1 UNK         0.3095 
     80 H80        21.3424  -27.3476  -44.9257 H         1 UNK         0.0454 
     81 H81        22.6219  -29.4217  -44.2930 H         1 UNK         0.0851 
     82 H82        21.1438  -30.1417  -43.6831 H         1 UNK         0.0851 
     83 H83        21.3029  -29.7559  -45.3994 H         1 UNK         0.0851 
     84 H84        19.0805  -28.9622  -44.2909 H         1 UNK         0.2976 
     85 H85        20.8660  -25.0625  -41.9378 H         1 UNK         0.3116 
     86 H86        21.9601  -23.0066  -40.2434 H         1 UNK         0.0646 
     87 H87        22.0052  -21.6964  -42.3729 H         1 UNK         0.0847 
     88 H88        20.4565  -22.4931  -42.1551 H         1 UNK         0.0847 
     89 H89        21.6355  -23.1487  -43.2919 H         1 UNK         0.0847 
     90 H90        23.4188  -25.4928  -42.2527 H         1 UNK         0.3040 
     91 H91        26.1293  -24.2473  -42.0127 H         1 UNK         0.1015 
     92 H92        25.0675  -26.3293  -43.9985 H         1 UNK         0.0786 
     93 H93        26.7239  -25.7441  -43.9117 H         1 UNK         0.0786 
     94 H94        25.4298  -24.6425  -44.3550 H         1 UNK         0.0786 
     95 H95        24.3613  -27.4399  -41.8222 H         1 UNK         0.3172 
     96 H96        25.9056  -28.3183  -39.5518 H         1 UNK         0.0595 
     97 H97        27.0171  -30.2476  -40.7668 H         1 UNK         0.0839 
     98 H98        27.6523  -28.7081  -41.3114 H         1 UNK         0.0839 
     99 H99        26.4848  -29.5809  -42.3026 H         1 UNK         0.0839 
    100 H100       25.2744  -30.5338  -38.9123 H         1 UNK         0.2998 
    101 H101       22.4551  -30.9990  -39.2196 H         1 UNK         0.0822 
    102 H102       24.6502  -32.7235  -37.9461 H         1 UNK         0.0787 
    103 H103       23.6607  -31.5241  -37.1115 H         1 UNK         0.0787 
    104 H104       22.9207  -32.9775  -37.7618 H         1 UNK         0.0787 
    105 H105       21.3903  -32.5428  -40.3070 H         1 UNK         0.3055 
    106 H106       20.7203  -34.0119  -41.7671 H         1 UNK         0.1106 
    107 H107       23.5600  -35.1394  -41.9623 H         1 UNK         0.0828 
    108 H108       22.3399  -35.6439  -40.7928 H         1 UNK         0.0828 
    109 H109       22.0870  -35.9161  -42.5098 H         1 UNK         0.0828 
    110 H110       20.2064  -34.0312  -43.8933 H         1 UNK         0.2931 
    111 H111       21.5625  -32.1685  -45.7111 H         1 UNK         0.0412 
    112 H112       22.9915  -34.4447  -48.0410 H         1 UNK         0.3472 
    113 H113       22.4930  -32.7968  -47.7607 H         1 UNK         0.3472 
    114 H114       18.9876  -33.8072  -46.0384 H         1 UNK         0.0970 
    115 H115       19.6564  -32.7809  -47.2754 H         1 UNK         0.0970 
    116 H116       16.7579  -32.4241  -44.6517 H         1 UNK         0.0612 
    117 H117       18.1591  -33.0994  -43.8558 H         1 UNK         0.0612 
@<TRIPOS>BOND
     1    1    2 1    
     2    1   62 1    
     3    1   63 1    
     4    1   64 1    
     5    2    3 2    
     6    2    4 am   BACKBONE|DICT|INTERRES
     7    4    5 1    
     8    4   65 1    
     9    5    6 1    
    10    5   25 1    
    11    5   66 1    
    12    6    7 1    
    13    6   67 1    
    14    6   68 1    
    15    7    8 1    
    16    8    9 1    
    17    8   69 1    
    18    8   70 1    
    19    9   10 ar   
    20    9   14 ar   
    21   10   11 ar   
    22   10   71 1    
    23   11   12 ar   
    24   11   61 1    
    25   12   13 ar   
    26   12   72 1    
    27   13   14 ar   
    28   13   15 1    
    29   14   73 1    
    30   15   16 1    
    31   15   74 1    
    32   15   75 1    
    33   16   17 1    
    34   17   18 1    
    35   17   76 1    
    36   17   77 1    
    37   18   19 1    
    38   18   27 1    
    39   18   78 1    
    40   19   20 am   BACKBONE|DICT|INTERRES
    41   19   79 1    
    42   20   21 2    
    43   20   22 1    
    44   22   23 1    
    45   22   24 1    
    46   22   80 1    
    47   23   81 1    
    48   23   82 1    
    49   23   83 1    
    50   24   25 am   BACKBONE|DICT|INTERRES
    51   24   84 1    
    52   25   26 2    
    53   27   28 2    
    54   27   29 am   BACKBONE|DICT|INTERRES
    55   29   30 1    
    56   29   85 1    
    57   30   31 1    
    58   30   32 1    
    59   30   86 1    
    60   31   87 1    
    61   31   88 1    
    62   31   89 1    
    63   32   33 2    
    64   32   34 am   BACKBONE|DICT|INTERRES
    65   34   35 1    
    66   34   90 1    
    67   35   36 1    
    68   35   37 1    
    69   35   91 1    
    70   36   92 1    
    71   36   93 1    
    72   36   94 1    
    73   37   38 2    
    74   37   39 am   BACKBONE|DICT|INTERRES
    75   39   40 1    
    76   39   95 1    
    77   40   41 1    
    78   40   42 1    
    79   40   96 1    
    80   41   97 1    
    81   41   98 1    
    82   41   99 1    
    83   42   43 2    
    84   42   44 am   BACKBONE|DICT|INTERRES
    85   44   45 1    
    86   44  100 1    
    87   45   46 1    
    88   45   47 1    
    89   45  101 1    
    90   46  102 1    
    91   46  103 1    
    92   46  104 1    
    93   47   48 2    
    94   47   49 am   BACKBONE|DICT|INTERRES
    95   49   50 1    
    96   49  105 1    
    97   50   51 1    
    98   50   52 1    
    99   50  106 1    
   100   51  107 1    
   101   51  108 1    
   102   51  109 1    
   103   52   53 2    
   104   52   54 am   BACKBONE|DICT|INTERRES
   105   54   55 1    
   106   54  110 1    
   107   55   56 1    
   108   55   59 1    
   109   55  111 1    
   110   56   57 am   BACKBONE|DICT|INTERRES
   111   56   58 2    
   112   57  112 1    
   113   57  113 1    
   114   59   60 1    
   115   59  114 1    
   116   59  115 1    
   117   60   61 1    
   118   61  116 1    
   119   61  117 1    
@<TRIPOS>SUBSTRUCTURE
     1 UNK         1 GROUP             0       ****    0 ROOT    
