@<TRIPOS>MOLECULE
3R8
117   119    1
SMALL
USER_CHARGES


@<TRIPOS>ATOM
      1 CA         20.0608  -27.9813  -41.4044 C.3       0 UNK        -0.2013 
      2 C          19.1424  -26.8509  -41.8382 C.2       0 UNK         0.4866 
      3 O          18.9975  -25.8720  -41.1054 O.2       0 UNK        -0.5176 
      4 N          18.5316  -26.9805  -43.0221 N.am      1 UNK        -0.4884 
      5 CA         17.6856  -25.9570  -43.6463 C.3       1 UNK         0.0853 
      6 C6         16.4633  -26.5686  -44.3904 C.3       10 UNK        -0.0849 
      7 S7         15.4251  -27.6200  -43.3103 S.3       10 UNK        -0.2776 
      8 C8         15.5540  -29.2669  -44.0885 C.3       10 UNK         0.0316 
      9 C9         16.9541  -29.8494  -43.9616 C.ar      10 UNK        -0.0863 
     10 C10        17.3436  -30.5160  -42.7951 C.ar      10 UNK        -0.1009 
     11 C11        18.6467  -31.0076  -42.6598 C.ar      10 UNK        -0.0712 
     12 C12        19.5615  -30.8287  -43.7014 C.ar      10 UNK        -0.0894 
     13 C13        19.1836  -30.1504  -44.8627 C.ar      10 UNK        -0.0745 
     14 C14        17.8732  -29.6911  -45.0011 C.ar      10 UNK        -0.0972 
     15 C15        20.2139  -29.8089  -45.9208 C.3       10 UNK         0.0209 
     16 S16        21.0474  -28.2806  -45.4125 S.3       10 UNK        -0.2568 
     17 C17        21.8441  -27.7094  -46.9537 C.3       10 UNK        -0.0983 
     18 CA         21.9274  -26.1616  -47.0258 C.3       3 UNK         0.0876 
     19 N          20.5943  -25.5664  -46.9000 N.am      3 UNK        -0.4424 
     20 C          20.2733  -24.2834  -47.1008 C.2       2 UNK         0.4918 
     21 O          21.0553  -23.4438  -47.5466 O.2       2 UNK        -0.4875 
     22 CA         18.8397  -23.8571  -46.7177 C.3       2 UNK         0.0481 
     23 CB         17.9740  -23.7125  -47.9796 C.3       2 UNK        -0.1831 
     24 N          18.1523  -24.7434  -45.7627 N.am      2 UNK        -0.4498 
     25 C          18.5738  -25.0382  -44.5214 C.2       1 UNK         0.5027 
     26 O          19.6438  -24.6217  -44.0702 O.2       1 UNK        -0.4969 
     27 C          22.9408  -25.6261  -45.9849 C.2       3 UNK         0.5005 
     28 O          24.1430  -25.6640  -46.2527 O.2       3 UNK        -0.5279 
     29 N          22.4453  -25.1799  -44.8159 N.am      4 UNK        -0.4463 
     30 CA         23.2008  -24.7736  -43.6237 C.3       4 UNK         0.0283 
     31 CB         24.0038  -23.4831  -43.8913 C.3       4 UNK        -0.1875 
     32 C          24.0636  -25.9122  -43.0361 C.2       4 UNK         0.4949 
     33 O          25.1701  -25.6634  -42.5565 O.2       4 UNK        -0.5039 
     34 N          23.5394  -27.1470  -43.0773 N.am      5 UNK        -0.4663 
     35 CA         24.2324  -28.3732  -42.6571 C.3       5 UNK         0.0242 
     36 CB         23.5320  -29.5887  -43.2885 C.3       5 UNK        -0.1982 
     37 C          24.3682  -28.5645  -41.1339 C.2       5 UNK         0.5017 
     38 O          25.0152  -29.5252  -40.7200 O.2       5 UNK        -0.5012 
     39 N          23.7509  -27.6857  -40.3291 N.am      6 UNK        -0.4439 
     40 CA         23.7820  -27.6630  -38.8581 C.3       6 UNK         0.0297 
     41 CB         25.1886  -27.2738  -38.3543 C.3       6 UNK        -0.2006 
     42 C          23.2518  -28.9606  -38.2098 C.2       6 UNK         0.4892 
     43 O          23.8633  -29.4830  -37.2765 O.2       6 UNK        -0.5089 
     44 N          22.1150  -29.4468  -38.7312 N.am      7 UNK        -0.4243 
     45 CA         21.3625  -30.6325  -38.2941 C.3       7 UNK         0.0196 
     46 CB         20.8554  -30.4690  -36.8451 C.3       7 UNK        -0.2007 
     47 C          22.0881  -31.9760  -38.5187 C.2       7 UNK         0.5020 
     48 O          21.7254  -32.9733  -37.8933 O.2       7 UNK        -0.5147 
     49 N          23.0645  -32.0100  -39.4381 N.am      8 UNK        -0.4734 
     50 CA         23.8478  -33.2046  -39.7863 C.3       8 UNK         0.0238 
     51 CB         25.0798  -32.7804  -40.6022 C.3       8 UNK        -0.1912 
     52 C          23.0636  -34.3085  -40.5259 C.2       8 UNK         0.5038 
     53 O          23.6038  -35.4016  -40.7022 O.2       8 UNK        -0.5046 
     54 N          21.8242  -34.0196  -40.9465 N.am      9 UNK        -0.4200 
     55 CA         20.9018  -34.9770  -41.5766 C.3       9 UNK         0.0839 
     56 C          20.3871  -36.1125  -40.6403 C.2       9 UNK         0.5513 
     57 N          20.5314  -36.0062  -39.3237 N.am      9 UNK        -0.7519 
     58 O          19.8579  -37.1106  -41.1223 O.2       9 UNK        -0.4960 
     59 C59        19.7458  -34.2550  -42.3221 C.3       10 UNK        -0.0876 
     60 S60        18.5642  -33.3902  -41.2249 S.3       10 UNK        -0.2414 
     61 C61        19.0878  -31.6556  -41.3568 C.3       10 UNK         0.0169 
     62 H62        19.5408  -28.6371  -40.7070 H         1 UNK         0.0903 
     63 H63        20.3977  -28.5705  -42.2554 H         1 UNK         0.0903 
     64 H64        20.9388  -27.5718  -40.9092 H         1 UNK         0.0903 
     65 H65        18.6736  -27.8223  -43.5647 H         1 UNK         0.3096 
     66 H66        17.2822  -25.3092  -42.8646 H         1 UNK         0.1121 
     67 H67        15.8149  -25.7736  -44.7632 H         1 UNK         0.0849 
     68 H68        16.7777  -27.1353  -45.2660 H         1 UNK         0.0849 
     69 H69        14.8366  -29.9378  -43.6135 H         1 UNK         0.0865 
     70 H70        15.2562  -29.2012  -45.1363 H         1 UNK         0.0865 
     71 H71        16.6402  -30.6301  -41.9814 H         1 UNK         0.1346 
     72 H72        20.5821  -31.1677  -43.5904 H         1 UNK         0.1412 
     73 H73        17.5857  -29.1674  -45.9023 H         1 UNK         0.1426 
     74 H74        19.7354  -29.6762  -46.8923 H         1 UNK         0.0716 
     75 H75        20.9437  -30.6127  -46.0288 H         1 UNK         0.0716 
     76 H76        21.2784  -28.0816  -47.8091 H         1 UNK         0.0695 
     77 H77        22.8346  -28.1624  -47.0308 H         1 UNK         0.0695 
     78 H78        22.3150  -25.8877  -48.0094 H         1 UNK         0.0983 
     79 H79        19.8824  -26.1815  -46.5358 H         1 UNK         0.3095 
     80 H80        18.9170  -22.8752  -46.2465 H         1 UNK         0.0454 
     81 H81        18.4386  -23.0350  -48.6976 H         1 UNK         0.0851 
     82 H82        16.9913  -23.3034  -47.7444 H         1 UNK         0.0851 
     83 H83        17.8298  -24.6695  -48.4826 H         1 UNK         0.0851 
     84 H84        17.2691  -25.1223  -46.0722 H         1 UNK         0.2976 
     85 H85        21.4347  -25.1577  -44.7050 H         1 UNK         0.3116 
     86 H86        22.4536  -24.5407  -42.8636 H         1 UNK         0.0646 
     87 H87        24.8171  -23.6499  -44.5980 H         1 UNK         0.0847 
     88 H88        23.3661  -22.6957  -44.2931 H         1 UNK         0.0847 
     89 H89        24.4478  -23.1011  -42.9713 H         1 UNK         0.0847 
     90 H90        22.6391  -27.2665  -43.5213 H         1 UNK         0.3040 
     91 H91        25.2503  -28.3328  -43.0515 H         1 UNK         0.1015 
     92 H92        24.0382  -30.5183  -43.0266 H         1 UNK         0.0786 
     93 H93        23.5378  -29.5258  -44.3766 H         1 UNK         0.0786 
     94 H94        22.4974  -29.6771  -42.9583 H         1 UNK         0.0786 
     95 H95        23.2591  -26.9249  -40.7753 H         1 UNK         0.3172 
     96 H96        23.0965  -26.8718  -38.5507 H         1 UNK         0.0595 
     97 H97        25.9280  -28.0414  -38.5853 H         1 UNK         0.0839 
     98 H98        25.1927  -27.1346  -37.2725 H         1 UNK         0.0839 
     99 H99        25.5259  -26.3387  -38.8014 H         1 UNK         0.0839 
    100 H100       21.7146  -28.9397  -39.5057 H         1 UNK         0.2998 
    101 H101       20.4795  -30.6698  -38.9314 H         1 UNK         0.0822 
    102 H102       20.1577  -31.2650  -36.5815 H         1 UNK         0.0787 
    103 H103       20.3287  -29.5240  -36.7122 H         1 UNK         0.0787 
    104 H104       21.6714  -30.5038  -36.1228 H         1 UNK         0.0787 
    105 H105       23.3423  -31.1445  -39.8820 H         1 UNK         0.3055 
    106 H106       24.2006  -33.6510  -38.8538 H         1 UNK         0.1106 
    107 H107       25.7027  -32.0810  -40.0442 H         1 UNK         0.0828 
    108 H108       25.7062  -33.6392  -40.8475 H         1 UNK         0.0828 
    109 H109       24.7978  -32.3045  -41.5415 H         1 UNK         0.0828 
    110 H110       21.4480  -33.1112  -40.7297 H         1 UNK         0.2931 
    111 H111       21.4837  -35.4877  -42.3465 H         1 UNK         0.0412 
    112 H112       20.1989  -36.7479  -38.7280 H         1 UNK         0.3472 
    113 H113       20.9485  -35.1806  -38.9190 H         1 UNK         0.3472 
    114 H114       20.1544  -33.5555  -43.0512 H         1 UNK         0.0970 
    115 H115       19.1797  -34.9785  -42.9116 H         1 UNK         0.0970 
    116 H116       18.6547  -31.1039  -40.5214 H         1 UNK         0.0612 
    117 H117       20.1696  -31.5864  -41.2399 H         1 UNK         0.0612 
@<TRIPOS>BOND
     1    1    2 1    
     2    1   62 1    
     3    1   63 1    
     4    1   64 1    
     5    2    3 2    
     6    2    4 am   BACKBONE|DICT|INTERRES
     7    4    5 1    
     8    4   65 1    
     9    5    6 1    
    10    5   25 1    
    11    5   66 1    
    12    6    7 1    
    13    6   67 1    
    14    6   68 1    
    15    7    8 1    
    16    8    9 1    
    17    8   69 1    
    18    8   70 1    
    19    9   10 ar   
    20    9   14 ar   
    21   10   11 ar   
    22   10   71 1    
    23   11   12 ar   
    24   11   61 1    
    25   12   13 ar   
    26   12   72 1    
    27   13   14 ar   
    28   13   15 1    
    29   14   73 1    
    30   15   16 1    
    31   15   74 1    
    32   15   75 1    
    33   16   17 1    
    34   17   18 1    
    35   17   76 1    
    36   17   77 1    
    37   18   19 1    
    38   18   27 1    
    39   18   78 1    
    40   19   20 am   BACKBONE|DICT|INTERRES
    41   19   79 1    
    42   20   21 2    
    43   20   22 1    
    44   22   23 1    
    45   22   24 1    
    46   22   80 1    
    47   23   81 1    
    48   23   82 1    
    49   23   83 1    
    50   24   25 am   BACKBONE|DICT|INTERRES
    51   24   84 1    
    52   25   26 2    
    53   27   28 2    
    54   27   29 am   BACKBONE|DICT|INTERRES
    55   29   30 1    
    56   29   85 1    
    57   30   31 1    
    58   30   32 1    
    59   30   86 1    
    60   31   87 1    
    61   31   88 1    
    62   31   89 1    
    63   32   33 2    
    64   32   34 am   BACKBONE|DICT|INTERRES
    65   34   35 1    
    66   34   90 1    
    67   35   36 1    
    68   35   37 1    
    69   35   91 1    
    70   36   92 1    
    71   36   93 1    
    72   36   94 1    
    73   37   38 2    
    74   37   39 am   BACKBONE|DICT|INTERRES
    75   39   40 1    
    76   39   95 1    
    77   40   41 1    
    78   40   42 1    
    79   40   96 1    
    80   41   97 1    
    81   41   98 1    
    82   41   99 1    
    83   42   43 2    
    84   42   44 am   BACKBONE|DICT|INTERRES
    85   44   45 1    
    86   44  100 1    
    87   45   46 1    
    88   45   47 1    
    89   45  101 1    
    90   46  102 1    
    91   46  103 1    
    92   46  104 1    
    93   47   48 2    
    94   47   49 am   BACKBONE|DICT|INTERRES
    95   49   50 1    
    96   49  105 1    
    97   50   51 1    
    98   50   52 1    
    99   50  106 1    
   100   51  107 1    
   101   51  108 1    
   102   51  109 1    
   103   52   53 2    
   104   52   54 am   BACKBONE|DICT|INTERRES
   105   54   55 1    
   106   54  110 1    
   107   55   56 1    
   108   55   59 1    
   109   55  111 1    
   110   56   57 am   BACKBONE|DICT|INTERRES
   111   56   58 2    
   112   57  112 1    
   113   57  113 1    
   114   59   60 1    
   115   59  114 1    
   116   59  115 1    
   117   60   61 1    
   118   61  116 1    
   119   61  117 1    
@<TRIPOS>SUBSTRUCTURE
     1 UNK         1 GROUP             0       ****    0 ROOT    
