@<TRIPOS>MOLECULE
3R8
117   119    1
SMALL
USER_CHARGES


@<TRIPOS>ATOM
      1 CA         15.7367  -26.8977  -49.0364 C.3       0 UNK        -0.2013 
      2 C          16.7280  -26.9418  -47.8827 C.2       0 UNK         0.4866 
      3 O          16.3316  -26.7134  -46.7397 O.2       0 UNK        -0.5176 
      4 N          17.9999  -27.2433  -48.1872 N.am      1 UNK        -0.4884 
      5 CA         19.1532  -27.3255  -47.2745 C.3       1 UNK         0.0853 
      6 C6         18.9403  -28.2958  -46.0767 C.3       10 UNK        -0.0849 
      7 S7         18.5079  -30.0085  -46.5316 S.3       10 UNK        -0.2776 
      8 C8         16.9168  -30.2528  -45.6668 C.3       10 UNK         0.0316 
      9 C9         16.9569  -29.8430  -44.1962 C.ar      10 UNK        -0.0863 
     10 C10        17.8116  -30.4853  -43.2940 C.ar      10 UNK        -0.1009 
     11 C11        17.8548  -30.0911  -41.9514 C.ar      10 UNK        -0.0712 
     12 C12        17.0128  -29.0679  -41.5091 C.ar      10 UNK        -0.0894 
     13 C13        16.1923  -28.3821  -42.4109 C.ar      10 UNK        -0.0745 
     14 C14        16.1565  -28.7871  -43.7479 C.ar      10 UNK        -0.0972 
     15 C15        15.3779  -27.1759  -41.9571 C.3       10 UNK         0.0209 
     16 S16        16.3776  -25.9444  -41.0495 S.3       10 UNK        -0.2568 
     17 C17        17.5891  -25.3757  -42.2988 C.3       10 UNK        -0.0983 
     18 CA         18.9198  -26.1823  -42.2969 C.3       3 UNK         0.0876 
     19 N          19.7452  -25.9356  -43.4795 N.am      3 UNK        -0.4424 
     20 C          20.3517  -24.7960  -43.8452 C.2       2 UNK         0.4918 
     21 O          20.2915  -23.7414  -43.2143 O.2       2 UNK        -0.4875 
     22 CA         21.1723  -24.8480  -45.1527 C.3       2 UNK         0.0481 
     23 CB         22.6670  -25.0143  -44.8312 C.3       2 UNK        -0.1831 
     24 N          20.7464  -25.9404  -46.0367 N.am      2 UNK        -0.4498 
     25 C          19.6067  -25.9423  -46.7466 C.2       1 UNK         0.5027 
     26 O          18.9265  -24.9303  -46.9325 O.2       1 UNK        -0.4969 
     27 C          19.7576  -26.0803  -41.0047 C.2       3 UNK         0.5005 
     28 O          19.5503  -25.1819  -40.1859 O.2       3 UNK        -0.5279 
     29 N          20.7105  -27.0106  -40.8601 N.am      4 UNK        -0.4463 
     30 CA         21.5650  -27.1690  -39.6890 C.3       4 UNK         0.0283 
     31 CB         22.6896  -26.1153  -39.6976 C.3       4 UNK        -0.1875 
     32 C          22.1370  -28.5911  -39.6672 C.2       4 UNK         0.4949 
     33 O          22.1957  -29.2574  -40.7075 O.2       4 UNK        -0.5039 
     34 N          22.5709  -29.0202  -38.4769 N.am      5 UNK        -0.4663 
     35 CA         23.3272  -30.2551  -38.2708 C.3       5 UNK         0.0242 
     36 CB         23.3513  -30.5935  -36.7724 C.3       5 UNK        -0.1982 
     37 C          24.7559  -30.1147  -38.8198 C.2       5 UNK         0.5017 
     38 O          25.3051  -29.0103  -38.8152 O.2       5 UNK        -0.5012 
     39 N          25.3156  -31.2261  -39.3123 N.am      6 UNK        -0.4439 
     40 CA         26.6073  -31.3834  -39.9984 C.3       6 UNK         0.0297 
     41 CB         27.7907  -30.9027  -39.1357 C.3       6 UNK        -0.2006 
     42 C          26.6412  -30.7572  -41.4049 C.2       6 UNK         0.4892 
     43 O          27.2196  -31.3568  -42.3115 O.2       6 UNK        -0.5089 
     44 N          26.0001  -29.5934  -41.5759 N.am      7 UNK        -0.4243 
     45 CA         25.7766  -28.9297  -42.8608 C.3       7 UNK         0.0196 
     46 CB         25.2449  -27.5098  -42.6137 C.3       7 UNK        -0.2007 
     47 C          24.8049  -29.7072  -43.7644 C.2       7 UNK         0.5020 
     48 O          24.9853  -29.7016  -44.9823 O.2       7 UNK        -0.5147 
     49 N          23.8025  -30.3582  -43.1591 N.am      8 UNK        -0.4734 
     50 CA         22.8160  -31.1812  -43.8541 C.3       8 UNK         0.0238 
     51 CB         21.5750  -30.3418  -44.2035 C.3       8 UNK        -0.1912 
     52 C          22.4633  -32.4275  -43.0358 C.2       8 UNK         0.5038 
     53 O          22.7077  -33.5393  -43.5060 O.2       8 UNK        -0.5046 
     54 N          21.8907  -32.2298  -41.8414 N.am      9 UNK        -0.4200 
     55 CA         21.4413  -33.3230  -40.9619 C.3       9 UNK         0.0839 
     56 C          22.6153  -33.9823  -40.1922 C.2       9 UNK         0.5513 
     57 N          22.5132  -35.2683  -39.8891 N.am      9 UNK        -0.7519 
     58 O          23.5931  -33.3339  -39.8292 O.2       9 UNK        -0.4960 
     59 C59        20.3217  -32.8622  -39.9931 C.3       10 UNK        -0.0876 
     60 S60        18.7688  -32.4976  -40.8798 S.3       10 UNK        -0.2414 
     61 C61        18.8776  -30.6893  -40.9970 C.3       10 UNK         0.0169 
     62 H62        14.9360  -27.6177  -48.8695 H         1 UNK         0.0903 
     63 H63        15.2927  -25.9053  -49.1105 H         1 UNK         0.0903 
     64 H64        16.2079  -27.1305  -49.9912 H         1 UNK         0.0903 
     65 H65        18.2303  -27.4001  -49.1587 H         1 UNK         0.3096 
     66 H66        19.9784  -27.7095  -47.8769 H         1 UNK         0.1121 
     67 H67        19.8465  -28.3784  -45.4787 H         1 UNK         0.0849 
     68 H68        18.1895  -27.8838  -45.4039 H         1 UNK         0.0849 
     69 H69        16.1457  -29.6949  -46.2007 H         1 UNK         0.0865 
     70 H70        16.6342  -31.3040  -45.7361 H         1 UNK         0.0865 
     71 H71        18.4632  -31.2746  -43.6434 H         1 UNK         0.1346 
     72 H72        17.0495  -28.7499  -40.4759 H         1 UNK         0.1412 
     73 H73        15.5239  -28.2602  -44.4503 H         1 UNK         0.1426 
     74 H74        14.5722  -27.5218  -41.3083 H         1 UNK         0.0716 
     75 H75        14.9015  -26.6832  -42.8063 H         1 UNK         0.0716 
     76 H76        17.7855  -24.3159  -42.1286 H         1 UNK         0.0695 
     77 H77        17.1200  -25.4383  -43.2822 H         1 UNK         0.0695 
     78 H78        18.6537  -27.2318  -42.3875 H         1 UNK         0.0983 
     79 H79        19.8867  -26.7353  -44.0738 H         1 UNK         0.3095 
     80 H80        21.0364  -23.8981  -45.6741 H         1 UNK         0.0454 
     81 H81        22.8681  -25.9473  -44.3034 H         1 UNK         0.0851 
     82 H82        23.0218  -24.2004  -44.1973 H         1 UNK         0.0851 
     83 H83        23.2725  -25.0028  -45.7375 H         1 UNK         0.0851 
     84 H84        21.3038  -26.7823  -46.0043 H         1 UNK         0.2976 
     85 H85        20.8372  -27.7332  -41.5573 H         1 UNK         0.3116 
     86 H86        20.9565  -27.0406  -38.7911 H         1 UNK         0.0646 
     87 H87        23.2575  -26.1368  -40.6264 H         1 UNK         0.0847 
     88 H88        23.3940  -26.2776  -38.8806 H         1 UNK         0.0847 
     89 H89        22.2896  -25.1082  -39.5799 H         1 UNK         0.0847 
     90 H90        22.5159  -28.3932  -37.6871 H         1 UNK         0.3040 
     91 H91        22.8180  -31.0586  -38.8041 H         1 UNK         0.1015 
     92 H92        22.3427  -30.7110  -36.3756 H         1 UNK         0.0786 
     93 H93        23.8542  -29.8194  -36.1910 H         1 UNK         0.0786 
     94 H94        23.8796  -31.5310  -36.5933 H         1 UNK         0.0786 
     95 H95        24.7322  -32.0643  -39.3392 H         1 UNK         0.3172 
     96 H96        26.7245  -32.4595  -40.1371 H         1 UNK         0.0595 
     97 H97        27.7841  -29.8221  -38.9915 H         1 UNK         0.0839 
     98 H98        28.7403  -31.1563  -39.6087 H         1 UNK         0.0839 
     99 H99        27.7824  -31.3733  -38.1527 H         1 UNK         0.0839 
    100 H100       25.6039  -29.1571  -40.7491 H         1 UNK         0.2998 
    101 H101       26.7364  -28.8581  -43.3769 H         1 UNK         0.0822 
    102 H102       25.9105  -26.9388  -41.9660 H         1 UNK         0.0787 
    103 H103       25.1538  -26.9606  -43.5517 H         1 UNK         0.0787 
    104 H104       24.2579  -27.5319  -42.1517 H         1 UNK         0.0787 
    105 H105       23.7115  -30.2878  -42.1537 H         1 UNK         0.3055 
    106 H106       23.2446  -31.5460  -44.7910 H         1 UNK         0.1106 
    107 H107       21.1476  -29.8539  -43.3281 H         1 UNK         0.0828 
    108 H108       21.8285  -29.5677  -44.9269 H         1 UNK         0.0828 
    109 H109       20.7968  -30.9610  -44.6513 H         1 UNK         0.0828 
    110 H110       21.7704  -31.2863  -41.4973 H         1 UNK         0.2931 
    111 H111       21.0123  -34.0990  -41.6003 H         1 UNK         0.0412 
    112 H112       21.7119  -35.8107  -40.1733 H         1 UNK         0.3472 
    113 H113       23.2598  -35.7101  -39.3753 H         1 UNK         0.3472 
    114 H114       20.0941  -33.6473  -39.2693 H         1 UNK         0.0970 
    115 H115       20.6367  -31.9976  -39.4063 H         1 UNK         0.0970 
    116 H116       19.8682  -30.4073  -41.3483 H         1 UNK         0.0612 
    117 H117       18.7745  -30.2676  -39.9958 H         1 UNK         0.0612 
@<TRIPOS>BOND
     1    1    2 1    
     2    1   62 1    
     3    1   63 1    
     4    1   64 1    
     5    2    3 2    
     6    2    4 am   BACKBONE|DICT|INTERRES
     7    4    5 1    
     8    4   65 1    
     9    5    6 1    
    10    5   25 1    
    11    5   66 1    
    12    6    7 1    
    13    6   67 1    
    14    6   68 1    
    15    7    8 1    
    16    8    9 1    
    17    8   69 1    
    18    8   70 1    
    19    9   10 ar   
    20    9   14 ar   
    21   10   11 ar   
    22   10   71 1    
    23   11   12 ar   
    24   11   61 1    
    25   12   13 ar   
    26   12   72 1    
    27   13   14 ar   
    28   13   15 1    
    29   14   73 1    
    30   15   16 1    
    31   15   74 1    
    32   15   75 1    
    33   16   17 1    
    34   17   18 1    
    35   17   76 1    
    36   17   77 1    
    37   18   19 1    
    38   18   27 1    
    39   18   78 1    
    40   19   20 am   BACKBONE|DICT|INTERRES
    41   19   79 1    
    42   20   21 2    
    43   20   22 1    
    44   22   23 1    
    45   22   24 1    
    46   22   80 1    
    47   23   81 1    
    48   23   82 1    
    49   23   83 1    
    50   24   25 am   BACKBONE|DICT|INTERRES
    51   24   84 1    
    52   25   26 2    
    53   27   28 2    
    54   27   29 am   BACKBONE|DICT|INTERRES
    55   29   30 1    
    56   29   85 1    
    57   30   31 1    
    58   30   32 1    
    59   30   86 1    
    60   31   87 1    
    61   31   88 1    
    62   31   89 1    
    63   32   33 2    
    64   32   34 am   BACKBONE|DICT|INTERRES
    65   34   35 1    
    66   34   90 1    
    67   35   36 1    
    68   35   37 1    
    69   35   91 1    
    70   36   92 1    
    71   36   93 1    
    72   36   94 1    
    73   37   38 2    
    74   37   39 am   BACKBONE|DICT|INTERRES
    75   39   40 1    
    76   39   95 1    
    77   40   41 1    
    78   40   42 1    
    79   40   96 1    
    80   41   97 1    
    81   41   98 1    
    82   41   99 1    
    83   42   43 2    
    84   42   44 am   BACKBONE|DICT|INTERRES
    85   44   45 1    
    86   44  100 1    
    87   45   46 1    
    88   45   47 1    
    89   45  101 1    
    90   46  102 1    
    91   46  103 1    
    92   46  104 1    
    93   47   48 2    
    94   47   49 am   BACKBONE|DICT|INTERRES
    95   49   50 1    
    96   49  105 1    
    97   50   51 1    
    98   50   52 1    
    99   50  106 1    
   100   51  107 1    
   101   51  108 1    
   102   51  109 1    
   103   52   53 2    
   104   52   54 am   BACKBONE|DICT|INTERRES
   105   54   55 1    
   106   54  110 1    
   107   55   56 1    
   108   55   59 1    
   109   55  111 1    
   110   56   57 am   BACKBONE|DICT|INTERRES
   111   56   58 2    
   112   57  112 1    
   113   57  113 1    
   114   59   60 1    
   115   59  114 1    
   116   59  115 1    
   117   60   61 1    
   118   61  116 1    
   119   61  117 1    
@<TRIPOS>SUBSTRUCTURE
     1 UNK         1 GROUP             0       ****    0 ROOT    
