@<TRIPOS>MOLECULE
3R8
117   119    1
SMALL
USER_CHARGES


@<TRIPOS>ATOM
      1 CA         15.6078  -22.5656  -42.4526 C.3       0 UNK        -0.2013 
      2 C          15.9973  -23.2859  -43.7348 C.2       0 UNK         0.4866 
      3 O          15.9606  -22.6861  -44.8090 O.2       0 UNK        -0.5176 
      4 N          16.3784  -24.5667  -43.6306 N.am      1 UNK        -0.4884 
      5 CA         16.7751  -25.4201  -44.7624 C.3       1 UNK         0.0853 
      6 C6         16.4662  -26.9151  -44.4708 C.3       10 UNK        -0.0849 
      7 S7         15.8014  -27.7777  -45.9350 S.3       10 UNK        -0.2776 
      8 C8         15.7131  -29.5025  -45.3422 C.3       10 UNK         0.0316 
      9 C9         17.0758  -30.0678  -44.9579 C.ar      10 UNK        -0.0863 
     10 C10        17.2580  -30.6882  -43.7187 C.ar      10 UNK        -0.1009 
     11 C11        18.5105  -31.1884  -43.3469 C.ar      10 UNK        -0.0712 
     12 C12        19.5921  -31.0409  -44.2242 C.ar      10 UNK        -0.0894 
     13 C13        19.4228  -30.4332  -45.4717 C.ar      10 UNK        -0.0745 
     14 C14        18.1561  -29.9703  -45.8381 C.ar      10 UNK        -0.0972 
     15 C15        20.5962  -30.2978  -46.4343 C.3       10 UNK         0.0209 
     16 S16        20.7749  -28.5937  -47.0644 S.3       10 UNK        -0.2568 
     17 C17        22.3928  -28.0755  -46.4028 C.3       10 UNK        -0.0983 
     18 CA         22.3276  -27.2015  -45.1264 C.3       3 UNK         0.0876 
     19 N          21.4006  -26.0660  -45.2393 N.am      3 UNK        -0.4424 
     20 C          21.4108  -24.9972  -44.4315 C.2       2 UNK         0.4918 
     21 O          22.1872  -24.8743  -43.4836 O.2       2 UNK        -0.4875 
     22 CA         20.3667  -23.9000  -44.6890 C.3       2 UNK         0.0481 
     23 CB         20.5626  -23.2292  -46.0637 C.3       2 UNK        -0.1831 
     24 N          18.9818  -24.3414  -44.4782 N.am      2 UNK        -0.4498 
     25 C          18.2432  -25.1938  -45.2072 C.2       1 UNK         0.5027 
     26 O          18.6769  -25.7873  -46.1946 O.2       1 UNK        -0.4969 
     27 C          22.1283  -28.0350  -43.8437 C.2       3 UNK         0.5005 
     28 O          23.0566  -28.7323  -43.4353 O.2       3 UNK        -0.5279 
     29 N          20.9781  -27.8806  -43.1718 N.am      4 UNK        -0.4463 
     30 CA         20.6877  -28.4177  -41.8380 C.3       4 UNK         0.0283 
     31 CB         19.2296  -28.0931  -41.4757 C.3       4 UNK        -0.1875 
     32 C          21.6369  -27.9211  -40.7270 C.2       4 UNK         0.4949 
     33 O          21.7044  -28.5532  -39.6741 O.2       4 UNK        -0.5039 
     34 N          22.3576  -26.8158  -40.9668 N.am      5 UNK        -0.4663 
     35 CA         23.4188  -26.3234  -40.0861 C.3       5 UNK         0.0242 
     36 CB         23.6124  -24.8185  -40.3346 C.3       5 UNK        -0.1982 
     37 C          24.7548  -27.0713  -40.2692 C.2       5 UNK         0.5017 
     38 O          25.6033  -26.9853  -39.3805 O.2       5 UNK        -0.5012 
     39 N          24.9364  -27.7571  -41.4076 N.am      6 UNK        -0.4439 
     40 CA         26.1671  -28.4615  -41.7790 C.3       6 UNK         0.0297 
     41 CB         26.5925  -28.0170  -43.1887 C.3       6 UNK        -0.2006 
     42 C          25.9975  -29.9879  -41.7326 C.2       6 UNK         0.4892 
     43 O          26.9337  -30.6836  -41.3356 O.2       6 UNK        -0.5089 
     44 N          24.8256  -30.4825  -42.1525 N.am      7 UNK        -0.4243 
     45 CA         24.4536  -31.8977  -42.1674 C.3       7 UNK         0.0196 
     46 CB         23.1359  -32.0386  -42.9461 C.3       7 UNK        -0.2007 
     47 C          24.2901  -32.4850  -40.7561 C.2       7 UNK         0.5020 
     48 O          24.0727  -31.7454  -39.7945 O.2       7 UNK        -0.5147 
     49 N          24.3242  -33.8219  -40.6671 N.am      8 UNK        -0.4734 
     50 CA         24.1103  -34.5827  -39.4275 C.3       8 UNK         0.0238 
     51 CB         24.3891  -36.0718  -39.6889 C.3       8 UNK        -0.1912 
     52 C          22.7088  -34.3956  -38.8143 C.2       8 UNK         0.5038 
     53 O          22.5669  -34.4974  -37.5951 O.2       8 UNK        -0.5046 
     54 N          21.7152  -34.1049  -39.6636 N.am      9 UNK        -0.4200 
     55 CA         20.3625  -33.6860  -39.2715 C.3       9 UNK         0.0839 
     56 C          20.2485  -32.1953  -38.8325 C.2       9 UNK         0.5513 
     57 N          21.2975  -31.3879  -38.9224 N.am      9 UNK        -0.7519 
     58 O          19.1800  -31.7638  -38.4075 O.2       9 UNK        -0.4960 
     59 C59        19.3136  -34.0610  -40.3538 C.3       10 UNK        -0.0876 
     60 S60        19.6526  -33.3842  -42.0198 S.3       10 UNK        -0.2414 
     61 C61        18.6800  -31.8413  -41.9781 C.3       10 UNK         0.0169 
     62 H62        15.6917  -23.2114  -41.5787 H         1 UNK         0.0903 
     63 H63        16.2514  -21.7000  -42.2977 H         1 UNK         0.0903 
     64 H64        14.5777  -22.2164  -42.5176 H         1 UNK         0.0903 
     65 H65        16.3887  -25.0070  -42.7205 H         1 UNK         0.3096 
     66 H66        16.1670  -25.1108  -45.6162 H         1 UNK         0.1121 
     67 H67        17.3462  -27.4411  -44.0965 H         1 UNK         0.0849 
     68 H68        15.7114  -27.0093  -43.6882 H         1 UNK         0.0849 
     69 H69        15.0203  -29.5488  -44.5005 H         1 UNK         0.0865 
     70 H70        15.2842  -30.1248  -46.1287 H         1 UNK         0.0865 
     71 H71        16.4232  -30.7750  -43.0366 H         1 UNK         0.1346 
     72 H72        20.5660  -31.4074  -43.9379 H         1 UNK         0.1412 
     73 H73        18.0169  -29.5022  -46.8032 H         1 UNK         0.1426 
     74 H74        21.5221  -30.6274  -45.9613 H         1 UNK         0.0716 
     75 H75        20.4307  -30.9660  -47.2803 H         1 UNK         0.0716 
     76 H76        23.0395  -28.9428  -46.2565 H         1 UNK         0.0695 
     77 H77        22.8759  -27.4974  -47.1919 H         1 UNK         0.0695 
     78 H78        23.3232  -26.7658  -45.0128 H         1 UNK         0.0983 
     79 H79        20.6727  -26.1357  -45.9446 H         1 UNK         0.3095 
     80 H80        20.5384  -23.1287  -43.9365 H         1 UNK         0.0454 
     81 H81        20.4121  -23.9216  -46.8921 H         1 UNK         0.0851 
     82 H82        19.8724  -22.3963  -46.1973 H         1 UNK         0.0851 
     83 H83        21.5729  -22.8293  -46.1589 H         1 UNK         0.0851 
     84 H84        18.5214  -23.9283  -43.6792 H         1 UNK         0.2976 
     85 H85        20.2711  -27.2954  -43.5905 H         1 UNK         0.3116 
     86 H86        20.8018  -29.5015  -41.8915 H         1 UNK         0.0646 
     87 H87        19.0586  -27.0179  -41.4117 H         1 UNK         0.0847 
     88 H88        18.9640  -28.5240  -40.5092 H         1 UNK         0.0847 
     89 H89        18.5359  -28.5017  -42.2091 H         1 UNK         0.0847 
     90 H90        22.2243  -26.3177  -41.8395 H         1 UNK         0.3040 
     91 H91        23.1091  -26.4590  -39.0472 H         1 UNK         0.1015 
     92 H92        22.6864  -24.2665  -40.1726 H         1 UNK         0.0786 
     93 H93        23.9488  -24.6175  -41.3526 H         1 UNK         0.0786 
     94 H94        24.3596  -24.4034  -39.6568 H         1 UNK         0.0786 
     95 H95        24.1616  -27.8335  -42.0579 H         1 UNK         0.3172 
     96 H96        26.9746  -28.2014  -41.0914 H         1 UNK         0.0595 
     97 H97        26.7799  -26.9438  -43.2252 H         1 UNK         0.0839 
     98 H98        25.8318  -28.2496  -43.9352 H         1 UNK         0.0839 
     99 H99        27.5129  -28.5167  -43.4942 H         1 UNK         0.0839 
    100 H100       24.1250  -29.8361  -42.5087 H         1 UNK         0.2998 
    101 H101       25.2396  -32.4494  -42.6871 H         1 UNK         0.0822 
    102 H102       23.2209  -31.6251  -43.9514 H         1 UNK         0.0787 
    103 H103       22.8412  -33.0835  -43.0503 H         1 UNK         0.0787 
    104 H104       22.3236  -31.5176  -42.4372 H         1 UNK         0.0787 
    105 H105       24.4979  -34.3610  -41.5040 H         1 UNK         0.3055 
    106 H106       24.8314  -34.2221  -38.6903 H         1 UNK         0.1106 
    107 H107       24.2621  -36.6581  -38.7775 H         1 UNK         0.0828 
    108 H108       23.7127  -36.4851  -40.4382 H         1 UNK         0.0828 
    109 H109       25.4113  -36.2311  -40.0326 H         1 UNK         0.0828 
    110 H110       21.9265  -34.0344  -40.6476 H         1 UNK         0.2931 
    111 H111       20.0963  -34.2596  -38.3816 H         1 UNK         0.0412 
    112 H112       21.1972  -30.4055  -38.7056 H         1 UNK         0.3472 
    113 H113       22.1989  -31.7180  -39.2489 H         1 UNK         0.3472 
    114 H114       18.3087  -33.7785  -40.0347 H         1 UNK         0.0970 
    115 H115       19.2813  -35.1472  -40.4498 H         1 UNK         0.0970 
    116 H116       19.1621  -31.1306  -41.3081 H         1 UNK         0.0612 
    117 H117       17.7019  -32.0593  -41.5468 H         1 UNK         0.0612 
@<TRIPOS>BOND
     1    1    2 1    
     2    1   62 1    
     3    1   63 1    
     4    1   64 1    
     5    2    3 2    
     6    2    4 am   BACKBONE|DICT|INTERRES
     7    4    5 1    
     8    4   65 1    
     9    5    6 1    
    10    5   25 1    
    11    5   66 1    
    12    6    7 1    
    13    6   67 1    
    14    6   68 1    
    15    7    8 1    
    16    8    9 1    
    17    8   69 1    
    18    8   70 1    
    19    9   10 ar   
    20    9   14 ar   
    21   10   11 ar   
    22   10   71 1    
    23   11   12 ar   
    24   11   61 1    
    25   12   13 ar   
    26   12   72 1    
    27   13   14 ar   
    28   13   15 1    
    29   14   73 1    
    30   15   16 1    
    31   15   74 1    
    32   15   75 1    
    33   16   17 1    
    34   17   18 1    
    35   17   76 1    
    36   17   77 1    
    37   18   19 1    
    38   18   27 1    
    39   18   78 1    
    40   19   20 am   BACKBONE|DICT|INTERRES
    41   19   79 1    
    42   20   21 2    
    43   20   22 1    
    44   22   23 1    
    45   22   24 1    
    46   22   80 1    
    47   23   81 1    
    48   23   82 1    
    49   23   83 1    
    50   24   25 am   BACKBONE|DICT|INTERRES
    51   24   84 1    
    52   25   26 2    
    53   27   28 2    
    54   27   29 am   BACKBONE|DICT|INTERRES
    55   29   30 1    
    56   29   85 1    
    57   30   31 1    
    58   30   32 1    
    59   30   86 1    
    60   31   87 1    
    61   31   88 1    
    62   31   89 1    
    63   32   33 2    
    64   32   34 am   BACKBONE|DICT|INTERRES
    65   34   35 1    
    66   34   90 1    
    67   35   36 1    
    68   35   37 1    
    69   35   91 1    
    70   36   92 1    
    71   36   93 1    
    72   36   94 1    
    73   37   38 2    
    74   37   39 am   BACKBONE|DICT|INTERRES
    75   39   40 1    
    76   39   95 1    
    77   40   41 1    
    78   40   42 1    
    79   40   96 1    
    80   41   97 1    
    81   41   98 1    
    82   41   99 1    
    83   42   43 2    
    84   42   44 am   BACKBONE|DICT|INTERRES
    85   44   45 1    
    86   44  100 1    
    87   45   46 1    
    88   45   47 1    
    89   45  101 1    
    90   46  102 1    
    91   46  103 1    
    92   46  104 1    
    93   47   48 2    
    94   47   49 am   BACKBONE|DICT|INTERRES
    95   49   50 1    
    96   49  105 1    
    97   50   51 1    
    98   50   52 1    
    99   50  106 1    
   100   51  107 1    
   101   51  108 1    
   102   51  109 1    
   103   52   53 2    
   104   52   54 am   BACKBONE|DICT|INTERRES
   105   54   55 1    
   106   54  110 1    
   107   55   56 1    
   108   55   59 1    
   109   55  111 1    
   110   56   57 am   BACKBONE|DICT|INTERRES
   111   56   58 2    
   112   57  112 1    
   113   57  113 1    
   114   59   60 1    
   115   59  114 1    
   116   59  115 1    
   117   60   61 1    
   118   61  116 1    
   119   61  117 1    
@<TRIPOS>SUBSTRUCTURE
     1 UNK         1 GROUP             0       ****    0 ROOT    
