@<TRIPOS>MOLECULE
3R8
117   119    1
SMALL
USER_CHARGES


@<TRIPOS>ATOM
      1 CA         15.1824  -24.6499  -45.9423 C.3       0 UNK        -0.2013 
      2 C          16.5326  -25.1191  -45.4238 C.2       0 UNK         0.4866 
      3 O          16.5890  -25.8144  -44.4103 O.2       0 UNK        -0.5176 
      4 N          17.6232  -24.7265  -46.0982 N.am      1 UNK        -0.4884 
      5 CA         19.0331  -25.0991  -45.8617 C.3       1 UNK         0.0853 
      6 C6         19.2917  -26.6318  -45.8922 C.3       10 UNK        -0.0849 
      7 S7         18.6690  -27.4819  -47.3830 S.3       10 UNK        -0.2776 
      8 C8         17.3877  -28.5842  -46.6837 C.3       10 UNK         0.0316 
      9 C9         17.9158  -29.4926  -45.5762 C.ar      10 UNK        -0.0863 
     10 C10        19.0054  -30.3352  -45.8134 C.ar      10 UNK        -0.1009 
     11 C11        19.5156  -31.1453  -44.7956 C.ar      10 UNK        -0.0712 
     12 C12        18.9072  -31.1289  -43.5371 C.ar      10 UNK        -0.0894 
     13 C13        17.7993  -30.3111  -43.2896 C.ar      10 UNK        -0.0745 
     14 C14        17.3161  -29.4862  -44.3113 C.ar      10 UNK        -0.0972 
     15 C15        17.0990  -30.3510  -41.9347 C.3       10 UNK         0.0209 
     16 S16        18.2063  -29.9606  -40.5396 S.3       10 UNK        -0.2568 
     17 C17        18.3679  -28.1494  -40.6609 C.3       10 UNK        -0.0983 
     18 CA         19.5762  -27.7025  -41.5217 C.3       3 UNK         0.0876 
     19 N          19.4299  -26.3343  -42.0249 N.am      3 UNK        -0.4424 
     20 C          19.3792  -25.1764  -41.3502 C.2       2 UNK         0.4918 
     21 O          19.5060  -25.0903  -40.1284 O.2       2 UNK        -0.4875 
     22 CA         19.1062  -23.8948  -42.1673 C.3       2 UNK         0.0481 
     23 CB         20.2160  -22.8412  -41.9743 C.3       2 UNK        -0.1831 
     24 N          18.8150  -24.1594  -43.5857 N.am      2 UNK        -0.4498 
     25 C          19.6538  -24.5230  -44.5673 C.2       1 UNK         0.5027 
     26 O          20.8787  -24.4979  -44.4615 O.2       1 UNK        -0.4969 
     27 C          20.9424  -27.9671  -40.8558 C.2       3 UNK         0.5005 
     28 O          21.7113  -28.7868  -41.3598 O.2       3 UNK        -0.5279 
     29 N          21.2566  -27.2459  -39.7717 N.am      4 UNK        -0.4463 
     30 CA         22.5172  -27.3388  -39.0252 C.3       4 UNK         0.0283 
     31 CB         22.4402  -26.4458  -37.7779 C.3       4 UNK        -0.1875 
     32 C          23.7532  -26.9820  -39.8695 C.2       4 UNK         0.4949 
     33 O          24.8116  -27.5806  -39.6807 O.2       4 UNK        -0.5039 
     34 N          23.5789  -26.0631  -40.8302 N.am      5 UNK        -0.4663 
     35 CA         24.5827  -25.6923  -41.8334 C.3       5 UNK         0.0242 
     36 CB         24.1123  -24.4257  -42.5653 C.3       5 UNK        -0.1982 
     37 C          24.8929  -26.8155  -42.8437 C.2       5 UNK         0.5017 
     38 O          25.9493  -26.7761  -43.4742 O.2       5 UNK        -0.5012 
     39 N          23.9896  -27.7984  -42.9618 N.am      6 UNK        -0.4439 
     40 CA         24.1369  -29.0125  -43.7644 C.3       6 UNK         0.0297 
     41 CB         22.8893  -29.1680  -44.6529 C.3       6 UNK        -0.2006 
     42 C          24.3646  -30.2421  -42.8608 C.2       6 UNK         0.4892 
     43 O          24.0236  -31.3592  -43.2547 O.2       6 UNK        -0.5089 
     44 N          24.9101  -30.0155  -41.6528 N.am      7 UNK        -0.4243 
     45 CA         25.2359  -31.0020  -40.6129 C.3       7 UNK         0.0196 
     46 CB         26.4085  -31.8957  -41.0697 C.3       7 UNK        -0.2007 
     47 C          24.0222  -31.8226  -40.1327 C.2       7 UNK         0.5020 
     48 O          24.1803  -32.9818  -39.7444 O.2       7 UNK        -0.5147 
     49 N          22.8230  -31.2251  -40.2110 N.am      8 UNK        -0.4734 
     50 CA         21.5121  -31.8225  -39.9302 C.3       8 UNK         0.0238 
     51 CB         21.3580  -32.1241  -38.4252 C.3       8 UNK        -0.1912 
     52 C          21.1754  -33.0368  -40.8204 C.2       8 UNK         0.5038 
     53 O          20.3251  -33.8449  -40.4442 O.2       8 UNK        -0.5046 
     54 N          21.8459  -33.1475  -41.9778 N.am      9 UNK        -0.4200 
     55 CA         21.7969  -34.2881  -42.9060 C.3       9 UNK         0.0839 
     56 C          22.3779  -35.6123  -42.3163 C.2       9 UNK         0.5513 
     57 N          23.1705  -35.5699  -41.2500 N.am      9 UNK        -0.7519 
     58 O          22.1454  -36.6931  -42.8519 O.2       9 UNK        -0.4960 
     59 C59        20.4018  -34.4380  -43.6005 C.3       10 UNK        -0.0876 
     60 S60        20.3652  -33.7606  -45.2971 S.3       10 UNK        -0.2414 
     61 C61        20.7502  -31.9964  -45.0549 C.3       10 UNK         0.0169 
     62 H62        14.6714  -24.0617  -45.1806 H         1 UNK         0.0903 
     63 H63        15.2789  -24.0365  -46.8379 H         1 UNK         0.0903 
     64 H64        14.5576  -25.5088  -46.1856 H         1 UNK         0.0903 
     65 H65        17.4894  -24.1283  -46.9025 H         1 UNK         0.3096 
     66 H66        19.5968  -24.6539  -46.6835 H         1 UNK         0.1121 
     67 H67        18.8666  -27.0993  -45.0043 H         1 UNK         0.0849 
     68 H68        20.3636  -26.8350  -45.8418 H         1 UNK         0.0849 
     69 H69        16.5589  -27.9751  -46.3212 H         1 UNK         0.0865 
     70 H70        16.9816  -29.2041  -47.4841 H         1 UNK         0.0865 
     71 H71        19.4728  -30.3384  -46.7888 H         1 UNK         0.1346 
     72 H72        19.2945  -31.7508  -42.7442 H         1 UNK         0.1412 
     73 H73        16.4677  -28.8413  -44.1242 H         1 UNK         0.1426 
     74 H74        16.2394  -29.6794  -41.9139 H         1 UNK         0.0716 
     75 H75        16.7011  -31.3556  -41.7855 H         1 UNK         0.0716 
     76 H76        18.4285  -27.7344  -39.6533 H         1 UNK         0.0695 
     77 H77        17.4425  -27.7559  -41.0847 H         1 UNK         0.0695 
     78 H78        19.5713  -28.3142  -42.4252 H         1 UNK         0.0983 
     79 H79        19.3086  -26.2665  -43.0231 H         1 UNK         0.3095 
     80 H80        18.1863  -23.4730  -41.7601 H         1 UNK         0.0454 
     81 H81        20.0239  -21.9475  -42.5675 H         1 UNK         0.0851 
     82 H82        21.1995  -23.2224  -42.2477 H         1 UNK         0.0851 
     83 H83        20.2754  -22.5298  -40.9308 H         1 UNK         0.0851 
     84 H84        17.8319  -24.3054  -43.7907 H         1 UNK         0.2976 
     85 H85        20.5957  -26.5273  -39.4869 H         1 UNK         0.3116 
     86 H86        22.6312  -28.3749  -38.6991 H         1 UNK         0.0646 
     87 H87        21.6229  -26.7484  -37.1232 H         1 UNK         0.0847 
     88 H88        23.3603  -26.5088  -37.1950 H         1 UNK         0.0847 
     89 H89        22.2903  -25.3974  -38.0393 H         1 UNK         0.0847 
     90 H90        22.6738  -25.6227  -40.9068 H         1 UNK         0.3040 
     91 H91        25.5137  -25.4627  -41.3101 H         1 UNK         0.1015 
     92 H92        23.1863  -24.5995  -43.1137 H         1 UNK         0.0786 
     93 H93        24.8588  -24.0920  -43.2874 H         1 UNK         0.0786 
     94 H94        23.9447  -23.6019  -41.8712 H         1 UNK         0.0786 
     95 H95        23.1706  -27.7814  -42.3628 H         1 UNK         0.3172 
     96 H96        25.0084  -28.9331  -44.4169 H         1 UNK         0.0595 
     97 H97        21.9896  -29.3392  -44.0604 H         1 UNK         0.0839 
     98 H98        23.0013  -30.0104  -45.3357 H         1 UNK         0.0839 
     99 H99        22.7230  -28.2808  -45.2639 H         1 UNK         0.0839 
    100 H100       25.1036  -29.0543  -41.3998 H         1 UNK         0.2998 
    101 H101       25.5716  -30.4301  -39.7465 H         1 UNK         0.0822 
    102 H102       26.7514  -32.5393  -40.2586 H         1 UNK         0.0787 
    103 H103       26.1226  -32.5432  -41.8995 H         1 UNK         0.0787 
    104 H104       27.2622  -31.2980  -41.3888 H         1 UNK         0.0787 
    105 H105       22.7780  -30.2873  -40.6011 H         1 UNK         0.3055 
    106 H106       20.7804  -31.0597  -40.1884 H         1 UNK         0.1106 
    107 H107       20.3364  -32.4245  -38.1892 H         1 UNK         0.0828 
    108 H108       22.0166  -32.9315  -38.1042 H         1 UNK         0.0828 
    109 H109       21.5819  -31.2455  -37.8205 H         1 UNK         0.0828 
    110 H110       22.5445  -32.4463  -42.1994 H         1 UNK         0.2931 
    111 H111       22.5282  -34.0368  -43.6750 H         1 UNK         0.0412 
    112 H112       23.5521  -36.4287  -40.8863 H         1 UNK         0.3472 
    113 H113       23.3981  -34.6888  -40.8045 H         1 UNK         0.3472 
    114 H114       19.6021  -33.9828  -43.0179 H         1 UNK         0.0970 
    115 H115       20.1049  -35.4839  -43.6880 H         1 UNK         0.0970 
    116 H116       21.2560  -31.6454  -45.9553 H         1 UNK         0.0612 
    117 H117       21.4682  -31.8590  -44.2492 H         1 UNK         0.0612 
@<TRIPOS>BOND
     1    1    2 1    
     2    1   62 1    
     3    1   63 1    
     4    1   64 1    
     5    2    3 2    
     6    2    4 am   BACKBONE|DICT|INTERRES
     7    4    5 1    
     8    4   65 1    
     9    5    6 1    
    10    5   25 1    
    11    5   66 1    
    12    6    7 1    
    13    6   67 1    
    14    6   68 1    
    15    7    8 1    
    16    8    9 1    
    17    8   69 1    
    18    8   70 1    
    19    9   10 ar   
    20    9   14 ar   
    21   10   11 ar   
    22   10   71 1    
    23   11   12 ar   
    24   11   61 1    
    25   12   13 ar   
    26   12   72 1    
    27   13   14 ar   
    28   13   15 1    
    29   14   73 1    
    30   15   16 1    
    31   15   74 1    
    32   15   75 1    
    33   16   17 1    
    34   17   18 1    
    35   17   76 1    
    36   17   77 1    
    37   18   19 1    
    38   18   27 1    
    39   18   78 1    
    40   19   20 am   BACKBONE|DICT|INTERRES
    41   19   79 1    
    42   20   21 2    
    43   20   22 1    
    44   22   23 1    
    45   22   24 1    
    46   22   80 1    
    47   23   81 1    
    48   23   82 1    
    49   23   83 1    
    50   24   25 am   BACKBONE|DICT|INTERRES
    51   24   84 1    
    52   25   26 2    
    53   27   28 2    
    54   27   29 am   BACKBONE|DICT|INTERRES
    55   29   30 1    
    56   29   85 1    
    57   30   31 1    
    58   30   32 1    
    59   30   86 1    
    60   31   87 1    
    61   31   88 1    
    62   31   89 1    
    63   32   33 2    
    64   32   34 am   BACKBONE|DICT|INTERRES
    65   34   35 1    
    66   34   90 1    
    67   35   36 1    
    68   35   37 1    
    69   35   91 1    
    70   36   92 1    
    71   36   93 1    
    72   36   94 1    
    73   37   38 2    
    74   37   39 am   BACKBONE|DICT|INTERRES
    75   39   40 1    
    76   39   95 1    
    77   40   41 1    
    78   40   42 1    
    79   40   96 1    
    80   41   97 1    
    81   41   98 1    
    82   41   99 1    
    83   42   43 2    
    84   42   44 am   BACKBONE|DICT|INTERRES
    85   44   45 1    
    86   44  100 1    
    87   45   46 1    
    88   45   47 1    
    89   45  101 1    
    90   46  102 1    
    91   46  103 1    
    92   46  104 1    
    93   47   48 2    
    94   47   49 am   BACKBONE|DICT|INTERRES
    95   49   50 1    
    96   49  105 1    
    97   50   51 1    
    98   50   52 1    
    99   50  106 1    
   100   51  107 1    
   101   51  108 1    
   102   51  109 1    
   103   52   53 2    
   104   52   54 am   BACKBONE|DICT|INTERRES
   105   54   55 1    
   106   54  110 1    
   107   55   56 1    
   108   55   59 1    
   109   55  111 1    
   110   56   57 am   BACKBONE|DICT|INTERRES
   111   56   58 2    
   112   57  112 1    
   113   57  113 1    
   114   59   60 1    
   115   59  114 1    
   116   59  115 1    
   117   60   61 1    
   118   61  116 1    
   119   61  117 1    
@<TRIPOS>SUBSTRUCTURE
     1 UNK         1 GROUP             0       ****    0 ROOT    
