@<TRIPOS>MOLECULE
3R8
117   119    1
SMALL
USER_CHARGES


@<TRIPOS>ATOM
      1 CA         19.3067  -28.4230  -49.3590 C.3       0 UNK        -0.2013 
      2 C          18.7393  -27.6168  -48.2003 C.2       0 UNK         0.4866 
      3 O          18.4586  -26.4296  -48.3651 O.2       0 UNK        -0.5176 
      4 N          18.5774  -28.2566  -47.0332 N.am      1 UNK        -0.4884 
      5 CA         18.0332  -27.6879  -45.7889 C.3       1 UNK         0.0853 
      6 C6         16.5323  -27.2926  -45.8791 C.3       10 UNK        -0.0849 
      7 S7         15.4653  -28.7188  -46.2697 S.3       10 UNK        -0.2776 
      8 C8         14.7725  -29.1151  -44.6274 C.3       10 UNK         0.0316 
      9 C9         15.8307  -29.5616  -43.6226 C.ar      10 UNK        -0.0863 
     10 C10        16.6746  -30.6355  -43.9184 C.ar      10 UNK        -0.1009 
     11 C11        17.6322  -31.0651  -42.9966 C.ar      10 UNK        -0.0712 
     12 C12        17.7269  -30.4315  -41.7536 C.ar      10 UNK        -0.0894 
     13 C13        16.8763  -29.3664  -41.4343 C.ar      10 UNK        -0.0745 
     14 C14        15.9406  -28.9287  -42.3794 C.ar      10 UNK        -0.0972 
     15 C15        16.9096  -28.7323  -40.0462 C.3       10 UNK         0.0209 
     16 S16        18.5513  -28.1125  -39.5546 S.3       10 UNK        -0.2568 
     17 C17        18.7699  -26.6858  -40.6678 C.3       10 UNK        -0.0983 
     18 CA         20.2453  -26.5560  -41.1232 C.3       3 UNK         0.0876 
     19 N          20.3416  -26.1122  -42.5115 N.am      3 UNK        -0.4424 
     20 C          21.4474  -26.1350  -43.2640 C.2       2 UNK         0.4918 
     21 O          22.5587  -26.4431  -42.8317 O.2       2 UNK        -0.4875 
     22 CA         21.2546  -25.8100  -44.7600 C.3       2 UNK         0.0481 
     23 CB         22.5637  -25.9335  -45.5614 C.3       2 UNK        -0.1831 
     24 N          20.2398  -26.6809  -45.3658 N.am      2 UNK        -0.4498 
     25 C          18.9127  -26.5581  -45.2100 C.2       1 UNK         0.5027 
     26 O          18.3961  -25.6261  -44.5886 O.2       1 UNK        -0.4969 
     27 C          21.0870  -25.6879  -40.1654 C.2       3 UNK         0.5005 
     28 O          21.4298  -24.5481  -40.4919 O.2       3 UNK        -0.5279 
     29 N          21.4412  -26.2721  -39.0132 N.am      4 UNK        -0.4463 
     30 CA         22.3851  -25.7965  -37.9906 C.3       4 UNK         0.0283 
     31 CB         21.9783  -24.4297  -37.4058 C.3       4 UNK        -0.1875 
     32 C          23.8505  -25.7963  -38.4650 C.2       4 UNK         0.4949 
     33 O          24.7129  -26.2875  -37.7374 O.2       4 UNK        -0.5039 
     34 N          24.1065  -25.2843  -39.6760 N.am      5 UNK        -0.4663 
     35 CA         25.4060  -25.3291  -40.3498 C.3       5 UNK         0.0242 
     36 CB         25.4012  -24.3585  -41.5425 C.3       5 UNK        -0.1982 
     37 C          25.7683  -26.7538  -40.8006 C.2       5 UNK         0.5017 
     38 O          26.8821  -27.2094  -40.5399 O.2       5 UNK        -0.5012 
     39 N          24.8121  -27.4319  -41.4452 N.am      6 UNK        -0.4439 
     40 CA         24.9105  -28.8071  -41.9202 C.3       6 UNK         0.0297 
     41 CB         25.3856  -28.8153  -43.3860 C.3       6 UNK        -0.2006 
     42 C          23.5486  -29.4865  -41.7231 C.2       6 UNK         0.4892 
     43 O          22.8962  -29.8630  -42.6965 O.2       6 UNK        -0.5089 
     44 N          23.1356  -29.6129  -40.4524 N.am      7 UNK        -0.4243 
     45 CA         21.8894  -30.2716  -40.0371 C.3       7 UNK         0.0196 
     46 CB         21.6724  -30.0509  -38.5314 C.3       7 UNK        -0.2007 
     47 C          21.8495  -31.7754  -40.3620 C.2       7 UNK         0.5020 
     48 O          20.7701  -32.3189  -40.5937 O.2       7 UNK        -0.5147 
     49 N          23.0225  -32.4200  -40.3927 N.am      8 UNK        -0.4734 
     50 CA         23.2074  -33.7966  -40.8474 C.3       8 UNK         0.0238 
     51 CB         24.4484  -34.3896  -40.1535 C.3       8 UNK        -0.1912 
     52 C          23.3178  -33.8207  -42.3821 C.2       8 UNK         0.5038 
     53 O          24.4196  -33.9737  -42.9139 O.2       8 UNK        -0.5046 
     54 N          22.1790  -33.6163  -43.0566 N.am      9 UNK        -0.4200 
     55 CA         22.0401  -33.5974  -44.5211 C.3       9 UNK         0.0839 
     56 C          22.5243  -34.9102  -45.1981 C.2       9 UNK         0.5513 
     57 N          23.1793  -34.8119  -46.3467 N.am      9 UNK        -0.7519 
     58 O          22.2662  -36.0118  -44.7166 O.2       9 UNK        -0.4960 
     59 C59        20.5830  -33.2925  -44.9547 C.3       10 UNK        -0.0876 
     60 S60        19.9571  -31.6885  -44.3469 S.3       10 UNK        -0.2414 
     61 C61        18.5386  -32.2330  -43.3468 C.3       10 UNK         0.0169 
     62 H62        19.5130  -29.4554  -49.0773 H         1 UNK         0.0903 
     63 H63        18.6006  -28.4335  -50.1889 H         1 UNK         0.0903 
     64 H64        20.2364  -27.9746  -49.7084 H         1 UNK         0.0903 
     65 H65        18.8233  -29.2357  -46.9780 H         1 UNK         0.3096 
     66 H66        18.1100  -28.4841  -45.0473 H         1 UNK         0.1121 
     67 H67        16.3809  -26.5246  -46.6391 H         1 UNK         0.0849 
     68 H68        16.1852  -26.8550  -44.9412 H         1 UNK         0.0849 
     69 H69        14.2207  -28.2498  -44.2567 H         1 UNK         0.0865 
     70 H70        14.0405  -29.9158  -44.7409 H         1 UNK         0.0865 
     71 H71        16.5910  -31.1345  -44.8746 H         1 UNK         0.1346 
     72 H72        18.4521  -30.7773  -41.0290 H         1 UNK         0.1412 
     73 H73        15.2750  -28.1120  -42.1346 H         1 UNK         0.1426 
     74 H74        16.5925  -29.4810  -39.3191 H         1 UNK         0.0716 
     75 H75        16.1914  -27.9141  -39.9722 H         1 UNK         0.0716 
     76 H76        18.4076  -25.7789  -40.1793 H         1 UNK         0.0695 
     77 H77        18.1197  -26.8344  -41.5317 H         1 UNK         0.0695 
     78 H78        20.6993  -27.5491  -41.1261 H         1 UNK         0.0983 
     79 H79        19.4814  -25.8153  -42.9597 H         1 UNK         0.3095 
     80 H80        20.9182  -24.7735  -44.8281 H         1 UNK         0.0454 
     81 H81        22.9612  -26.9488  -45.5315 H         1 UNK         0.0851 
     82 H82        23.3317  -25.2717  -45.1588 H         1 UNK         0.0851 
     83 H83        22.4175  -25.6596  -46.6062 H         1 UNK         0.0851 
     84 H84        20.5817  -27.4869  -45.8693 H         1 UNK         0.2976 
     85 H85        21.0659  -27.1945  -38.8397 H         1 UNK         0.3116 
     86 H86        22.3210  -26.5236  -37.1792 H         1 UNK         0.0646 
     87 H87        22.0652  -23.6247  -38.1357 H         1 UNK         0.0847 
     88 H88        22.6172  -24.1660  -36.5620 H         1 UNK         0.0847 
     89 H89        20.9510  -24.4436  -37.0422 H         1 UNK         0.0847 
     90 H90        23.3221  -24.8943  -40.1921 H         1 UNK         0.3040 
     91 H91        26.1705  -24.9991  -39.6425 H         1 UNK         0.1015 
     92 H92        24.6310  -24.6132  -42.2719 H         1 UNK         0.0786 
     93 H93        26.3605  -24.3737  -42.0616 H         1 UNK         0.0786 
     94 H94        25.2258  -23.3331  -41.2165 H         1 UNK         0.0786 
     95 H95        23.9409  -26.9595  -41.6826 H         1 UNK         0.3172 
     96 H96        25.6346  -29.3607  -41.3187 H         1 UNK         0.0595 
     97 H97        25.4475  -29.8338  -43.7713 H         1 UNK         0.0839 
     98 H98        26.3751  -28.3692  -43.4847 H         1 UNK         0.0839 
     99 H99        24.7023  -28.2610  -44.0309 H         1 UNK         0.0839 
    100 H100       23.7348  -29.2640  -39.7176 H         1 UNK         0.2998 
    101 H101       21.0650  -29.8069  -40.5810 H         1 UNK         0.0822 
    102 H102       20.7205  -30.4776  -38.2111 H         1 UNK         0.0787 
    103 H103       22.4564  -30.5221  -37.9372 H         1 UNK         0.0787 
    104 H104       21.6515  -28.9933  -38.2757 H         1 UNK         0.0787 
    105 H105       23.8613  -31.8883  -40.2118 H         1 UNK         0.3055 
    106 H106       22.3431  -34.4013  -40.5616 H         1 UNK         0.1106 
    107 H107       24.6212  -35.4167  -40.4778 H         1 UNK         0.0828 
    108 H108       25.3521  -33.8210  -40.3765 H         1 UNK         0.0828 
    109 H109       24.3244  -34.4097  -39.0707 H         1 UNK         0.0828 
    110 H110       21.3392  -33.4241  -42.5271 H         1 UNK         0.2931 
    111 H111       22.6736  -32.7822  -44.8770 H         1 UNK         0.0412 
    112 H112       23.3857  -33.9126  -46.7538 H         1 UNK         0.3472 
    113 H113       23.4862  -35.6532  -46.8104 H         1 UNK         0.3472 
    114 H114       19.9196  -34.0978  -44.6334 H         1 UNK         0.0970 
    115 H115       20.5125  -33.2688  -46.0440 H         1 UNK         0.0970 
    116 H116       18.8958  -32.7294  -42.4441 H         1 UNK         0.0612 
    117 H117       17.9639  -32.9766  -43.9013 H         1 UNK         0.0612 
@<TRIPOS>BOND
     1    1    2 1    
     2    1   62 1    
     3    1   63 1    
     4    1   64 1    
     5    2    3 2    
     6    2    4 am   BACKBONE|DICT|INTERRES
     7    4    5 1    
     8    4   65 1    
     9    5    6 1    
    10    5   25 1    
    11    5   66 1    
    12    6    7 1    
    13    6   67 1    
    14    6   68 1    
    15    7    8 1    
    16    8    9 1    
    17    8   69 1    
    18    8   70 1    
    19    9   10 ar   
    20    9   14 ar   
    21   10   11 ar   
    22   10   71 1    
    23   11   12 ar   
    24   11   61 1    
    25   12   13 ar   
    26   12   72 1    
    27   13   14 ar   
    28   13   15 1    
    29   14   73 1    
    30   15   16 1    
    31   15   74 1    
    32   15   75 1    
    33   16   17 1    
    34   17   18 1    
    35   17   76 1    
    36   17   77 1    
    37   18   19 1    
    38   18   27 1    
    39   18   78 1    
    40   19   20 am   BACKBONE|DICT|INTERRES
    41   19   79 1    
    42   20   21 2    
    43   20   22 1    
    44   22   23 1    
    45   22   24 1    
    46   22   80 1    
    47   23   81 1    
    48   23   82 1    
    49   23   83 1    
    50   24   25 am   BACKBONE|DICT|INTERRES
    51   24   84 1    
    52   25   26 2    
    53   27   28 2    
    54   27   29 am   BACKBONE|DICT|INTERRES
    55   29   30 1    
    56   29   85 1    
    57   30   31 1    
    58   30   32 1    
    59   30   86 1    
    60   31   87 1    
    61   31   88 1    
    62   31   89 1    
    63   32   33 2    
    64   32   34 am   BACKBONE|DICT|INTERRES
    65   34   35 1    
    66   34   90 1    
    67   35   36 1    
    68   35   37 1    
    69   35   91 1    
    70   36   92 1    
    71   36   93 1    
    72   36   94 1    
    73   37   38 2    
    74   37   39 am   BACKBONE|DICT|INTERRES
    75   39   40 1    
    76   39   95 1    
    77   40   41 1    
    78   40   42 1    
    79   40   96 1    
    80   41   97 1    
    81   41   98 1    
    82   41   99 1    
    83   42   43 2    
    84   42   44 am   BACKBONE|DICT|INTERRES
    85   44   45 1    
    86   44  100 1    
    87   45   46 1    
    88   45   47 1    
    89   45  101 1    
    90   46  102 1    
    91   46  103 1    
    92   46  104 1    
    93   47   48 2    
    94   47   49 am   BACKBONE|DICT|INTERRES
    95   49   50 1    
    96   49  105 1    
    97   50   51 1    
    98   50   52 1    
    99   50  106 1    
   100   51  107 1    
   101   51  108 1    
   102   51  109 1    
   103   52   53 2    
   104   52   54 am   BACKBONE|DICT|INTERRES
   105   54   55 1    
   106   54  110 1    
   107   55   56 1    
   108   55   59 1    
   109   55  111 1    
   110   56   57 am   BACKBONE|DICT|INTERRES
   111   56   58 2    
   112   57  112 1    
   113   57  113 1    
   114   59   60 1    
   115   59  114 1    
   116   59  115 1    
   117   60   61 1    
   118   61  116 1    
   119   61  117 1    
@<TRIPOS>SUBSTRUCTURE
     1 UNK         1 GROUP             0       ****    0 ROOT    
