@<TRIPOS>MOLECULE
3R8
117   119    1
SMALL
USER_CHARGES


@<TRIPOS>ATOM
      1 CA         14.0628  -24.8879  -44.8655 C.3       0 UNK        -0.2013 
      2 C          15.4500  -25.5117  -44.8553 C.2       0 UNK         0.4866 
      3 O          15.7550  -26.3456  -45.7096 O.2       0 UNK        -0.5176 
      4 N          16.2988  -25.1157  -43.8979 N.am      1 UNK        -0.4884 
      5 CA         17.6735  -25.5992  -43.7357 C.3       1 UNK         0.0853 
      6 C6         18.1894  -25.3980  -42.2850 C.3       10 UNK        -0.0849 
      7 S7         17.4889  -26.6236  -41.1273 S.3       10 UNK        -0.2776 
      8 C8         18.9741  -27.5624  -40.6214 C.3       10 UNK         0.0316 
      9 C9         19.2875  -28.7385  -41.5431 C.ar      10 UNK        -0.0863 
     10 C10        19.2759  -30.0429  -41.0402 C.ar      10 UNK        -0.1009 
     11 C11        19.6087  -31.1291  -41.8552 C.ar      10 UNK        -0.0712 
     12 C12        19.9338  -30.9010  -43.1991 C.ar      10 UNK        -0.0894 
     13 C13        19.9227  -29.6065  -43.7255 C.ar      10 UNK        -0.0745 
     14 C14        19.6265  -28.5316  -42.8833 C.ar      10 UNK        -0.0972 
     15 C15        20.1577  -29.3746  -45.2148 C.3       10 UNK         0.0209 
     16 S16        21.9165  -29.3080  -45.6939 S.3       10 UNK        -0.2568 
     17 C17        22.5334  -27.8142  -44.8487 C.3       10 UNK        -0.0983 
     18 CA         22.5231  -26.5337  -45.7222 C.3       3 UNK         0.0876 
     19 N          21.1643  -26.1965  -46.1549 N.am      3 UNK        -0.4424 
     20 C          20.8187  -25.2466  -47.0334 C.2       2 UNK         0.4918 
     21 O          21.6281  -24.5847  -47.6826 O.2       2 UNK        -0.4875 
     22 CA         19.3087  -24.9670  -47.1893 C.3       2 UNK         0.0481 
     23 CB         18.7723  -25.6373  -48.4637 C.3       2 UNK        -0.1831 
     24 N          18.4850  -25.3860  -46.0444 N.am      2 UNK        -0.4498 
     25 C          18.6159  -24.9602  -44.7794 C.2       1 UNK         0.5027 
     26 O          19.4608  -24.1347  -44.4273 O.2       1 UNK        -0.4969 
     27 C          23.2084  -25.3869  -44.9416 C.2       3 UNK         0.5005 
     28 O          24.4386  -25.3574  -44.8926 O.2       3 UNK        -0.5279 
     29 N          22.4140  -24.4972  -44.3177 N.am      4 UNK        -0.4463 
     30 CA         22.8201  -23.3980  -43.4272 C.3       4 UNK         0.0283 
     31 CB         23.6838  -22.3605  -44.1752 C.3       4 UNK        -0.1875 
     32 C          23.4669  -23.8616  -42.1026 C.2       4 UNK         0.4949 
     33 O          24.0951  -23.0554  -41.4152 O.2       4 UNK        -0.5039 
     34 N          23.2801  -25.1378  -41.7522 N.am      5 UNK        -0.4663 
     35 CA         23.7576  -25.8130  -40.5501 C.3       5 UNK         0.0242 
     36 CB         25.2737  -26.0703  -40.6482 C.3       5 UNK        -0.1982 
     37 C          22.9895  -27.1349  -40.4358 C.2       5 UNK         0.5017 
     38 O          22.4258  -27.5923  -41.4323 O.2       5 UNK        -0.5012 
     39 N          22.9831  -27.7369  -39.2410 N.am      6 UNK        -0.4439 
     40 CA         22.3603  -29.0357  -38.9762 C.3       6 UNK         0.0297 
     41 CB         22.0923  -29.1715  -37.4666 C.3       6 UNK        -0.2006 
     42 C          23.2379  -30.1778  -39.5176 C.2       6 UNK         0.4892 
     43 O          24.0318  -30.7491  -38.7675 O.2       6 UNK        -0.5089 
     44 N          23.1035  -30.4732  -40.8166 N.am      7 UNK        -0.4243 
     45 CA         23.9116  -31.4378  -41.5740 C.3       7 UNK         0.0196 
     46 CB         23.8098  -31.0937  -43.0700 C.3       7 UNK        -0.2007 
     47 C          23.5758  -32.9180  -41.2843 C.2       7 UNK         0.5020 
     48 O          23.4265  -33.7101  -42.2167 O.2       7 UNK        -0.5147 
     49 N          23.4771  -33.2667  -39.9952 N.am      8 UNK        -0.4734 
     50 CA         23.2333  -34.5855  -39.3946 C.3       8 UNK         0.0238 
     51 CB         24.3793  -35.5667  -39.7134 C.3       8 UNK        -0.1912 
     52 C          21.8616  -35.2086  -39.7104 C.2       8 UNK         0.5038 
     53 O          21.1135  -35.4996  -38.7767 O.2       8 UNK        -0.5046 
     54 N          21.5667  -35.4197  -41.0001 N.am      9 UNK        -0.4200 
     55 CA         20.3718  -36.1071  -41.5269 C.3       9 UNK         0.0839 
     56 C          20.2532  -37.6053  -41.1014 C.2       9 UNK         0.5513 
     57 N          21.3424  -38.2730  -40.7386 N.am      9 UNK        -0.7519 
     58 O          19.1712  -38.1867  -41.1299 O.2       9 UNK        -0.4960 
     59 C59        19.0612  -35.2957  -41.3001 C.3       10 UNK        -0.0876 
     60 S60        18.9692  -33.8124  -42.3565 S.3       10 UNK        -0.2414 
     61 C61        19.6405  -32.5300  -41.2517 C.3       10 UNK         0.0169 
     62 H62        13.3032  -25.6623  -44.7626 H         1 UNK         0.0903 
     63 H63        13.9305  -24.1732  -44.0534 H         1 UNK         0.0903 
     64 H64        13.8930  -24.3669  -45.8074 H         1 UNK         0.0903 
     65 H65        15.9996  -24.4202  -43.2287 H         1 UNK         0.3096 
     66 H66        17.6690  -26.6716  -43.9421 H         1 UNK         0.1121 
     67 H67        19.2777  -25.4642  -42.2363 H         1 UNK         0.0849 
     68 H68        17.9485  -24.3957  -41.9264 H         1 UNK         0.0849 
     69 H69        19.8412  -26.9041  -40.5590 H         1 UNK         0.0865 
     70 H70        18.8083  -27.9199  -39.6040 H         1 UNK         0.0865 
     71 H71        19.0270  -30.2129  -40.0015 H         1 UNK         0.1346 
     72 H72        20.1840  -31.7322  -43.8437 H         1 UNK         0.1412 
     73 H73        19.6614  -27.5294  -43.2748 H         1 UNK         0.1426 
     74 H74        19.6529  -28.4656  -45.5412 H         1 UNK         0.0716 
     75 H75        19.6868  -30.1834  -45.7756 H         1 UNK         0.0716 
     76 H76        23.5521  -28.0382  -44.5264 H         1 UNK         0.0695 
     77 H77        21.9666  -27.6572  -43.9339 H         1 UNK         0.0695 
     78 H78        23.1213  -26.7160  -46.6176 H         1 UNK         0.0983 
     79 H79        20.4219  -26.7108  -45.7112 H         1 UNK         0.3095 
     80 H80        19.1905  -23.8870  -47.2958 H         1 UNK         0.0454 
     81 H81        19.3394  -25.3217  -49.3407 H         1 UNK         0.0851 
     82 H82        17.7300  -25.3732  -48.6434 H         1 UNK         0.0851 
     83 H83        18.8386  -26.7245  -48.4068 H         1 UNK         0.0851 
     84 H84        17.7037  -26.0040  -46.2431 H         1 UNK         0.2976 
     85 H85        21.4093  -24.5807  -44.4429 H         1 UNK         0.3116 
     86 H86        21.8927  -22.8997  -43.1411 H         1 UNK         0.0646 
     87 H87        24.6701  -22.7542  -44.4216 H         1 UNK         0.0847 
     88 H88        23.8363  -21.4677  -43.5677 H         1 UNK         0.0847 
     89 H89        23.2074  -22.0418  -45.1023 H         1 UNK         0.0847 
     90 H90        22.7278  -25.7398  -42.3507 H         1 UNK         0.3040 
     91 H91        23.5338  -25.1939  -39.6788 H         1 UNK         0.1015 
     92 H92        25.5208  -26.6737  -41.5229 H         1 UNK         0.0786 
     93 H93        25.6426  -26.6007  -39.7695 H         1 UNK         0.0786 
     94 H94        25.8343  -25.1380  -40.7179 H         1 UNK         0.0786 
     95 H95        23.4998  -27.3199  -38.4797 H         1 UNK         0.3172 
     96 H96        21.3966  -29.0776  -39.4846 H         1 UNK         0.0595 
     97 H97        23.0095  -29.0998  -36.8807 H         1 UNK         0.0839 
     98 H98        21.6350  -30.1353  -37.2384 H         1 UNK         0.0839 
     99 H99        21.4085  -28.3989  -37.1146 H         1 UNK         0.0839 
    100 H100       22.4466  -29.9199  -41.3543 H         1 UNK         0.2998 
    101 H101       24.9544  -31.2991  -41.2808 H         1 UNK         0.0822 
    102 H102       24.1002  -30.0607  -43.2595 H         1 UNK         0.0787 
    103 H103       24.4667  -31.7271  -43.6675 H         1 UNK         0.0787 
    104 H104       22.7952  -31.2313  -43.4438 H         1 UNK         0.0787 
    105 H105       23.6259  -32.5115  -39.3291 H         1 UNK         0.3055 
    106 H106       23.2486  -34.4180  -38.3160 H         1 UNK         0.1106 
    107 H107       24.2278  -36.5209  -39.2069 H         1 UNK         0.0828 
    108 H108       24.4602  -35.7749  -40.7805 H         1 UNK         0.0828 
    109 H109       25.3391  -35.1737  -39.3779 H         1 UNK         0.0828 
    110 H110       22.2316  -35.0753  -41.6878 H         1 UNK         0.2931 
    111 H111       20.5306  -36.1621  -42.6045 H         1 UNK         0.0412 
    112 H112       22.2418  -37.8198  -40.7322 H         1 UNK         0.3472 
    113 H113       21.2623  -39.2430  -40.4759 H         1 UNK         0.3472 
    114 H114       18.1847  -35.8931  -41.5559 H         1 UNK         0.0970 
    115 H115       18.9344  -35.0267  -40.2508 H         1 UNK         0.0970 
    116 H116       20.6722  -32.7707  -41.0034 H         1 UNK         0.0612 
    117 H117       19.0791  -32.5528  -40.3164 H         1 UNK         0.0612 
@<TRIPOS>BOND
     1    1    2 1    
     2    1   62 1    
     3    1   63 1    
     4    1   64 1    
     5    2    3 2    
     6    2    4 am   BACKBONE|DICT|INTERRES
     7    4    5 1    
     8    4   65 1    
     9    5    6 1    
    10    5   25 1    
    11    5   66 1    
    12    6    7 1    
    13    6   67 1    
    14    6   68 1    
    15    7    8 1    
    16    8    9 1    
    17    8   69 1    
    18    8   70 1    
    19    9   10 ar   
    20    9   14 ar   
    21   10   11 ar   
    22   10   71 1    
    23   11   12 ar   
    24   11   61 1    
    25   12   13 ar   
    26   12   72 1    
    27   13   14 ar   
    28   13   15 1    
    29   14   73 1    
    30   15   16 1    
    31   15   74 1    
    32   15   75 1    
    33   16   17 1    
    34   17   18 1    
    35   17   76 1    
    36   17   77 1    
    37   18   19 1    
    38   18   27 1    
    39   18   78 1    
    40   19   20 am   BACKBONE|DICT|INTERRES
    41   19   79 1    
    42   20   21 2    
    43   20   22 1    
    44   22   23 1    
    45   22   24 1    
    46   22   80 1    
    47   23   81 1    
    48   23   82 1    
    49   23   83 1    
    50   24   25 am   BACKBONE|DICT|INTERRES
    51   24   84 1    
    52   25   26 2    
    53   27   28 2    
    54   27   29 am   BACKBONE|DICT|INTERRES
    55   29   30 1    
    56   29   85 1    
    57   30   31 1    
    58   30   32 1    
    59   30   86 1    
    60   31   87 1    
    61   31   88 1    
    62   31   89 1    
    63   32   33 2    
    64   32   34 am   BACKBONE|DICT|INTERRES
    65   34   35 1    
    66   34   90 1    
    67   35   36 1    
    68   35   37 1    
    69   35   91 1    
    70   36   92 1    
    71   36   93 1    
    72   36   94 1    
    73   37   38 2    
    74   37   39 am   BACKBONE|DICT|INTERRES
    75   39   40 1    
    76   39   95 1    
    77   40   41 1    
    78   40   42 1    
    79   40   96 1    
    80   41   97 1    
    81   41   98 1    
    82   41   99 1    
    83   42   43 2    
    84   42   44 am   BACKBONE|DICT|INTERRES
    85   44   45 1    
    86   44  100 1    
    87   45   46 1    
    88   45   47 1    
    89   45  101 1    
    90   46  102 1    
    91   46  103 1    
    92   46  104 1    
    93   47   48 2    
    94   47   49 am   BACKBONE|DICT|INTERRES
    95   49   50 1    
    96   49  105 1    
    97   50   51 1    
    98   50   52 1    
    99   50  106 1    
   100   51  107 1    
   101   51  108 1    
   102   51  109 1    
   103   52   53 2    
   104   52   54 am   BACKBONE|DICT|INTERRES
   105   54   55 1    
   106   54  110 1    
   107   55   56 1    
   108   55   59 1    
   109   55  111 1    
   110   56   57 am   BACKBONE|DICT|INTERRES
   111   56   58 2    
   112   57  112 1    
   113   57  113 1    
   114   59   60 1    
   115   59  114 1    
   116   59  115 1    
   117   60   61 1    
   118   61  116 1    
   119   61  117 1    
@<TRIPOS>SUBSTRUCTURE
     1 UNK         1 GROUP             0       ****    0 ROOT    
