@<TRIPOS>MOLECULE
3R8
117   119    1
SMALL
USER_CHARGES


@<TRIPOS>ATOM
      1 CA         18.0868  -30.8224  -40.6813 C.3       0 UNK        -0.2013 
      2 C          17.8706  -29.3315  -40.8567 C.2       0 UNK         0.4866 
      3 O          17.2708  -28.6929  -39.9907 O.2       0 UNK        -0.5176 
      4 N          18.3487  -28.7816  -41.9764 N.am      1 UNK        -0.4884 
      5 CA         18.2499  -27.3636  -42.3290 C.3       1 UNK         0.0853 
      6 C6         17.3120  -27.1071  -43.5455 C.3       10 UNK        -0.0849 
      7 S7         15.7140  -27.9990  -43.4617 S.3       10 UNK        -0.2776 
      8 C8         15.7397  -29.0425  -44.9613 C.3       10 UNK         0.0316 
      9 C9         16.9342  -29.9885  -45.0149 C.ar      10 UNK        -0.0863 
     10 C10        16.9234  -31.1997  -44.3124 C.ar      10 UNK        -0.1009 
     11 C11        18.0238  -32.0646  -44.3677 C.ar      10 UNK        -0.0712 
     12 C12        19.1355  -31.7048  -45.1394 C.ar      10 UNK        -0.0894 
     13 C13        19.1686  -30.4858  -45.8196 C.ar      10 UNK        -0.0745 
     14 C14        18.0554  -29.6462  -45.7763 C.ar      10 UNK        -0.0972 
     15 C15        20.4335  -30.0393  -46.5338 C.3       10 UNK         0.0209 
     16 S16        21.6161  -29.4303  -45.2987 S.3       10 UNK        -0.2568 
     17 C17        22.7616  -28.4075  -46.2770 C.3       10 UNK        -0.0983 
     18 CA         22.3920  -26.8980  -46.2990 C.3       3 UNK         0.0876 
     19 N          21.9361  -26.3950  -44.9943 N.am      3 UNK        -0.4424 
     20 C          21.3527  -25.2090  -44.7829 C.2       2 UNK         0.4918 
     21 O          21.0611  -24.4184  -45.6817 O.2       2 UNK        -0.4875 
     22 CA         21.0127  -24.8676  -43.3211 C.3       2 UNK         0.0481 
     23 CB         20.8754  -23.3522  -43.0902 C.3       2 UNK        -0.1831 
     24 N          19.7742  -25.5305  -42.9113 N.am      2 UNK        -0.4498 
     25 C          19.6721  -26.8263  -42.5868 C.2       1 UNK         0.5027 
     26 O          20.6476  -27.5793  -42.4995 O.2       1 UNK        -0.4969 
     27 C          23.5877  -26.0686  -46.8124 C.2       3 UNK         0.5005 
     28 O          23.6587  -25.7388  -47.9971 O.2       3 UNK        -0.5279 
     29 N          24.4808  -25.7313  -45.8766 N.am      4 UNK        -0.4463 
     30 CA         25.6143  -24.8204  -46.0021 C.3       4 UNK         0.0283 
     31 CB         26.7692  -25.4498  -46.8052 C.3       4 UNK        -0.1875 
     32 C          26.0148  -24.4652  -44.5685 C.2       4 UNK         0.4949 
     33 O          25.9006  -23.3094  -44.1620 O.2       4 UNK        -0.5039 
     34 N          26.3486  -25.5097  -43.8010 N.am      5 UNK        -0.4663 
     35 CA         26.2072  -25.5480  -42.3466 C.3       5 UNK         0.0242 
     36 CB         27.3329  -26.4201  -41.7648 C.3       5 UNK        -0.1982 
     37 C          24.8261  -26.1402  -42.0065 C.2       5 UNK         0.5017 
     38 O          24.1589  -26.6825  -42.8947 O.2       5 UNK        -0.5012 
     39 N          24.4239  -26.0364  -40.7342 N.am      6 UNK        -0.4439 
     40 CA         23.2024  -26.6490  -40.2093 C.3       6 UNK         0.0297 
     41 CB         22.8292  -25.9920  -38.8702 C.3       6 UNK        -0.2006 
     42 C          23.3849  -28.1670  -40.0514 C.2       6 UNK         0.4892 
     43 O          24.2623  -28.5907  -39.2949 O.2       6 UNK        -0.5089 
     44 N          22.5671  -28.9488  -40.7645 N.am      7 UNK        -0.4243 
     45 CA         22.5438  -30.4100  -40.6802 C.3       7 UNK         0.0196 
     46 CB         22.0218  -30.9734  -42.0092 C.3       7 UNK        -0.2007 
     47 C          21.6952  -30.8979  -39.4924 C.2       7 UNK         0.5020 
     48 O          20.8600  -30.1510  -38.9790 O.2       7 UNK        -0.5147 
     49 N          21.9221  -32.1532  -39.0845 N.am      8 UNK        -0.4734 
     50 CA         21.2744  -32.7932  -37.9298 C.3       8 UNK         0.0238 
     51 CB         22.3699  -33.4014  -37.0347 C.3       8 UNK        -0.1912 
     52 C          20.2359  -33.8633  -38.3227 C.2       8 UNK         0.5038 
     53 O          19.6882  -34.5177  -37.4337 O.2       8 UNK        -0.5046 
     54 N          20.0006  -34.0476  -39.6274 N.am      9 UNK        -0.4200 
     55 CA         19.0223  -34.9816  -40.2103 C.3       9 UNK         0.0839 
     56 C          17.5378  -34.6649  -39.8658 C.2       9 UNK         0.5513 
     57 N          16.6363  -35.6077  -40.1070 N.am      9 UNK        -0.7519 
     58 O          17.1867  -33.5858  -39.3967 O.2       9 UNK        -0.4960 
     59 C59        19.2540  -35.1702  -41.7379 C.3       10 UNK        -0.0876 
     60 S60        19.5556  -33.6145  -42.6434 S.3       10 UNK        -0.2414 
     61 C61        18.0162  -33.3786  -43.5894 C.3       10 UNK         0.0169 
     62 H62        17.2002  -31.3709  -40.9972 H         1 UNK         0.0903 
     63 H63        18.9338  -31.1707  -41.2673 H         1 UNK         0.0903 
     64 H64        18.2847  -31.0590  -39.6362 H         1 UNK         0.0903 
     65 H65        18.8686  -29.3431  -42.6372 H         1 UNK         0.3096 
     66 H66        17.8617  -26.7998  -41.4780 H         1 UNK         0.1121 
     67 H67        17.0776  -26.0437  -43.6131 H         1 UNK         0.0849 
     68 H68        17.8169  -27.3442  -44.4800 H         1 UNK         0.0849 
     69 H69        14.8168  -29.6231  -44.9998 H         1 UNK         0.0865 
     70 H70        15.7240  -28.3987  -45.8422 H         1 UNK         0.0865 
     71 H71        16.0594  -31.4626  -43.7174 H         1 UNK         0.1346 
     72 H72        20.0003  -32.3532  -45.1741 H         1 UNK         0.1412 
     73 H73        18.0773  -28.7073  -46.3123 H         1 UNK         0.1426 
     74 H74        20.2116  -29.2507  -47.2545 H         1 UNK         0.0716 
     75 H75        20.8728  -30.8677  -47.0913 H         1 UNK         0.0716 
     76 H76        22.8237  -28.8010  -47.2932 H         1 UNK         0.0695 
     77 H77        23.7495  -28.5562  -45.8358 H         1 UNK         0.0695 
     78 H78        21.5688  -26.7623  -47.0037 H         1 UNK         0.0983 
     79 H79        22.0888  -27.0065  -44.1996 H         1 UNK         0.3095 
     80 H80        21.8360  -25.2153  -42.6974 H         1 UNK         0.0454 
     81 H81        21.7830  -22.8296  -43.3953 H         1 UNK         0.0851 
     82 H82        20.7121  -23.1257  -42.0365 H         1 UNK         0.0851 
     83 H83        20.0474  -22.9254  -43.6575 H         1 UNK         0.0851 
     84 H84        18.9335  -24.9747  -42.9744 H         1 UNK         0.2976 
     85 H85        24.2895  -26.0408  -44.9270 H         1 UNK         0.3116 
     86 H86        25.2822  -23.9091  -46.5037 H         1 UNK         0.0646 
     87 H87        27.6379  -24.7903  -46.8175 H         1 UNK         0.0847 
     88 H88        27.0885  -26.4056  -46.3894 H         1 UNK         0.0847 
     89 H89        26.4813  -25.6208  -47.8425 H         1 UNK         0.0847 
     90 H90        26.3916  -26.4160  -44.2456 H         1 UNK         0.3040 
     91 H91        26.2741  -24.5407  -41.9288 H         1 UNK         0.1015 
     92 H92        27.2904  -26.4463  -40.6752 H         1 UNK         0.0786 
     93 H93        28.3143  -26.0322  -42.0388 H         1 UNK         0.0786 
     94 H94        27.2704  -27.4505  -42.1177 H         1 UNK         0.0786 
     95 H95        25.0435  -25.6147  -40.0574 H         1 UNK         0.3172 
     96 H96        22.3858  -26.4601  -40.9048 H         1 UNK         0.0595 
     97 H97        23.6117  -26.1217  -38.1214 H         1 UNK         0.0839 
     98 H98        21.9162  -26.4311  -38.4655 H         1 UNK         0.0839 
     99 H99        22.6493  -24.9234  -38.9885 H         1 UNK         0.0839 
    100 H100       21.8660  -28.5144  -41.3605 H         1 UNK         0.2998 
    101 H101       23.5649  -30.7707  -40.5367 H         1 UNK         0.0822 
    102 H102       22.6774  -30.6908  -42.8324 H         1 UNK         0.0787 
    103 H103       21.9875  -32.0624  -41.9927 H         1 UNK         0.0787 
    104 H104       21.0211  -30.6097  -42.2437 H         1 UNK         0.0787 
    105 H105       22.6204  -32.7033  -39.5663 H         1 UNK         0.3055 
    106 H106       20.7364  -32.0477  -37.3397 H         1 UNK         0.1106 
    107 H107       23.0853  -32.6437  -36.7145 H         1 UNK         0.0828 
    108 H108       21.9434  -33.8396  -36.1312 H         1 UNK         0.0828 
    109 H109       22.9220  -34.1888  -37.5492 H         1 UNK         0.0828 
    110 H110       20.4637  -33.4419  -40.2877 H         1 UNK         0.2931 
    111 H111       19.2233  -35.9466  -39.7405 H         1 UNK         0.0412 
    112 H112       15.6685  -35.4223  -39.8933 H         1 UNK         0.3472 
    113 H113       16.9025  -36.5060  -40.4795 H         1 UNK         0.3472 
    114 H114       20.1389  -35.7918  -41.8818 H         1 UNK         0.0970 
    115 H115       18.4409  -35.7253  -42.2090 H         1 UNK         0.0970 
    116 H116       17.8899  -34.2068  -44.2877 H         1 UNK         0.0612 
    117 H117       17.1723  -33.4114  -42.8984 H         1 UNK         0.0612 
@<TRIPOS>BOND
     1    1    2 1    
     2    1   62 1    
     3    1   63 1    
     4    1   64 1    
     5    2    3 2    
     6    2    4 am   BACKBONE|DICT|INTERRES
     7    4    5 1    
     8    4   65 1    
     9    5    6 1    
    10    5   25 1    
    11    5   66 1    
    12    6    7 1    
    13    6   67 1    
    14    6   68 1    
    15    7    8 1    
    16    8    9 1    
    17    8   69 1    
    18    8   70 1    
    19    9   10 ar   
    20    9   14 ar   
    21   10   11 ar   
    22   10   71 1    
    23   11   12 ar   
    24   11   61 1    
    25   12   13 ar   
    26   12   72 1    
    27   13   14 ar   
    28   13   15 1    
    29   14   73 1    
    30   15   16 1    
    31   15   74 1    
    32   15   75 1    
    33   16   17 1    
    34   17   18 1    
    35   17   76 1    
    36   17   77 1    
    37   18   19 1    
    38   18   27 1    
    39   18   78 1    
    40   19   20 am   BACKBONE|DICT|INTERRES
    41   19   79 1    
    42   20   21 2    
    43   20   22 1    
    44   22   23 1    
    45   22   24 1    
    46   22   80 1    
    47   23   81 1    
    48   23   82 1    
    49   23   83 1    
    50   24   25 am   BACKBONE|DICT|INTERRES
    51   24   84 1    
    52   25   26 2    
    53   27   28 2    
    54   27   29 am   BACKBONE|DICT|INTERRES
    55   29   30 1    
    56   29   85 1    
    57   30   31 1    
    58   30   32 1    
    59   30   86 1    
    60   31   87 1    
    61   31   88 1    
    62   31   89 1    
    63   32   33 2    
    64   32   34 am   BACKBONE|DICT|INTERRES
    65   34   35 1    
    66   34   90 1    
    67   35   36 1    
    68   35   37 1    
    69   35   91 1    
    70   36   92 1    
    71   36   93 1    
    72   36   94 1    
    73   37   38 2    
    74   37   39 am   BACKBONE|DICT|INTERRES
    75   39   40 1    
    76   39   95 1    
    77   40   41 1    
    78   40   42 1    
    79   40   96 1    
    80   41   97 1    
    81   41   98 1    
    82   41   99 1    
    83   42   43 2    
    84   42   44 am   BACKBONE|DICT|INTERRES
    85   44   45 1    
    86   44  100 1    
    87   45   46 1    
    88   45   47 1    
    89   45  101 1    
    90   46  102 1    
    91   46  103 1    
    92   46  104 1    
    93   47   48 2    
    94   47   49 am   BACKBONE|DICT|INTERRES
    95   49   50 1    
    96   49  105 1    
    97   50   51 1    
    98   50   52 1    
    99   50  106 1    
   100   51  107 1    
   101   51  108 1    
   102   51  109 1    
   103   52   53 2    
   104   52   54 am   BACKBONE|DICT|INTERRES
   105   54   55 1    
   106   54  110 1    
   107   55   56 1    
   108   55   59 1    
   109   55  111 1    
   110   56   57 am   BACKBONE|DICT|INTERRES
   111   56   58 2    
   112   57  112 1    
   113   57  113 1    
   114   59   60 1    
   115   59  114 1    
   116   59  115 1    
   117   60   61 1    
   118   61  116 1    
   119   61  117 1    
@<TRIPOS>SUBSTRUCTURE
     1 UNK         1 GROUP             0       ****    0 ROOT    
