@<TRIPOS>MOLECULE
3R8
117   119    1
SMALL
USER_CHARGES


@<TRIPOS>ATOM
      1 CA         17.2326  -26.8158  -47.8562 C.3       0 UNK        -0.2013 
      2 C          18.3659  -27.0262  -46.8649 C.2       0 UNK         0.4866 
      3 O          18.1847  -26.7828  -45.6720 O.2       0 UNK        -0.5176 
      4 N          19.5414  -27.4549  -47.3515 N.am      1 UNK        -0.4884 
      5 CA         20.7525  -27.8240  -46.5877 C.3       1 UNK         0.0853 
      6 C6         20.5114  -28.9995  -45.5996 C.3       10 UNK        -0.0849 
      7 S7         19.7898  -30.4989  -46.3549 S.3       10 UNK        -0.2776 
      8 C8         18.0687  -30.4914  -45.7290 C.3       10 UNK         0.0316 
      9 C9         17.9395  -30.2465  -44.2261 C.ar      10 UNK        -0.0863 
     10 C10        18.7632  -30.9147  -43.3154 C.ar      10 UNK        -0.1009 
     11 C11        18.6576  -30.6708  -41.9437 C.ar      10 UNK        -0.0712 
     12 C12        17.6969  -29.7686  -41.4775 C.ar      10 UNK        -0.0894 
     13 C13        16.8666  -29.0880  -42.3755 C.ar      10 UNK        -0.0745 
     14 C14        16.9951  -29.3319  -43.7471 C.ar      10 UNK        -0.0972 
     15 C15        15.8237  -28.0973  -41.8685 C.3       10 UNK         0.0209 
     16 S16        16.5430  -26.7504  -40.8701 S.3       10 UNK        -0.2568 
     17 C17        17.4737  -25.7848  -42.1122 C.3       10 UNK        -0.0983 
     18 CA         18.9545  -26.2180  -42.2708 C.3       3 UNK         0.0876 
     19 N          19.5838  -25.5863  -43.4418 N.am      3 UNK        -0.4424 
     20 C          20.5649  -24.6708  -43.5585 C.2       2 UNK         0.4918 
     21 O          21.1274  -24.1149  -42.6161 O.2       2 UNK        -0.4875 
     22 CA         20.9959  -24.3134  -45.0015 C.3       2 UNK         0.0481 
     23 CB         22.4145  -23.7106  -45.0836 C.3       2 UNK        -0.1831 
     24 N          20.8384  -25.4415  -45.9271 N.am      2 UNK        -0.4498 
     25 C          21.4153  -26.6492  -45.8259 C.2       1 UNK         0.5027 
     26 O          22.3924  -26.8738  -45.1107 O.2       1 UNK        -0.4969 
     27 C          19.7674  -26.1983  -40.9578 C.2       3 UNK         0.5005 
     28 O          20.3809  -27.2092  -40.6125 O.2       3 UNK        -0.5279 
     29 N          19.7781  -25.0478  -40.2660 N.am      4 UNK        -0.4463 
     30 CA         20.5063  -24.7845  -39.0173 C.3       4 UNK         0.0283 
     31 CB         20.2270  -23.3405  -38.5710 C.3       4 UNK        -0.1875 
     32 C          22.0265  -25.0421  -39.0760 C.2       4 UNK         0.4949 
     33 O          22.6376  -25.2464  -38.0270 O.2       4 UNK        -0.5039 
     34 N          22.6044  -25.0683  -40.2861 N.am      5 UNK        -0.4663 
     35 CA         23.9698  -25.5260  -40.5646 C.3       5 UNK         0.0242 
     36 CB         24.2987  -25.2367  -42.0378 C.3       5 UNK        -0.1982 
     37 C          24.2063  -27.0193  -40.2522 C.2       5 UNK         0.5017 
     38 O          25.3601  -27.4102  -40.0735 O.2       5 UNK        -0.5012 
     39 N          23.1265  -27.8163  -40.1909 N.am      6 UNK        -0.4439 
     40 CA         23.0783  -29.2410  -39.8430 C.3       6 UNK         0.0297 
     41 CB         23.5182  -29.4669  -38.3809 C.3       6 UNK        -0.2006 
     42 C          23.8088  -30.1628  -40.8386 C.2       6 UNK         0.4892 
     43 O          24.2564  -31.2435  -40.4511 O.2       6 UNK        -0.5089 
     44 N          23.8942  -29.7416  -42.1080 N.am      7 UNK        -0.4243 
     45 CA         24.3800  -30.5640  -43.2175 C.3       7 UNK         0.0196 
     46 CB         24.6817  -29.6594  -44.4224 C.3       7 UNK        -0.2007 
     47 C          23.3481  -31.6431  -43.5861 C.2       7 UNK         0.5020 
     48 O          22.1550  -31.4491  -43.3556 O.2       7 UNK        -0.5147 
     49 N          23.8238  -32.7647  -44.1413 N.am      8 UNK        -0.4734 
     50 CA         23.0761  -33.9695  -44.5451 C.3       8 UNK         0.0238 
     51 CB         21.9806  -33.6467  -45.5818 C.3       8 UNK        -0.1912 
     52 C          22.5066  -34.8022  -43.3782 C.2       8 UNK         0.5038 
     53 O          22.5459  -36.0311  -43.4583 O.2       8 UNK        -0.5046 
     54 N          22.0080  -34.1460  -42.3232 N.am      9 UNK        -0.4200 
     55 CA         21.5648  -34.7681  -41.0656 C.3       9 UNK         0.0839 
     56 C          22.7226  -35.4673  -40.2996 C.2       9 UNK         0.5513 
     57 N          22.4180  -36.5151  -39.5460 N.am      9 UNK        -0.7519 
     58 O          23.8783  -35.0514  -40.3486 O.2       9 UNK        -0.4960 
     59 C59        20.8361  -33.7554  -40.1430 C.3       10 UNK        -0.0876 
     60 S60        19.2828  -33.1447  -40.8801 S.3       10 UNK        -0.2414 
     61 C61        19.6117  -31.3594  -40.9806 C.3       10 UNK         0.0169 
     62 H62        16.3814  -27.4403  -47.5865 H         1 UNK         0.0903 
     63 H63        16.9096  -25.7753  -47.8414 H         1 UNK         0.0903 
     64 H64        17.5281  -27.0667  -48.8747 H         1 UNK         0.0903 
     65 H65        19.6188  -27.6081  -48.3481 H         1 UNK         0.3096 
     66 H66        21.4889  -28.1526  -47.3228 H         1 UNK         0.1121 
     67 H67        19.8982  -28.6617  -44.7644 H         1 UNK         0.0849 
     68 H68        21.4525  -29.3157  -45.1474 H         1 UNK         0.0849 
     69 H69        17.5034  -29.7446  -46.2866 H         1 UNK         0.0865 
     70 H70        17.6104  -31.4527  -45.9638 H         1 UNK         0.0865 
     71 H71        19.5083  -31.6120  -43.6743 H         1 UNK         0.1346 
     72 H72        17.6087  -29.5760  -40.4170 H         1 UNK         0.1412 
     73 H73        16.3621  -28.8017  -44.4457 H         1 UNK         0.1426 
     74 H74        15.1022  -28.6377  -41.2544 H         1 UNK         0.0716 
     75 H75        15.2573  -27.6645  -42.6946 H         1 UNK         0.0716 
     76 H76        17.4130  -24.7294  -41.8425 H         1 UNK         0.0695 
     77 H77        16.9587  -25.8734  -43.0705 H         1 UNK         0.0695 
     78 H78        18.9295  -27.2711  -42.5538 H         1 UNK         0.0983 
     79 H79        19.2082  -25.9465  -44.3167 H         1 UNK         0.3095 
     80 H80        20.2967  -23.5475  -45.3392 H         1 UNK         0.0454 
     81 H81        22.6720  -23.4441  -46.1083 H         1 UNK         0.0851 
     82 H82        23.1745  -24.3998  -44.7173 H         1 UNK         0.0851 
     83 H83        22.4887  -22.8012  -44.4861 H         1 UNK         0.0851 
     84 H84        20.0476  -25.3793  -46.5536 H         1 UNK         0.2976 
     85 H85        19.2871  -24.2614  -40.6662 H         1 UNK         0.3116 
     86 H86        20.0993  -25.4606  -38.2630 H         1 UNK         0.0646 
     87 H87        20.5822  -22.6169  -39.3059 H         1 UNK         0.0847 
     88 H88        19.1616  -23.1697  -38.4160 H         1 UNK         0.0847 
     89 H89        20.7280  -23.1186  -37.6275 H         1 UNK         0.0847 
     90 H90        22.0311  -24.8277  -41.0916 H         1 UNK         0.3040 
     91 H91        24.6510  -24.9498  -39.9349 H         1 UNK         0.1015 
     92 H92        25.3256  -25.5194  -42.2737 H         1 UNK         0.0786 
     93 H93        24.1931  -24.1763  -42.2680 H         1 UNK         0.0786 
     94 H94        23.6445  -25.7930  -42.7109 H         1 UNK         0.0786 
     95 H95        22.2130  -27.3992  -40.3686 H         1 UNK         0.3172 
     96 H96        22.0252  -29.5180  -39.9081 H         1 UNK         0.0595 
     97 H97        24.5835  -29.2779  -38.2454 H         1 UNK         0.0839 
     98 H98        23.3290  -30.4947  -38.0688 H         1 UNK         0.0839 
     99 H99        22.9719  -28.8167  -37.6976 H         1 UNK         0.0839 
    100 H100       23.4638  -28.8612  -42.3486 H         1 UNK         0.2998 
    101 H101       25.3053  -31.0534  -42.9055 H         1 UNK         0.0822 
    102 H102       25.0780  -30.2377  -45.2580 H         1 UNK         0.0787 
    103 H103       25.4233  -28.9002  -44.1731 H         1 UNK         0.0787 
    104 H104       23.7875  -29.1479  -44.7769 H         1 UNK         0.0787 
    105 H105       24.8252  -32.8315  -44.2661 H         1 UNK         0.3055 
    106 H106       23.8081  -34.6087  -45.0421 H         1 UNK         0.1106 
    107 H107       21.1662  -33.0641  -45.1506 H         1 UNK         0.0828 
    108 H108       22.3821  -33.0857  -46.4255 H         1 UNK         0.0828 
    109 H109       21.5420  -34.5627  -45.9795 H         1 UNK         0.0828 
    110 H110       21.9870  -33.1330  -42.3699 H         1 UNK         0.2931 
    111 H111       20.8476  -35.5446  -41.3404 H         1 UNK         0.0412 
    112 H112       21.4725  -36.8621  -39.4921 H         1 UNK         0.3472 
    113 H113       23.1503  -36.9766  -39.0285 H         1 UNK         0.3472 
    114 H114       20.5745  -34.2232  -39.1918 H         1 UNK         0.0970 
    115 H115       21.4961  -32.9217  -39.8945 H         1 UNK         0.0970 
    116 H116       19.5399  -30.9261  -39.9819 H         1 UNK         0.0612 
    117 H117       20.6338  -31.1882  -41.3161 H         1 UNK         0.0612 
@<TRIPOS>BOND
     1    1    2 1    
     2    1   62 1    
     3    1   63 1    
     4    1   64 1    
     5    2    3 2    
     6    2    4 am   BACKBONE|DICT|INTERRES
     7    4    5 1    
     8    4   65 1    
     9    5    6 1    
    10    5   25 1    
    11    5   66 1    
    12    6    7 1    
    13    6   67 1    
    14    6   68 1    
    15    7    8 1    
    16    8    9 1    
    17    8   69 1    
    18    8   70 1    
    19    9   10 ar   
    20    9   14 ar   
    21   10   11 ar   
    22   10   71 1    
    23   11   12 ar   
    24   11   61 1    
    25   12   13 ar   
    26   12   72 1    
    27   13   14 ar   
    28   13   15 1    
    29   14   73 1    
    30   15   16 1    
    31   15   74 1    
    32   15   75 1    
    33   16   17 1    
    34   17   18 1    
    35   17   76 1    
    36   17   77 1    
    37   18   19 1    
    38   18   27 1    
    39   18   78 1    
    40   19   20 am   BACKBONE|DICT|INTERRES
    41   19   79 1    
    42   20   21 2    
    43   20   22 1    
    44   22   23 1    
    45   22   24 1    
    46   22   80 1    
    47   23   81 1    
    48   23   82 1    
    49   23   83 1    
    50   24   25 am   BACKBONE|DICT|INTERRES
    51   24   84 1    
    52   25   26 2    
    53   27   28 2    
    54   27   29 am   BACKBONE|DICT|INTERRES
    55   29   30 1    
    56   29   85 1    
    57   30   31 1    
    58   30   32 1    
    59   30   86 1    
    60   31   87 1    
    61   31   88 1    
    62   31   89 1    
    63   32   33 2    
    64   32   34 am   BACKBONE|DICT|INTERRES
    65   34   35 1    
    66   34   90 1    
    67   35   36 1    
    68   35   37 1    
    69   35   91 1    
    70   36   92 1    
    71   36   93 1    
    72   36   94 1    
    73   37   38 2    
    74   37   39 am   BACKBONE|DICT|INTERRES
    75   39   40 1    
    76   39   95 1    
    77   40   41 1    
    78   40   42 1    
    79   40   96 1    
    80   41   97 1    
    81   41   98 1    
    82   41   99 1    
    83   42   43 2    
    84   42   44 am   BACKBONE|DICT|INTERRES
    85   44   45 1    
    86   44  100 1    
    87   45   46 1    
    88   45   47 1    
    89   45  101 1    
    90   46  102 1    
    91   46  103 1    
    92   46  104 1    
    93   47   48 2    
    94   47   49 am   BACKBONE|DICT|INTERRES
    95   49   50 1    
    96   49  105 1    
    97   50   51 1    
    98   50   52 1    
    99   50  106 1    
   100   51  107 1    
   101   51  108 1    
   102   51  109 1    
   103   52   53 2    
   104   52   54 am   BACKBONE|DICT|INTERRES
   105   54   55 1    
   106   54  110 1    
   107   55   56 1    
   108   55   59 1    
   109   55  111 1    
   110   56   57 am   BACKBONE|DICT|INTERRES
   111   56   58 2    
   112   57  112 1    
   113   57  113 1    
   114   59   60 1    
   115   59  114 1    
   116   59  115 1    
   117   60   61 1    
   118   61  116 1    
   119   61  117 1    
@<TRIPOS>SUBSTRUCTURE
     1 UNK         1 GROUP             0       ****    0 ROOT    
