@<TRIPOS>MOLECULE
3R8
117   119    1
SMALL
USER_CHARGES


@<TRIPOS>ATOM
      1 CA         16.0480  -25.2172  -44.4651 C.3       0 UNK        -0.2013 
      2 C          15.0873  -25.8606  -43.4700 C.2       0 UNK         0.4866 
      3 O          14.2958  -25.1504  -42.8531 O.2       0 UNK        -0.5176 
      4 N          15.1140  -27.1834  -43.2647 N.am      1 UNK        -0.4884 
      5 CA         16.0004  -28.1726  -43.8871 C.3       1 UNK         0.0853 
      6 C6         15.2413  -29.1014  -44.8712 C.3       10 UNK        -0.0849 
      7 S7         14.8849  -28.2351  -46.4370 S.3       10 UNK        -0.2776 
      8 C8         16.1637  -28.9083  -47.5529 C.3       10 UNK         0.0316 
      9 C9         17.5697  -28.8335  -46.9660 C.ar      10 UNK        -0.0863 
     10 C10        18.2368  -30.0064  -46.6011 C.ar      10 UNK        -0.1009 
     11 C11        19.5274  -29.9595  -46.0647 C.ar      10 UNK        -0.0712 
     12 C12        20.1547  -28.7207  -45.8995 C.ar      10 UNK        -0.0894 
     13 C13        19.5029  -27.5384  -46.2681 C.ar      10 UNK        -0.0745 
     14 C14        18.2115  -27.6021  -46.8031 C.ar      10 UNK        -0.0972 
     15 C15        20.2041  -26.1933  -46.1378 C.3       10 UNK         0.0209 
     16 S16        20.0250  -25.4826  -44.4717 S.3       10 UNK        -0.2568 
     17 C17        21.5144  -26.1212  -43.6337 C.3       10 UNK        -0.0983 
     18 CA         21.2641  -26.4544  -42.1432 C.3       3 UNK         0.0876 
     19 N          20.1912  -27.4365  -41.9802 N.am      3 UNK        -0.4424 
     20 C          19.6147  -27.7692  -40.8181 C.2       2 UNK         0.4918 
     21 O          19.9750  -27.3371  -39.7227 O.2       2 UNK        -0.4875 
     22 CA         18.3830  -28.6811  -40.9230 C.3       2 UNK         0.0481 
     23 CB         17.6025  -28.8148  -39.6012 C.3       2 UNK        -0.1831 
     24 N          17.5106  -28.1834  -41.9842 N.am      2 UNK        -0.4498 
     25 C          16.7228  -28.9328  -42.7637 C.2       1 UNK         0.5027 
     26 O          16.5493  -30.1421  -42.6084 O.2       1 UNK        -0.4969 
     27 C          22.5780  -26.9176  -41.4873 C.2       3 UNK         0.5005 
     28 O          22.9534  -28.0841  -41.6309 O.2       3 UNK        -0.5279 
     29 N          23.2934  -25.9703  -40.8611 N.am      4 UNK        -0.4463 
     30 CA         24.6071  -26.1686  -40.2339 C.3       4 UNK         0.0283 
     31 CB         25.0308  -24.8794  -39.5131 C.3       4 UNK        -0.1875 
     32 C          25.7052  -26.6202  -41.2132 C.2       4 UNK         0.4949 
     33 O          26.6372  -27.3100  -40.8012 O.2       4 UNK        -0.5039 
     34 N          25.5464  -26.2799  -42.5008 N.am      5 UNK        -0.4663 
     35 CA         26.3768  -26.7529  -43.6137 C.3       5 UNK         0.0242 
     36 CB         25.9591  -26.0128  -44.8949 C.3       5 UNK        -0.1982 
     37 C          26.3151  -28.2782  -43.8327 C.2       5 UNK         0.5017 
     38 O          27.2449  -28.8357  -44.4160 O.2       5 UNK        -0.5012 
     39 N          25.2427  -28.9198  -43.3496 N.am      6 UNK        -0.4439 
     40 CA         25.0429  -30.3676  -43.3387 C.3       6 UNK         0.0297 
     41 CB         23.7632  -30.6875  -44.1320 C.3       6 UNK        -0.2006 
     42 C          24.9604  -30.8891  -41.8918 C.2       6 UNK         0.4892 
     43 O          24.3056  -31.9073  -41.6578 O.2       6 UNK        -0.5089 
     44 N          25.5797  -30.1684  -40.9413 N.am      7 UNK        -0.4243 
     45 CA         25.5459  -30.3408  -39.4819 C.3       7 UNK         0.0196 
     46 CB         26.1307  -31.6996  -39.0454 C.3       7 UNK        -0.2007 
     47 C          24.1501  -30.0920  -38.8848 C.2       7 UNK         0.5020 
     48 O          23.9803  -29.1602  -38.0991 O.2       7 UNK        -0.5147 
     49 N          23.1818  -30.9197  -39.2826 N.am      8 UNK        -0.4734 
     50 CA         21.7599  -30.7954  -38.9670 C.3       8 UNK         0.0238 
     51 CB         21.4827  -31.3611  -37.5593 C.3       8 UNK        -0.1912 
     52 C          20.8712  -31.4567  -40.0380 C.2       8 UNK         0.5038 
     53 O          19.6821  -31.6439  -39.7797 O.2       8 UNK        -0.5046 
     54 N          21.4376  -31.8142  -41.2034 N.am      9 UNK        -0.4200 
     55 CA         20.7877  -32.5959  -42.2680 C.3       9 UNK         0.0839 
     56 C          20.3734  -34.0258  -41.7884 C.2       9 UNK         0.5513 
     57 N          19.3801  -34.6536  -42.4016 N.am      9 UNK        -0.7519 
     58 O          20.9859  -34.5994  -40.8892 O.2       9 UNK        -0.4960 
     59 C59        19.6779  -31.7791  -42.9999 C.3       10 UNK        -0.0876 
     60 S60        19.3225  -32.3895  -44.6847 S.3       10 UNK        -0.2414 
     61 C61        20.2729  -31.2491  -45.7405 C.3       10 UNK         0.0169 
     62 H62        17.0782  -25.3232  -44.1301 H         1 UNK         0.0903 
     63 H63        15.9489  -25.6627  -45.4536 H         1 UNK         0.0903 
     64 H64        15.8403  -24.1519  -44.5632 H         1 UNK         0.0903 
     65 H65        14.4798  -27.5682  -42.5776 H         1 UNK         0.3096 
     66 H66        16.8032  -27.6858  -44.4400 H         1 UNK         0.1121 
     67 H67        15.8119  -30.0044  -45.0951 H         1 UNK         0.0849 
     68 H68        14.3033  -29.4460  -44.4325 H         1 UNK         0.0849 
     69 H69        15.9044  -29.9389  -47.8007 H         1 UNK         0.0865 
     70 H70        16.1374  -28.3570  -48.4938 H         1 UNK         0.0865 
     71 H71        17.7553  -30.9645  -46.7426 H         1 UNK         0.1346 
     72 H72        21.1632  -28.6812  -45.5133 H         1 UNK         0.1412 
     73 H73        17.7035  -26.6932  -47.0962 H         1 UNK         0.1426 
     74 H74        21.2599  -26.2875  -46.3965 H         1 UNK         0.0716 
     75 H75        19.7851  -25.4880  -46.8572 H         1 UNK         0.0716 
     76 H76        21.8861  -27.0009  -44.1603 H         1 UNK         0.0695 
     77 H77        22.2914  -25.3606  -43.7320 H         1 UNK         0.0695 
     78 H78        20.9365  -25.5416  -41.6401 H         1 UNK         0.0983 
     79 H79        19.8406  -27.8447  -42.8332 H         1 UNK         0.3095 
     80 H80        18.7517  -29.6654  -41.2068 H         1 UNK         0.0454 
     81 H81        17.2130  -27.8538  -39.2641 H         1 UNK         0.0851 
     82 H82        16.7627  -29.5016  -39.7049 H         1 UNK         0.0851 
     83 H83        18.2418  -29.2085  -38.8098 H         1 UNK         0.0851 
     84 H84        17.5596  -27.1881  -42.1567 H         1 UNK         0.2976 
     85 H85        22.9120  -25.0363  -40.8031 H         1 UNK         0.3116 
     86 H86        24.4971  -26.9555  -39.4865 H         1 UNK         0.0646 
     87 H87        25.9932  -25.0097  -39.0158 H         1 UNK         0.0847 
     88 H88        24.3099  -24.5971  -38.7456 H         1 UNK         0.0847 
     89 H89        25.1332  -24.0424  -40.2049 H         1 UNK         0.0847 
     90 H90        24.7605  -25.6939  -42.7404 H         1 UNK         0.3040 
     91 H91        27.4152  -26.5002  -43.3879 H         1 UNK         0.1015 
     92 H92        26.0750  -24.9341  -44.7871 H         1 UNK         0.0786 
     93 H93        24.9203  -26.2159  -45.1590 H         1 UNK         0.0786 
     94 H94        26.5758  -26.3189  -45.7413 H         1 UNK         0.0786 
     95 H95        24.5352  -28.3877  -42.8497 H         1 UNK         0.3172 
     96 H96        25.8820  -30.8790  -43.8139 H         1 UNK         0.0595 
     97 H97        23.6063  -31.7640  -44.2109 H         1 UNK         0.0839 
     98 H98        23.8183  -30.2959  -45.1477 H         1 UNK         0.0839 
     99 H99        22.8814  -30.2585  -43.6536 H         1 UNK         0.0839 
    100 H100       26.0589  -29.3268  -41.2411 H         1 UNK         0.2998 
    101 H101       26.1989  -29.5642  -39.0799 H         1 UNK         0.0822 
    102 H102       27.1521  -31.8219  -39.4057 H         1 UNK         0.0787 
    103 H103       26.1600  -31.7760  -37.9577 H         1 UNK         0.0787 
    104 H104       25.5459  -32.5435  -39.4116 H         1 UNK         0.0787 
    105 H105       23.4478  -31.6419  -39.9451 H         1 UNK         0.3055 
    106 H106       21.4992  -29.7342  -38.9728 H         1 UNK         0.1106 
    107 H107       20.4349  -31.2370  -37.2829 H         1 UNK         0.0828 
    108 H108       21.7123  -32.4258  -37.5051 H         1 UNK         0.0828 
    109 H109       22.0742  -30.8509  -36.7992 H         1 UNK         0.0828 
    110 H110       22.4292  -31.6588  -41.3450 H         1 UNK         0.2931 
    111 H111       21.5879  -32.7693  -42.9881 H         1 UNK         0.0412 
    112 H112       19.1212  -35.5829  -42.1095 H         1 UNK         0.3472 
    113 H113       18.9017  -34.2079  -43.1713 H         1 UNK         0.3472 
    114 H114       19.9694  -30.7308  -43.0765 H         1 UNK         0.0970 
    115 H115       18.7530  -31.7879  -42.4207 H         1 UNK         0.0970 
    116 H116       21.2337  -31.0433  -45.2711 H         1 UNK         0.0612 
    117 H117       20.4955  -31.7578  -46.6792 H         1 UNK         0.0612 
@<TRIPOS>BOND
     1    1    2 1    
     2    1   62 1    
     3    1   63 1    
     4    1   64 1    
     5    2    3 2    
     6    2    4 am   BACKBONE|DICT|INTERRES
     7    4    5 1    
     8    4   65 1    
     9    5    6 1    
    10    5   25 1    
    11    5   66 1    
    12    6    7 1    
    13    6   67 1    
    14    6   68 1    
    15    7    8 1    
    16    8    9 1    
    17    8   69 1    
    18    8   70 1    
    19    9   10 ar   
    20    9   14 ar   
    21   10   11 ar   
    22   10   71 1    
    23   11   12 ar   
    24   11   61 1    
    25   12   13 ar   
    26   12   72 1    
    27   13   14 ar   
    28   13   15 1    
    29   14   73 1    
    30   15   16 1    
    31   15   74 1    
    32   15   75 1    
    33   16   17 1    
    34   17   18 1    
    35   17   76 1    
    36   17   77 1    
    37   18   19 1    
    38   18   27 1    
    39   18   78 1    
    40   19   20 am   BACKBONE|DICT|INTERRES
    41   19   79 1    
    42   20   21 2    
    43   20   22 1    
    44   22   23 1    
    45   22   24 1    
    46   22   80 1    
    47   23   81 1    
    48   23   82 1    
    49   23   83 1    
    50   24   25 am   BACKBONE|DICT|INTERRES
    51   24   84 1    
    52   25   26 2    
    53   27   28 2    
    54   27   29 am   BACKBONE|DICT|INTERRES
    55   29   30 1    
    56   29   85 1    
    57   30   31 1    
    58   30   32 1    
    59   30   86 1    
    60   31   87 1    
    61   31   88 1    
    62   31   89 1    
    63   32   33 2    
    64   32   34 am   BACKBONE|DICT|INTERRES
    65   34   35 1    
    66   34   90 1    
    67   35   36 1    
    68   35   37 1    
    69   35   91 1    
    70   36   92 1    
    71   36   93 1    
    72   36   94 1    
    73   37   38 2    
    74   37   39 am   BACKBONE|DICT|INTERRES
    75   39   40 1    
    76   39   95 1    
    77   40   41 1    
    78   40   42 1    
    79   40   96 1    
    80   41   97 1    
    81   41   98 1    
    82   41   99 1    
    83   42   43 2    
    84   42   44 am   BACKBONE|DICT|INTERRES
    85   44   45 1    
    86   44  100 1    
    87   45   46 1    
    88   45   47 1    
    89   45  101 1    
    90   46  102 1    
    91   46  103 1    
    92   46  104 1    
    93   47   48 2    
    94   47   49 am   BACKBONE|DICT|INTERRES
    95   49   50 1    
    96   49  105 1    
    97   50   51 1    
    98   50   52 1    
    99   50  106 1    
   100   51  107 1    
   101   51  108 1    
   102   51  109 1    
   103   52   53 2    
   104   52   54 am   BACKBONE|DICT|INTERRES
   105   54   55 1    
   106   54  110 1    
   107   55   56 1    
   108   55   59 1    
   109   55  111 1    
   110   56   57 am   BACKBONE|DICT|INTERRES
   111   56   58 2    
   112   57  112 1    
   113   57  113 1    
   114   59   60 1    
   115   59  114 1    
   116   59  115 1    
   117   60   61 1    
   118   61  116 1    
   119   61  117 1    
@<TRIPOS>SUBSTRUCTURE
     1 UNK         1 GROUP             0       ****    0 ROOT    
