@<TRIPOS>MOLECULE
3R8
117   119    1
SMALL
USER_CHARGES


@<TRIPOS>ATOM
      1 CA         14.3506  -31.6085  -49.1875 C.3       0 UNK        -0.2013 
      2 C          14.9833  -31.2169  -47.8604 C.2       0 UNK         0.4866 
      3 O          15.1351  -32.0638  -46.9796 O.2       0 UNK        -0.5176 
      4 N          15.3549  -29.9425  -47.7096 N.am      1 UNK        -0.4884 
      5 CA         15.9940  -29.3835  -46.5212 C.3       1 UNK         0.0853 
      6 C6         14.9592  -29.1205  -45.3821 C.3       10 UNK        -0.0849 
      7 S7         15.4416  -27.9139  -44.0941 S.3       10 UNK        -0.2776 
      8 C8         16.1777  -28.9815  -42.8075 C.3       10 UNK         0.0316 
      9 C9         17.2006  -28.2684  -41.9191 C.ar      10 UNK        -0.0863 
     10 C10        18.2378  -29.0110  -41.3461 C.ar      10 UNK        -0.1009 
     11 C11        19.2137  -28.3928  -40.5567 C.ar      10 UNK        -0.0712 
     12 C12        19.1428  -27.0166  -40.3246 C.ar      10 UNK        -0.0894 
     13 C13        18.1134  -26.2586  -40.8896 C.ar      10 UNK        -0.0745 
     14 C14        17.1367  -26.8925  -41.6630 C.ar      10 UNK        -0.0972 
     15 C15        18.0621  -24.7500  -40.6956 C.3       10 UNK         0.0209 
     16 S16        18.3066  -23.8632  -42.2711 S.3       10 UNK        -0.2568 
     17 C17        20.0998  -24.0525  -42.5539 C.3       10 UNK        -0.0983 
     18 CA         20.4910  -25.3522  -43.3051 C.3       3 UNK         0.0876 
     19 N          19.7597  -25.5272  -44.5634 N.am      3 UNK        -0.4424 
     20 C          19.6331  -26.7004  -45.1930 C.2       2 UNK         0.4918 
     21 O          20.1458  -27.7547  -44.8075 O.2       2 UNK        -0.4875 
     22 CA         18.7698  -26.7252  -46.4569 C.3       2 UNK         0.0481 
     23 CB         19.6371  -26.7656  -47.7270 C.3       2 UNK        -0.1831 
     24 N          17.9407  -27.9192  -46.3573 N.am      2 UNK        -0.4498 
     25 C          16.7796  -28.1397  -46.9796 C.2       1 UNK         0.5027 
     26 O          16.3128  -27.4093  -47.8590 O.2       1 UNK        -0.4969 
     27 C          22.0145  -25.4002  -43.5294 C.2       3 UNK         0.5005 
     28 O          22.5003  -24.9646  -44.5772 O.2       3 UNK        -0.5279 
     29 N          22.7376  -25.8931  -42.5200 N.am      4 UNK        -0.4463 
     30 CA         24.1906  -26.0161  -42.4595 C.3       4 UNK         0.0283 
     31 CB         24.6654  -27.1645  -43.3784 C.3       4 UNK        -0.1875 
     32 C          24.5780  -26.2621  -40.9919 C.2       4 UNK         0.4949 
     33 O          23.7087  -26.2436  -40.1169 O.2       4 UNK        -0.5039 
     34 N          25.8686  -26.5138  -40.7458 N.am      5 UNK        -0.4663 
     35 CA         26.3781  -27.0016  -39.4572 C.3       5 UNK         0.0242 
     36 CB         27.7432  -26.3461  -39.1866 C.3       5 UNK        -0.1982 
     37 C          26.5070  -28.5385  -39.4242 C.2       5 UNK         0.5017 
     38 O          26.7754  -29.1002  -38.3613 O.2       5 UNK        -0.5012 
     39 N          26.3490  -29.1927  -40.5834 N.am      6 UNK        -0.4439 
     40 CA         26.6198  -30.6102  -40.8316 C.3       6 UNK         0.0297 
     41 CB         26.8870  -30.7958  -42.3382 C.3       6 UNK        -0.2006 
     42 C          25.5241  -31.5614  -40.3087 C.2       6 UNK         0.4892 
     43 O          25.0011  -32.3645  -41.0832 O.2       6 UNK        -0.5089 
     44 N          25.2203  -31.4740  -39.0059 N.am      7 UNK        -0.4243 
     45 CA         24.3271  -32.3396  -38.2217 C.3       7 UNK         0.0196 
     46 CB         24.9685  -33.7299  -38.0169 C.3       7 UNK        -0.2007 
     47 C          22.8938  -32.4204  -38.7824 C.2       7 UNK         0.5020 
     48 O          22.0440  -31.6271  -38.3804 O.2       7 UNK        -0.5147 
     49 N          22.6505  -33.3784  -39.6877 N.am      8 UNK        -0.4734 
     50 CA         21.3944  -33.5469  -40.4257 C.3       8 UNK         0.0238 
     51 CB         21.3378  -34.9725  -40.9984 C.3       8 UNK        -0.1912 
     52 C          21.2032  -32.5072  -41.5471 C.2       8 UNK         0.5038 
     53 O          20.0706  -32.3156  -41.9920 O.2       8 UNK        -0.5046 
     54 N          22.2952  -31.8515  -41.9623 N.am      9 UNK        -0.4200 
     55 CA         22.3459  -30.7726  -42.9584 C.3       9 UNK         0.0839 
     56 C          21.9994  -31.2635  -44.3969 C.2       9 UNK         0.5513 
     57 N          21.4177  -30.4308  -45.2530 N.am      9 UNK        -0.7519 
     58 O          22.3081  -32.3942  -44.7683 O.2       9 UNK        -0.4960 
     59 C59        21.5696  -29.4975  -42.5221 C.3       10 UNK        -0.0876 
     60 S60        21.9335  -28.9300  -40.8265 S.3       10 UNK        -0.2414 
     61 C61        20.3521  -29.2127  -39.9651 C.3       10 UNK         0.0169 
     62 H62        14.2762  -30.7617  -49.8695 H         1 UNK         0.0903 
     63 H63        14.9441  -32.3832  -49.6722 H         1 UNK         0.0903 
     64 H64        13.3472  -32.0004  -49.0233 H         1 UNK         0.0903 
     65 H65        15.2449  -29.2749  -48.4643 H         1 UNK         0.3096 
     66 H66        16.7259  -30.1086  -46.1569 H         1 UNK         0.1121 
     67 H67        14.6824  -30.0633  -44.9077 H         1 UNK         0.0849 
     68 H68        14.0354  -28.7369  -45.8189 H         1 UNK         0.0849 
     69 H69        15.3820  -29.3883  -42.1822 H         1 UNK         0.0865 
     70 H70        16.6573  -29.8318  -43.2953 H         1 UNK         0.0865 
     71 H71        18.3001  -30.0756  -41.5300 H         1 UNK         0.1346 
     72 H72        19.9045  -26.5367  -39.7250 H         1 UNK         0.1412 
     73 H73        16.3436  -26.2941  -42.0888 H         1 UNK         0.1426 
     74 H74        18.8024  -24.4173  -39.9665 H         1 UNK         0.0716 
     75 H75        17.0870  -24.4795  -40.2880 H         1 UNK         0.0716 
     76 H76        20.6100  -23.9984  -41.5902 H         1 UNK         0.0695 
     77 H77        20.4319  -23.1783  -43.1176 H         1 UNK         0.0695 
     78 H78        20.2352  -26.2026  -42.6720 H         1 UNK         0.0983 
     79 H79        19.3231  -24.7019  -44.9457 H         1 UNK         0.3095 
     80 H80        18.1281  -25.8417  -46.4749 H         1 UNK         0.0454 
     81 H81        20.2822  -27.6449  -47.7450 H         1 UNK         0.0851 
     82 H82        20.2804  -25.8870  -47.7868 H         1 UNK         0.0851 
     83 H83        19.0243  -26.7810  -48.6282 H         1 UNK         0.0851 
     84 H84        18.2507  -28.5589  -45.6360 H         1 UNK         0.2976 
     85 H85        22.2858  -26.1814  -41.6582 H         1 UNK         0.3116 
     86 H86        24.6397  -25.0738  -42.7792 H         1 UNK         0.0646 
     87 H87        24.3061  -28.1327  -43.0295 H         1 UNK         0.0847 
     88 H88        25.7531  -27.2139  -43.4292 H         1 UNK         0.0847 
     89 H89        24.3138  -27.0327  -44.4017 H         1 UNK         0.0847 
     90 H90        26.5373  -26.4432  -41.5005 H         1 UNK         0.3040 
     91 H91        25.6999  -26.7179  -38.6490 H         1 UNK         0.1015 
     92 H92        28.4794  -26.6132  -39.9459 H         1 UNK         0.0786 
     93 H93        28.1431  -26.6586  -38.2208 H         1 UNK         0.0786 
     94 H94        27.6626  -25.2591  -39.1642 H         1 UNK         0.0786 
     95 H95        26.0734  -28.6478  -41.3848 H         1 UNK         0.3172 
     96 H96        27.5382  -30.8761  -40.3037 H         1 UNK         0.0595 
     97 H97        26.0105  -30.5493  -42.9387 H         1 UNK         0.0839 
     98 H98        27.1554  -31.8289  -42.5642 H         1 UNK         0.0839 
     99 H99        27.7139  -30.1712  -42.6767 H         1 UNK         0.0839 
    100 H100       25.6887  -30.7369  -38.4862 H         1 UNK         0.2998 
    101 H101       24.2422  -31.8751  -37.2378 H         1 UNK         0.0822 
    102 H102       25.8978  -33.6503  -37.4526 H         1 UNK         0.0787 
    103 H103       24.3067  -34.3883  -37.4523 H         1 UNK         0.0787 
    104 H104       25.2009  -34.2258  -38.9598 H         1 UNK         0.0787 
    105 H105       23.4317  -33.9464  -39.9855 H         1 UNK         0.3055 
    106 H106       20.5643  -33.4221  -39.7265 H         1 UNK         0.1106 
    107 H107       20.3989  -35.1431  -41.5273 H         1 UNK         0.0828 
    108 H108       22.1475  -35.1557  -41.7059 H         1 UNK         0.0828 
    109 H109       21.4034  -35.7213  -40.2088 H         1 UNK         0.0828 
    110 H110       23.1927  -32.1127  -41.5637 H         1 UNK         0.2931 
    111 H111       23.4000  -30.4987  -43.0068 H         1 UNK         0.0412 
    112 H112       21.2250  -30.7571  -46.1864 H         1 UNK         0.3472 
    113 H113       21.1296  -29.4965  -44.9830 H         1 UNK         0.3472 
    114 H114       20.4990  -29.6508  -42.6484 H         1 UNK         0.0970 
    115 H115       21.8360  -28.6701  -43.1784 H         1 UNK         0.0970 
    116 H116       20.1138  -30.2762  -39.9859 H         1 UNK         0.0612 
    117 H117       20.4773  -28.9522  -38.9134 H         1 UNK         0.0612 
@<TRIPOS>BOND
     1    1    2 1    
     2    1   62 1    
     3    1   63 1    
     4    1   64 1    
     5    2    3 2    
     6    2    4 am   BACKBONE|DICT|INTERRES
     7    4    5 1    
     8    4   65 1    
     9    5    6 1    
    10    5   25 1    
    11    5   66 1    
    12    6    7 1    
    13    6   67 1    
    14    6   68 1    
    15    7    8 1    
    16    8    9 1    
    17    8   69 1    
    18    8   70 1    
    19    9   10 ar   
    20    9   14 ar   
    21   10   11 ar   
    22   10   71 1    
    23   11   12 ar   
    24   11   61 1    
    25   12   13 ar   
    26   12   72 1    
    27   13   14 ar   
    28   13   15 1    
    29   14   73 1    
    30   15   16 1    
    31   15   74 1    
    32   15   75 1    
    33   16   17 1    
    34   17   18 1    
    35   17   76 1    
    36   17   77 1    
    37   18   19 1    
    38   18   27 1    
    39   18   78 1    
    40   19   20 am   BACKBONE|DICT|INTERRES
    41   19   79 1    
    42   20   21 2    
    43   20   22 1    
    44   22   23 1    
    45   22   24 1    
    46   22   80 1    
    47   23   81 1    
    48   23   82 1    
    49   23   83 1    
    50   24   25 am   BACKBONE|DICT|INTERRES
    51   24   84 1    
    52   25   26 2    
    53   27   28 2    
    54   27   29 am   BACKBONE|DICT|INTERRES
    55   29   30 1    
    56   29   85 1    
    57   30   31 1    
    58   30   32 1    
    59   30   86 1    
    60   31   87 1    
    61   31   88 1    
    62   31   89 1    
    63   32   33 2    
    64   32   34 am   BACKBONE|DICT|INTERRES
    65   34   35 1    
    66   34   90 1    
    67   35   36 1    
    68   35   37 1    
    69   35   91 1    
    70   36   92 1    
    71   36   93 1    
    72   36   94 1    
    73   37   38 2    
    74   37   39 am   BACKBONE|DICT|INTERRES
    75   39   40 1    
    76   39   95 1    
    77   40   41 1    
    78   40   42 1    
    79   40   96 1    
    80   41   97 1    
    81   41   98 1    
    82   41   99 1    
    83   42   43 2    
    84   42   44 am   BACKBONE|DICT|INTERRES
    85   44   45 1    
    86   44  100 1    
    87   45   46 1    
    88   45   47 1    
    89   45  101 1    
    90   46  102 1    
    91   46  103 1    
    92   46  104 1    
    93   47   48 2    
    94   47   49 am   BACKBONE|DICT|INTERRES
    95   49   50 1    
    96   49  105 1    
    97   50   51 1    
    98   50   52 1    
    99   50  106 1    
   100   51  107 1    
   101   51  108 1    
   102   51  109 1    
   103   52   53 2    
   104   52   54 am   BACKBONE|DICT|INTERRES
   105   54   55 1    
   106   54  110 1    
   107   55   56 1    
   108   55   59 1    
   109   55  111 1    
   110   56   57 am   BACKBONE|DICT|INTERRES
   111   56   58 2    
   112   57  112 1    
   113   57  113 1    
   114   59   60 1    
   115   59  114 1    
   116   59  115 1    
   117   60   61 1    
   118   61  116 1    
   119   61  117 1    
@<TRIPOS>SUBSTRUCTURE
     1 UNK         1 GROUP             0       ****    0 ROOT    
