@<TRIPOS>MOLECULE
3R8
117   119    1
SMALL
USER_CHARGES


@<TRIPOS>ATOM
      1 CA         19.5846  -26.4034  -39.0217 C.3       0 UNK        -0.2013 
      2 C          19.0452  -25.8684  -40.3370 C.2       0 UNK         0.4866 
      3 O          18.7669  -24.6735  -40.4447 O.2       0 UNK        -0.5176 
      4 N          18.8884  -26.7461  -41.3353 N.am      1 UNK        -0.4884 
      5 CA         18.4401  -26.3943  -42.6866 C.3       1 UNK         0.0853 
      6 C6         18.0381  -27.6410  -43.5095 C.3       10 UNK        -0.0849 
      7 S7         16.7240  -28.6430  -42.7439 S.3       10 UNK        -0.2776 
      8 C8         16.2488  -29.7049  -44.1487 C.3       10 UNK         0.0316 
      9 C9         17.4416  -30.4450  -44.7427 C.ar      10 UNK        -0.0863 
     10 C10        17.9753  -31.5591  -44.0893 C.ar      10 UNK        -0.1009 
     11 C11        19.0652  -32.2452  -44.6325 C.ar      10 UNK        -0.0712 
     12 C12        19.6362  -31.7961  -45.8285 C.ar      10 UNK        -0.0894 
     13 C13        19.1107  -30.6836  -46.4958 C.ar      10 UNK        -0.0745 
     14 C14        18.0068  -30.0195  -45.9499 C.ar      10 UNK        -0.0972 
     15 C15        19.6943  -30.2468  -47.8377 C.3       10 UNK         0.0209 
     16 S16        20.0981  -28.4690  -47.9208 S.3       10 UNK        -0.2568 
     17 C17        21.6050  -28.3951  -46.8990 C.3       10 UNK        -0.0983 
     18 CA         22.1283  -26.9462  -46.6934 C.3       3 UNK         0.0876 
     19 N          21.0927  -26.0803  -46.1168 N.am      3 UNK        -0.4424 
     20 C          21.0677  -24.7413  -46.1187 C.2       2 UNK         0.4918 
     21 O          21.9279  -24.0514  -46.6680 O.2       2 UNK        -0.4875 
     22 CA         19.9174  -24.0368  -45.3697 C.3       2 UNK         0.0481 
     23 CB         18.9990  -23.3134  -46.3683 C.3       2 UNK        -0.1831 
     24 N          19.0947  -24.8929  -44.5044 N.am      2 UNK        -0.4498 
     25 C          19.5220  -25.5970  -43.4460 C.2       1 UNK         0.5027 
     26 O          20.7084  -25.6783  -43.1120 O.2       1 UNK        -0.4969 
     27 C          23.4380  -26.9061  -45.8627 C.2       3 UNK         0.5005 
     28 O          23.9116  -27.9484  -45.4091 O.2       3 UNK        -0.5279 
     29 N          23.9933  -25.6987  -45.6752 N.am      4 UNK        -0.4463 
     30 CA         25.2005  -25.3634  -44.9098 C.3       4 UNK         0.0283 
     31 CB         26.4567  -25.9763  -45.5661 C.3       4 UNK        -0.1875 
     32 C          25.0727  -25.7019  -43.4106 C.2       4 UNK         0.4949 
     33 O          25.9522  -26.3607  -42.8532 O.2       4 UNK        -0.5039 
     34 N          23.9775  -25.2292  -42.7918 N.am      5 UNK        -0.4663 
     35 CA         23.5960  -25.4273  -41.3835 C.3       5 UNK         0.0242 
     36 CB         24.5918  -24.7311  -40.4311 C.3       5 UNK        -0.1982 
     37 C          23.3826  -26.9165  -41.0554 C.2       5 UNK         0.5017 
     38 O          23.9820  -27.4538  -40.1210 O.2       5 UNK        -0.5012 
     39 N          22.5386  -27.5593  -41.8675 N.am      6 UNK        -0.4439 
     40 CA         22.2185  -28.9827  -41.8171 C.3       6 UNK         0.0297 
     41 CB         21.6836  -29.4141  -43.1924 C.3       6 UNK        -0.2006 
     42 C          21.2475  -29.3005  -40.6697 C.2       6 UNK         0.4892 
     43 O          20.0440  -29.4305  -40.8973 O.2       6 UNK        -0.5089 
     44 N          21.7911  -29.3747  -39.4500 N.am      7 UNK        -0.4243 
     45 CA         21.0760  -29.7948  -38.2433 C.3       7 UNK         0.0196 
     46 CB         21.5527  -28.9526  -37.0479 C.3       7 UNK        -0.2007 
     47 C          21.2861  -31.2877  -37.9519 C.2       7 UNK         0.5020 
     48 O          20.3514  -31.9538  -37.5072 O.2       7 UNK        -0.5147 
     49 N          22.5068  -31.7887  -38.1961 N.am      8 UNK        -0.4734 
     50 CA         22.9475  -33.1428  -37.8365 C.3       8 UNK         0.0238 
     51 CB         24.4604  -33.2652  -38.0819 C.3       8 UNK        -0.1912 
     52 C          22.1949  -34.2735  -38.5574 C.2       8 UNK         0.5038 
     53 O          22.0343  -35.3498  -37.9804 O.2       8 UNK        -0.5046 
     54 N          21.7487  -34.0088  -39.7904 N.am      9 UNK        -0.4200 
     55 CA         20.9290  -34.9204  -40.6004 C.3       9 UNK         0.0839 
     56 C          19.4020  -34.8532  -40.2989 C.2       9 UNK         0.5513 
     57 N          18.9339  -34.0190  -39.3766 N.am      9 UNK        -0.7519 
     58 O          18.6263  -35.5899  -40.9023 O.2       9 UNK        -0.4960 
     59 C59        21.2620  -34.7900  -42.1100 C.3       10 UNK        -0.0876 
     60 S60        20.9499  -33.1284  -42.8000 S.3       10 UNK        -0.2414 
     61 C61        19.5921  -33.4982  -43.9494 C.3       10 UNK         0.0169 
     62 H62        19.2697  -27.4332  -38.8608 H         1 UNK         0.0903 
     63 H63        20.6735  -26.3659  -39.0212 H         1 UNK         0.0903 
     64 H64        19.2195  -25.8076  -38.1855 H         1 UNK         0.0903 
     65 H65        19.1446  -27.7212  -41.1985 H         1 UNK         0.3096 
     66 H66        17.5633  -25.7503  -42.5857 H         1 UNK         0.1121 
     67 H67        18.8963  -28.2937  -43.6613 H         1 UNK         0.0849 
     68 H68        17.6956  -27.3483  -44.5040 H         1 UNK         0.0849 
     69 H69        15.5027  -30.4262  -43.8119 H         1 UNK         0.0865 
     70 H70        15.7578  -29.0948  -44.9086 H         1 UNK         0.0865 
     71 H71        17.5373  -31.8954  -43.1592 H         1 UNK         0.1346 
     72 H72        20.4764  -32.3309  -46.2501 H         1 UNK         0.1412 
     73 H73        17.5887  -29.1677  -46.4689 H         1 UNK         0.1426 
     74 H74        18.9650  -30.4712  -48.6170 H         1 UNK         0.0716 
     75 H75        20.5882  -30.8232  -48.0816 H         1 UNK         0.0716 
     76 H76        22.3676  -29.0104  -47.3802 H         1 UNK         0.0695 
     77 H77        21.3867  -28.8684  -45.9425 H         1 UNK         0.0695 
     78 H78        22.3803  -26.5493  -47.6794 H         1 UNK         0.0983 
     79 H79        20.3448  -26.5596  -45.6415 H         1 UNK         0.3095 
     80 H80        20.3787  -23.2833  -44.7284 H         1 UNK         0.0454 
     81 H81        18.4852  -24.0159  -47.0258 H         1 UNK         0.0851 
     82 H82        19.5673  -22.6315  -47.0027 H         1 UNK         0.0851 
     83 H83        18.2441  -22.7165  -45.8561 H         1 UNK         0.0851 
     84 H84        18.1072  -24.9040  -44.7176 H         1 UNK         0.2976 
     85 H85        23.4898  -24.9096  -46.0753 H         1 UNK         0.3116 
     86 H86        25.3037  -24.2787  -44.9663 H         1 UNK         0.0646 
     87 H87        26.5380  -25.6892  -46.6142 H         1 UNK         0.0847 
     88 H88        26.4520  -27.0656  -45.5157 H         1 UNK         0.0847 
     89 H89        27.3636  -25.6340  -45.0662 H         1 UNK         0.0847 
     90 H90        23.2991  -24.7339  -43.3544 H         1 UNK         0.3040 
     91 H91        22.6264  -24.9434  -41.2509 H         1 UNK         0.1015 
     92 H92        25.5819  -25.1861  -40.4707 H         1 UNK         0.0786 
     93 H93        24.2487  -24.7945  -39.3977 H         1 UNK         0.0786 
     94 H94        24.6984  -23.6737  -40.6728 H         1 UNK         0.0786 
     95 H95        22.0283  -26.9993  -42.5445 H         1 UNK         0.3172 
     96 H96        23.1342  -29.5486  -41.6325 H         1 UNK         0.0595 
     97 H97        21.0483  -28.6508  -43.6342 H         1 UNK         0.0839 
     98 H98        21.0976  -30.3303  -43.1392 H         1 UNK         0.0839 
     99 H99        22.5043  -29.6016  -43.8838 H         1 UNK         0.0839 
    100 H100       22.7684  -29.1244  -39.3540 H         1 UNK         0.2998 
    101 H101       20.0032  -29.6340  -38.3675 H         1 UNK         0.0822 
    102 H102       21.3704  -27.8907  -37.2081 H         1 UNK         0.0787 
    103 H103       21.0242  -29.2362  -36.1366 H         1 UNK         0.0787 
    104 H104       22.6194  -29.0810  -36.8593 H         1 UNK         0.0787 
    105 H105       23.2123  -31.1723  -38.5708 H         1 UNK         0.3055 
    106 H106       22.7644  -33.2730  -36.7673 H         1 UNK         0.1106 
    107 H107       25.0198  -32.5399  -37.4906 H         1 UNK         0.0828 
    108 H108       24.7141  -33.1124  -39.1317 H         1 UNK         0.0828 
    109 H109       24.8228  -34.2552  -37.8007 H         1 UNK         0.0828 
    110 H110       21.9040  -33.0901  -40.1782 H         1 UNK         0.2931 
    111 H111       21.2132  -35.9386  -40.3275 H         1 UNK         0.0412 
    112 H112       17.9432  -33.9981  -39.1937 H         1 UNK         0.3472 
    113 H113       19.5532  -33.4154  -38.8504 H         1 UNK         0.3472 
    114 H114       20.7198  -35.5434  -42.6844 H         1 UNK         0.0970 
    115 H115       22.3171  -35.0189  -42.2668 H         1 UNK         0.0970 
    116 H116       19.9396  -34.2106  -44.6992 H         1 UNK         0.0612 
    117 H117       18.7855  -33.9923  -43.4052 H         1 UNK         0.0612 
@<TRIPOS>BOND
     1    1    2 1    
     2    1   62 1    
     3    1   63 1    
     4    1   64 1    
     5    2    3 2    
     6    2    4 am   BACKBONE|DICT|INTERRES
     7    4    5 1    
     8    4   65 1    
     9    5    6 1    
    10    5   25 1    
    11    5   66 1    
    12    6    7 1    
    13    6   67 1    
    14    6   68 1    
    15    7    8 1    
    16    8    9 1    
    17    8   69 1    
    18    8   70 1    
    19    9   10 ar   
    20    9   14 ar   
    21   10   11 ar   
    22   10   71 1    
    23   11   12 ar   
    24   11   61 1    
    25   12   13 ar   
    26   12   72 1    
    27   13   14 ar   
    28   13   15 1    
    29   14   73 1    
    30   15   16 1    
    31   15   74 1    
    32   15   75 1    
    33   16   17 1    
    34   17   18 1    
    35   17   76 1    
    36   17   77 1    
    37   18   19 1    
    38   18   27 1    
    39   18   78 1    
    40   19   20 am   BACKBONE|DICT|INTERRES
    41   19   79 1    
    42   20   21 2    
    43   20   22 1    
    44   22   23 1    
    45   22   24 1    
    46   22   80 1    
    47   23   81 1    
    48   23   82 1    
    49   23   83 1    
    50   24   25 am   BACKBONE|DICT|INTERRES
    51   24   84 1    
    52   25   26 2    
    53   27   28 2    
    54   27   29 am   BACKBONE|DICT|INTERRES
    55   29   30 1    
    56   29   85 1    
    57   30   31 1    
    58   30   32 1    
    59   30   86 1    
    60   31   87 1    
    61   31   88 1    
    62   31   89 1    
    63   32   33 2    
    64   32   34 am   BACKBONE|DICT|INTERRES
    65   34   35 1    
    66   34   90 1    
    67   35   36 1    
    68   35   37 1    
    69   35   91 1    
    70   36   92 1    
    71   36   93 1    
    72   36   94 1    
    73   37   38 2    
    74   37   39 am   BACKBONE|DICT|INTERRES
    75   39   40 1    
    76   39   95 1    
    77   40   41 1    
    78   40   42 1    
    79   40   96 1    
    80   41   97 1    
    81   41   98 1    
    82   41   99 1    
    83   42   43 2    
    84   42   44 am   BACKBONE|DICT|INTERRES
    85   44   45 1    
    86   44  100 1    
    87   45   46 1    
    88   45   47 1    
    89   45  101 1    
    90   46  102 1    
    91   46  103 1    
    92   46  104 1    
    93   47   48 2    
    94   47   49 am   BACKBONE|DICT|INTERRES
    95   49   50 1    
    96   49  105 1    
    97   50   51 1    
    98   50   52 1    
    99   50  106 1    
   100   51  107 1    
   101   51  108 1    
   102   51  109 1    
   103   52   53 2    
   104   52   54 am   BACKBONE|DICT|INTERRES
   105   54   55 1    
   106   54  110 1    
   107   55   56 1    
   108   55   59 1    
   109   55  111 1    
   110   56   57 am   BACKBONE|DICT|INTERRES
   111   56   58 2    
   112   57  112 1    
   113   57  113 1    
   114   59   60 1    
   115   59  114 1    
   116   59  115 1    
   117   60   61 1    
   118   61  116 1    
   119   61  117 1    
@<TRIPOS>SUBSTRUCTURE
     1 UNK         1 GROUP             0       ****    0 ROOT    
