@<TRIPOS>MOLECULE
3R8
117   119    1
SMALL
USER_CHARGES


@<TRIPOS>ATOM
      1 CA         16.1801  -28.3087  -48.8485 C.3       0 UNK        -0.2013 
      2 C          17.6701  -28.5812  -48.7080 C.2       0 UNK         0.4866 
      3 O          18.2279  -29.3560  -49.4854 O.2       0 UNK        -0.5176 
      4 N          18.3173  -27.9493  -47.7246 N.am      1 UNK        -0.4884 
      5 CA         19.7494  -28.0394  -47.4428 C.3       1 UNK         0.0853 
      6 C6         20.1689  -29.4164  -46.8349 C.3       10 UNK        -0.0849 
      7 S7         19.9539  -29.6004  -45.0304 S.3       10 UNK        -0.2776 
      8 C8         18.2103  -30.1016  -44.9144 C.3       10 UNK         0.0316 
      9 C9         17.7052  -29.8053  -43.5160 C.ar      10 UNK        -0.0863 
     10 C10        17.9219  -30.7232  -42.4863 C.ar      10 UNK        -0.1009 
     11 C11        17.5886  -30.3958  -41.1692 C.ar      10 UNK        -0.0712 
     12 C12        16.9787  -29.1704  -40.8952 C.ar      10 UNK        -0.0894 
     13 C13        16.7503  -28.2495  -41.9209 C.ar      10 UNK        -0.0745 
     14 C14        17.1063  -28.5743  -43.2329 C.ar      10 UNK        -0.0972 
     15 C15        16.1963  -26.8749  -41.5893 C.3       10 UNK         0.0209 
     16 S16        17.4307  -25.8819  -40.6901 S.3       10 UNK        -0.2568 
     17 C17        18.6783  -25.5454  -41.9829 C.3       10 UNK        -0.0983 
     18 CA         19.8668  -26.5565  -42.0478 C.3       3 UNK         0.0876 
     19 N          20.5298  -26.5404  -43.3610 N.am      3 UNK        -0.4424 
     20 C          21.1610  -25.4887  -43.9104 C.2       2 UNK         0.4918 
     21 O          21.1800  -24.3597  -43.4177 O.2       2 UNK        -0.4875 
     22 CA         21.9181  -25.7197  -45.2334 C.3       2 UNK         0.0481 
     23 CB         23.3997  -26.0051  -44.9384 C.3       2 UNK        -0.1831 
     24 N          21.3741  -26.7911  -46.0744 N.am      2 UNK        -0.4498 
     25 C          20.1511  -26.7918  -46.6243 C.2       1 UNK         0.5027 
     26 O          19.3480  -25.8616  -46.4982 O.2       1 UNK        -0.4969 
     27 C          20.9067  -26.4056  -40.9076 C.2       3 UNK         0.5005 
     28 O          22.0953  -26.6417  -41.1319 O.2       3 UNK        -0.5279 
     29 N          20.4501  -26.0397  -39.7005 N.am      4 UNK        -0.4463 
     30 CA         21.2429  -25.6462  -38.5242 C.3       4 UNK         0.0283 
     31 CB         21.7926  -24.2193  -38.7321 C.3       4 UNK        -0.1875 
     32 C          22.3494  -26.6460  -38.1207 C.2       4 UNK         0.4949 
     33 O          23.4528  -26.2289  -37.7649 O.2       4 UNK        -0.5039 
     34 N          22.0328  -27.9473  -38.1997 N.am      5 UNK        -0.4663 
     35 CA         22.9222  -29.0898  -37.9377 C.3       5 UNK         0.0242 
     36 CB         23.3841  -29.1099  -36.4640 C.3       5 UNK        -0.1982 
     37 C          24.0988  -29.2251  -38.9332 C.2       5 UNK         0.5017 
     38 O          25.0877  -29.8814  -38.6020 O.2       5 UNK        -0.5012 
     39 N          23.9765  -28.6315  -40.1291 N.am      6 UNK        -0.4439 
     40 CA         24.9292  -28.7372  -41.2339 C.3       6 UNK         0.0297 
     41 CB         25.4162  -27.3236  -41.5999 C.3       6 UNK        -0.2006 
     42 C          24.2701  -29.4168  -42.4454 C.2       6 UNK         0.4892 
     43 O          23.0480  -29.5871  -42.4813 O.2       6 UNK        -0.5089 
     44 N          25.1086  -29.7785  -43.4283 N.am      7 UNK        -0.4243 
     45 CA         24.7664  -30.4732  -44.6749 C.3       7 UNK         0.0196 
     46 CB         23.9308  -29.5649  -45.6049 C.3       7 UNK        -0.2007 
     47 C          24.1346  -31.8483  -44.3920 C.2       7 UNK         0.5020 
     48 O          24.8226  -32.7175  -43.8558 O.2       7 UNK        -0.5147 
     49 N          22.8562  -32.0297  -44.7486 N.am      8 UNK        -0.4734 
     50 CA         22.0951  -33.2527  -44.4792 C.3       8 UNK         0.0238 
     51 CB         20.9080  -33.3366  -45.4529 C.3       8 UNK        -0.1912 
     52 C          21.6095  -33.3530  -43.0214 C.2       8 UNK         0.5038 
     53 O          21.2501  -34.4501  -42.5912 O.2       8 UNK        -0.5046 
     54 N          21.5900  -32.2265  -42.2970 N.am      9 UNK        -0.4200 
     55 CA         21.2391  -32.1537  -40.8752 C.3       9 UNK         0.0839 
     56 C          22.4005  -32.6134  -39.9491 C.2       9 UNK         0.5513 
     57 N          22.1096  -32.8786  -38.6832 N.am      9 UNK        -0.7519 
     58 O          23.5575  -32.7143  -40.3505 O.2       9 UNK        -0.4960 
     59 C59        20.7148  -30.7376  -40.5203 C.3       10 UNK        -0.0876 
     60 S60        19.4768  -30.7448  -39.1753 S.3       10 UNK        -0.2414 
     61 C61        17.9708  -31.3248  -40.0302 C.3       10 UNK         0.0169 
     62 H62        15.6184  -29.2372  -48.7497 H         1 UNK         0.0903 
     63 H63        15.8195  -27.6127  -48.0912 H         1 UNK         0.0903 
     64 H64        15.9669  -27.8838  -49.8290 H         1 UNK         0.0903 
     65 H65        17.8447  -27.2542  -47.1586 H         1 UNK         0.3096 
     66 H66        20.2633  -27.9317  -48.4009 H         1 UNK         0.1121 
     67 H67        19.6531  -30.2364  -47.3365 H         1 UNK         0.0849 
     68 H68        21.2241  -29.5883  -47.0481 H         1 UNK         0.0849 
     69 H69        17.6085  -29.5659  -45.6483 H         1 UNK         0.0865 
     70 H70        18.1110  -31.1630  -45.1453 H         1 UNK         0.0865 
     71 H71        18.4204  -31.6594  -42.6990 H         1 UNK         0.1346 
     72 H72        16.7401  -28.9066  -39.8737 H         1 UNK         0.1412 
     73 H73        16.9665  -27.8500  -44.0239 H         1 UNK         0.1426 
     74 H74        15.3069  -26.9850  -40.9673 H         1 UNK         0.0716 
     75 H75        15.8800  -26.3459  -42.4897 H         1 UNK         0.0716 
     76 H76        19.0473  -24.5288  -41.8370 H         1 UNK         0.0695 
     77 H77        18.1603  -25.5277  -42.9432 H         1 UNK         0.0695 
     78 H78        19.4681  -27.5658  -41.9430 H         1 UNK         0.0983 
     79 H79        20.5982  -27.4352  -43.8265 H         1 UNK         0.3095 
     80 H80        21.8607  -24.7938  -45.8094 H         1 UNK         0.0454 
     81 H81        23.5232  -26.9061  -44.3367 H         1 UNK         0.0851 
     82 H82        23.8485  -25.1836  -44.3782 H         1 UNK         0.0851 
     83 H83        23.9777  -26.1225  -45.8549 H         1 UNK         0.0851 
     84 H84        21.9675  -27.5937  -46.2188 H         1 UNK         0.2976 
     85 H85        19.4475  -25.9147  -39.6158 H         1 UNK         0.3116 
     86 H86        20.5477  -25.6125  -37.6841 H         1 UNK         0.0646 
     87 H87        22.5212  -24.1859  -39.5433 H         1 UNK         0.0847 
     88 H88        22.2874  -23.8512  -37.8325 H         1 UNK         0.0847 
     89 H89        20.9946  -23.5161  -38.9700 H         1 UNK         0.0847 
     90 H90        21.0987  -28.1802  -38.5089 H         1 UNK         0.3040 
     91 H91        22.3144  -29.9834  -38.0786 H         1 UNK         0.1015 
     92 H92        22.5394  -29.0171  -35.7814 H         1 UNK         0.0786 
     93 H93        24.0847  -28.3037  -36.2452 H         1 UNK         0.0786 
     94 H94        23.8875  -30.0476  -36.2254 H         1 UNK         0.0786 
     95 H95        23.1407  -28.0923  -40.3446 H         1 UNK         0.3172 
     96 H96        25.7910  -29.3401  -40.9414 H         1 UNK         0.0595 
     97 H97        24.6020  -26.6975  -41.9663 H         1 UNK         0.0839 
     98 H98        26.1785  -27.3536  -42.3790 H         1 UNK         0.0839 
     99 H99        25.8565  -26.8228  -40.7375 H         1 UNK         0.0839 
    100 H100       26.0963  -29.6203  -43.2850 H         1 UNK         0.2998 
    101 H101       25.7097  -30.6776  -45.1839 H         1 UNK         0.0822 
    102 H102       24.4876  -28.6648  -45.8639 H         1 UNK         0.0787 
    103 H103       23.6960  -30.0701  -46.5428 H         1 UNK         0.0787 
    104 H104       22.9937  -29.2553  -45.1433 H         1 UNK         0.0787 
    105 H105       22.3499  -31.2549  -45.1531 H         1 UNK         0.3055 
    106 H106       22.7431  -34.1133  -44.6617 H         1 UNK         0.1106 
    107 H107       20.3665  -34.2749  -45.3251 H         1 UNK         0.0828 
    108 H108       20.1950  -32.5291  -45.2926 H         1 UNK         0.0828 
    109 H109       21.2388  -33.2938  -46.4907 H         1 UNK         0.0828 
    110 H110       21.9801  -31.3795  -42.6953 H         1 UNK         0.2931 
    111 H111       20.4243  -32.8641  -40.7254 H         1 UNK         0.0412 
    112 H112       22.8442  -33.1786  -38.0616 H         1 UNK         0.3472 
    113 H113       21.1660  -32.7816  -38.3400 H         1 UNK         0.3472 
    114 H114       21.5360  -30.0765  -40.2526 H         1 UNK         0.0970 
    115 H115       20.2769  -30.2552  -41.3930 H         1 UNK         0.0970 
    116 H116       17.1529  -31.3774  -39.3102 H         1 UNK         0.0612 
    117 H117       18.1231  -32.3415  -40.3949 H         1 UNK         0.0612 
@<TRIPOS>BOND
     1    1    2 1    
     2    1   62 1    
     3    1   63 1    
     4    1   64 1    
     5    2    3 2    
     6    2    4 am   BACKBONE|DICT|INTERRES
     7    4    5 1    
     8    4   65 1    
     9    5    6 1    
    10    5   25 1    
    11    5   66 1    
    12    6    7 1    
    13    6   67 1    
    14    6   68 1    
    15    7    8 1    
    16    8    9 1    
    17    8   69 1    
    18    8   70 1    
    19    9   10 ar   
    20    9   14 ar   
    21   10   11 ar   
    22   10   71 1    
    23   11   12 ar   
    24   11   61 1    
    25   12   13 ar   
    26   12   72 1    
    27   13   14 ar   
    28   13   15 1    
    29   14   73 1    
    30   15   16 1    
    31   15   74 1    
    32   15   75 1    
    33   16   17 1    
    34   17   18 1    
    35   17   76 1    
    36   17   77 1    
    37   18   19 1    
    38   18   27 1    
    39   18   78 1    
    40   19   20 am   BACKBONE|DICT|INTERRES
    41   19   79 1    
    42   20   21 2    
    43   20   22 1    
    44   22   23 1    
    45   22   24 1    
    46   22   80 1    
    47   23   81 1    
    48   23   82 1    
    49   23   83 1    
    50   24   25 am   BACKBONE|DICT|INTERRES
    51   24   84 1    
    52   25   26 2    
    53   27   28 2    
    54   27   29 am   BACKBONE|DICT|INTERRES
    55   29   30 1    
    56   29   85 1    
    57   30   31 1    
    58   30   32 1    
    59   30   86 1    
    60   31   87 1    
    61   31   88 1    
    62   31   89 1    
    63   32   33 2    
    64   32   34 am   BACKBONE|DICT|INTERRES
    65   34   35 1    
    66   34   90 1    
    67   35   36 1    
    68   35   37 1    
    69   35   91 1    
    70   36   92 1    
    71   36   93 1    
    72   36   94 1    
    73   37   38 2    
    74   37   39 am   BACKBONE|DICT|INTERRES
    75   39   40 1    
    76   39   95 1    
    77   40   41 1    
    78   40   42 1    
    79   40   96 1    
    80   41   97 1    
    81   41   98 1    
    82   41   99 1    
    83   42   43 2    
    84   42   44 am   BACKBONE|DICT|INTERRES
    85   44   45 1    
    86   44  100 1    
    87   45   46 1    
    88   45   47 1    
    89   45  101 1    
    90   46  102 1    
    91   46  103 1    
    92   46  104 1    
    93   47   48 2    
    94   47   49 am   BACKBONE|DICT|INTERRES
    95   49   50 1    
    96   49  105 1    
    97   50   51 1    
    98   50   52 1    
    99   50  106 1    
   100   51  107 1    
   101   51  108 1    
   102   51  109 1    
   103   52   53 2    
   104   52   54 am   BACKBONE|DICT|INTERRES
   105   54   55 1    
   106   54  110 1    
   107   55   56 1    
   108   55   59 1    
   109   55  111 1    
   110   56   57 am   BACKBONE|DICT|INTERRES
   111   56   58 2    
   112   57  112 1    
   113   57  113 1    
   114   59   60 1    
   115   59  114 1    
   116   59  115 1    
   117   60   61 1    
   118   61  116 1    
   119   61  117 1    
@<TRIPOS>SUBSTRUCTURE
     1 UNK         1 GROUP             0       ****    0 ROOT    
