@<TRIPOS>MOLECULE
3R8
117   119    1
SMALL
USER_CHARGES


@<TRIPOS>ATOM
      1 CA         17.2215  -28.7388  -41.4633 C.3       0 UNK        -0.2013 
      2 C          16.9948  -27.5015  -42.3123 C.2       0 UNK         0.4866 
      3 O          16.8252  -26.4058  -41.7755 O.2       0 UNK        -0.5176 
      4 N          17.0031  -27.6610  -43.6412 N.am      1 UNK        -0.4884 
      5 CA         16.7866  -26.5913  -44.6247 C.3       1 UNK         0.0853 
      6 C6         16.2030  -27.1272  -45.9605 C.3       10 UNK        -0.0849 
      7 S7         14.7208  -28.1737  -45.7200 S.3       10 UNK        -0.2776 
      8 C8         15.2710  -29.7999  -46.3416 C.3       10 UNK         0.0316 
      9 C9         16.4480  -30.3626  -45.5543 C.ar      10 UNK        -0.0863 
     10 C10        16.2437  -31.0210  -44.3371 C.ar      10 UNK        -0.1009 
     11 C11        17.3293  -31.5339  -43.6180 C.ar      10 UNK        -0.0712 
     12 C12        18.6253  -31.3708  -44.1202 C.ar      10 UNK        -0.0894 
     13 C13        18.8420  -30.7135  -45.3326 C.ar      10 UNK        -0.0745 
     14 C14        17.7469  -30.2308  -46.0527 C.ar      10 UNK        -0.0972 
     15 C15        20.2490  -30.5440  -45.8879 C.3       10 UNK         0.0209 
     16 S16        20.6932  -28.7871  -46.0652 S.3       10 UNK        -0.2568 
     17 C17        21.8134  -28.4997  -44.6550 C.3       10 UNK        -0.0983 
     18 CA         22.4680  -27.0979  -44.7771 C.3       3 UNK         0.0876 
     19 N          21.4819  -26.0155  -44.6034 N.am      3 UNK        -0.4424 
     20 C          20.9620  -25.5761  -43.4467 C.2       2 UNK         0.4918 
     21 O          21.3163  -25.9729  -42.3364 O.2       2 UNK        -0.4875 
     22 CA         19.8540  -24.5143  -43.5318 C.3       2 UNK         0.0481 
     23 CB         20.1443  -23.3905  -44.5509 C.3       2 UNK        -0.1831 
     24 N          18.5491  -25.1470  -43.7356 N.am      2 UNK        -0.4498 
     25 C          18.0908  -25.7859  -44.8219 C.2       1 UNK         0.5027 
     26 O          18.6682  -25.7923  -45.9104 O.2       1 UNK        -0.4969 
     27 C          23.7337  -26.9033  -43.9061 C.2       3 UNK         0.5005 
     28 O          24.2315  -27.8438  -43.2753 O.2       3 UNK        -0.5279 
     29 N          24.1879  -25.6387  -43.8512 N.am      4 UNK        -0.4463 
     30 CA         25.3177  -25.0972  -43.0817 C.3       4 UNK         0.0283 
     31 CB         26.6463  -25.6605  -43.6286 C.3       4 UNK        -0.1875 
     32 C          25.2118  -25.2804  -41.5523 C.2       4 UNK         0.4949 
     33 O          26.2043  -25.0616  -40.8574 O.2       4 UNK        -0.5039 
     34 N          24.0416  -25.7210  -41.0585 N.am      5 UNK        -0.4663 
     35 CA         23.7825  -26.2408  -39.7085 C.3       5 UNK         0.0242 
     36 CB         23.8821  -25.1156  -38.6570 C.3       5 UNK        -0.1982 
     37 C          24.6516  -27.4697  -39.3516 C.2       5 UNK         0.5017 
     38 O          24.8381  -27.7551  -38.1677 O.2       5 UNK        -0.5012 
     39 N          25.1742  -28.1624  -40.3749 N.am      6 UNK        -0.4439 
     40 CA         26.1436  -29.2529  -40.2529 C.3       6 UNK         0.0297 
     41 CB         27.4721  -28.8299  -40.9021 C.3       6 UNK        -0.2006 
     42 C          25.6144  -30.5379  -40.8962 C.2       6 UNK         0.4892 
     43 O          25.7326  -31.6034  -40.2914 O.2       6 UNK        -0.5089 
     44 N          25.0080  -30.4159  -42.0853 N.am      7 UNK        -0.4243 
     45 CA         24.3332  -31.5110  -42.7881 C.3       7 UNK         0.0196 
     46 CB         24.6824  -31.4351  -44.2856 C.3       7 UNK        -0.2007 
     47 C          22.8130  -31.4921  -42.5401 C.2       7 UNK         0.5020 
     48 O          22.0802  -32.2334  -43.1938 O.2       7 UNK        -0.5147 
     49 N          22.3580  -30.6573  -41.5952 N.am      8 UNK        -0.4734 
     50 CA         20.9662  -30.4075  -41.2095 C.3       8 UNK         0.0238 
     51 CB         20.9238  -29.0865  -40.4184 C.3       8 UNK        -0.1912 
     52 C          20.2942  -31.5755  -40.4510 C.2       8 UNK         0.5038 
     53 O          19.6515  -31.3472  -39.4253 O.2       8 UNK        -0.5046 
     54 N          20.4424  -32.7993  -40.9737 N.am      9 UNK        -0.4200 
     55 CA         19.8766  -34.0621  -40.4624 C.3       9 UNK         0.0839 
     56 C          20.4036  -34.4957  -39.0593 C.2       9 UNK         0.5513 
     57 N          21.5376  -33.9855  -38.5941 N.am      9 UNK        -0.7519 
     58 O          19.7983  -35.3322  -38.3932 O.2       9 UNK        -0.4960 
     59 C59        18.3236  -34.1250  -40.5737 C.3       10 UNK        -0.0876 
     60 S60        17.7373  -33.9414  -42.2948 S.3       10 UNK        -0.2414 
     61 C61        17.1124  -32.2317  -42.2819 C.3       10 UNK         0.0169 
     62 H62        17.4304  -28.4662  -40.4291 H         1 UNK         0.0903 
     63 H63        16.3355  -29.3727  -41.4755 H         1 UNK         0.0903 
     64 H64        18.0686  -29.3087  -41.8405 H         1 UNK         0.0903 
     65 H65        17.1449  -28.5824  -44.0359 H         1 UNK         0.3096 
     66 H66        16.0488  -25.8962  -44.2167 H         1 UNK         0.1121 
     67 H67        16.9556  -27.6763  -46.5251 H         1 UNK         0.0849 
     68 H68        15.9173  -26.2896  -46.5993 H         1 UNK         0.0849 
     69 H69        14.4337  -30.4975  -46.2908 H         1 UNK         0.0865 
     70 H70        15.5242  -29.7126  -47.3996 H         1 UNK         0.0865 
     71 H71        15.2393  -31.1285  -43.9502 H         1 UNK         0.1346 
     72 H72        19.4647  -31.7760  -43.5742 H         1 UNK         0.1412 
     73 H73        17.9152  -29.7373  -47.0004 H         1 UNK         0.1426 
     74 H74        20.2959  -31.0158  -46.8702 H         1 UNK         0.0716 
     75 H75        20.9855  -31.0569  -45.2697 H         1 UNK         0.0716 
     76 H76        22.5639  -29.2875  -44.6668 H         1 UNK         0.0695 
     77 H77        21.2634  -28.5997  -43.7185 H         1 UNK         0.0695 
     78 H78        22.8387  -27.0034  -45.7995 H         1 UNK         0.0983 
     79 H79        21.0661  -25.6685  -45.4575 H         1 UNK         0.3095 
     80 H80        19.8016  -24.0429  -42.5492 H         1 UNK         0.0454 
     81 H81        19.3746  -22.6199  -44.5104 H         1 UNK         0.0851 
     82 H82        20.1975  -23.7462  -45.5793 H         1 UNK         0.0851 
     83 H83        21.0952  -22.9048  -44.3287 H         1 UNK         0.0851 
     84 H84        18.0033  -25.2820  -42.8882 H         1 UNK         0.2976 
     85 H85        23.6727  -24.9519  -44.3852 H         1 UNK         0.3116 
     86 H86        25.3164  -24.0200  -43.2547 H         1 UNK         0.0646 
     87 H87        26.7344  -26.7327  -43.4529 H         1 UNK         0.0847 
     88 H88        26.7381  -25.4893  -44.7010 H         1 UNK         0.0847 
     89 H89        27.5043  -25.1827  -43.1540 H         1 UNK         0.0847 
     90 H90        23.2705  -25.8393  -41.7089 H         1 UNK         0.3040 
     91 H91        22.7504  -26.5946  -39.7140 H         1 UNK         0.1015 
     92 H92        23.5408  -25.4609  -37.6803 H         1 UNK         0.0786 
     93 H93        23.2625  -24.2617  -38.9308 H         1 UNK         0.0786 
     94 H94        24.9065  -24.7626  -38.5354 H         1 UNK         0.0786 
     95 H95        24.9325  -27.8653  -41.3150 H         1 UNK         0.3172 
     96 H96        26.3390  -29.4719  -39.2010 H         1 UNK         0.0595 
     97 H97        27.3581  -28.6228  -41.9666 H         1 UNK         0.0839 
     98 H98        28.2233  -29.6144  -40.8005 H         1 UNK         0.0839 
     99 H99        27.8735  -27.9329  -40.4298 H         1 UNK         0.0839 
    100 H100       24.9211  -29.4993  -42.5171 H         1 UNK         0.2998 
    101 H101       24.6898  -32.4744  -42.4179 H         1 UNK         0.0822 
    102 H102       24.1359  -32.1821  -44.8630 H         1 UNK         0.0787 
    103 H103       24.4577  -30.4584  -44.7111 H         1 UNK         0.0787 
    104 H104       25.7443  -31.6226  -44.4451 H         1 UNK         0.0787 
    105 H105       23.0532  -30.1244  -41.0948 H         1 UNK         0.3055 
    106 H106       20.3908  -30.2573  -42.1232 H         1 UNK         0.1106 
    107 H107       21.3311  -28.2636  -41.0049 H         1 UNK         0.0828 
    108 H108       19.9031  -28.8123  -40.1521 H         1 UNK         0.0828 
    109 H109       21.4934  -29.1540  -39.4907 H         1 UNK         0.0828 
    110 H110       20.9996  -32.8740  -41.8208 H         1 UNK         0.2931 
    111 H111       20.2674  -34.8280  -41.1334 H         1 UNK         0.0412 
    112 H112       21.8776  -34.2789  -37.6916 H         1 UNK         0.3472 
    113 H113       22.0505  -33.3054  -39.1316 H         1 UNK         0.3472 
    114 H114       17.9574  -35.0911  -40.2223 H         1 UNK         0.0970 
    115 H115       17.8563  -33.3808  -39.9270 H         1 UNK         0.0970 
    116 H116       17.6155  -31.6569  -41.5062 H         1 UNK         0.0612 
    117 H117       16.0551  -32.2480  -42.0135 H         1 UNK         0.0612 
@<TRIPOS>BOND
     1    1    2 1    
     2    1   62 1    
     3    1   63 1    
     4    1   64 1    
     5    2    3 2    
     6    2    4 am   BACKBONE|DICT|INTERRES
     7    4    5 1    
     8    4   65 1    
     9    5    6 1    
    10    5   25 1    
    11    5   66 1    
    12    6    7 1    
    13    6   67 1    
    14    6   68 1    
    15    7    8 1    
    16    8    9 1    
    17    8   69 1    
    18    8   70 1    
    19    9   10 ar   
    20    9   14 ar   
    21   10   11 ar   
    22   10   71 1    
    23   11   12 ar   
    24   11   61 1    
    25   12   13 ar   
    26   12   72 1    
    27   13   14 ar   
    28   13   15 1    
    29   14   73 1    
    30   15   16 1    
    31   15   74 1    
    32   15   75 1    
    33   16   17 1    
    34   17   18 1    
    35   17   76 1    
    36   17   77 1    
    37   18   19 1    
    38   18   27 1    
    39   18   78 1    
    40   19   20 am   BACKBONE|DICT|INTERRES
    41   19   79 1    
    42   20   21 2    
    43   20   22 1    
    44   22   23 1    
    45   22   24 1    
    46   22   80 1    
    47   23   81 1    
    48   23   82 1    
    49   23   83 1    
    50   24   25 am   BACKBONE|DICT|INTERRES
    51   24   84 1    
    52   25   26 2    
    53   27   28 2    
    54   27   29 am   BACKBONE|DICT|INTERRES
    55   29   30 1    
    56   29   85 1    
    57   30   31 1    
    58   30   32 1    
    59   30   86 1    
    60   31   87 1    
    61   31   88 1    
    62   31   89 1    
    63   32   33 2    
    64   32   34 am   BACKBONE|DICT|INTERRES
    65   34   35 1    
    66   34   90 1    
    67   35   36 1    
    68   35   37 1    
    69   35   91 1    
    70   36   92 1    
    71   36   93 1    
    72   36   94 1    
    73   37   38 2    
    74   37   39 am   BACKBONE|DICT|INTERRES
    75   39   40 1    
    76   39   95 1    
    77   40   41 1    
    78   40   42 1    
    79   40   96 1    
    80   41   97 1    
    81   41   98 1    
    82   41   99 1    
    83   42   43 2    
    84   42   44 am   BACKBONE|DICT|INTERRES
    85   44   45 1    
    86   44  100 1    
    87   45   46 1    
    88   45   47 1    
    89   45  101 1    
    90   46  102 1    
    91   46  103 1    
    92   46  104 1    
    93   47   48 2    
    94   47   49 am   BACKBONE|DICT|INTERRES
    95   49   50 1    
    96   49  105 1    
    97   50   51 1    
    98   50   52 1    
    99   50  106 1    
   100   51  107 1    
   101   51  108 1    
   102   51  109 1    
   103   52   53 2    
   104   52   54 am   BACKBONE|DICT|INTERRES
   105   54   55 1    
   106   54  110 1    
   107   55   56 1    
   108   55   59 1    
   109   55  111 1    
   110   56   57 am   BACKBONE|DICT|INTERRES
   111   56   58 2    
   112   57  112 1    
   113   57  113 1    
   114   59   60 1    
   115   59  114 1    
   116   59  115 1    
   117   60   61 1    
   118   61  116 1    
   119   61  117 1    
@<TRIPOS>SUBSTRUCTURE
     1 UNK         1 GROUP             0       ****    0 ROOT    
