@<TRIPOS>MOLECULE
3R8
117   119    1
SMALL
USER_CHARGES


@<TRIPOS>ATOM
      1 CA         20.1635  -23.3426  -41.1967 C.3       0 UNK        -0.2013 
      2 C          18.8743  -23.9421  -41.7387 C.2       0 UNK         0.4866 
      3 O          17.9065  -23.2174  -41.9690 O.2       0 UNK        -0.5176 
      4 N          18.8602  -25.2648  -41.9485 N.am      1 UNK        -0.4884 
      5 CA         17.7473  -26.0187  -42.5428 C.3       1 UNK         0.0853 
      6 C6         17.9333  -27.5372  -42.2965 C.3       10 UNK        -0.0849 
      7 S7         16.4019  -28.5221  -42.4517 S.3       10 UNK        -0.2776 
      8 C8         16.4895  -29.1972  -44.1465 C.3       10 UNK         0.0316 
      9 C9         17.7269  -30.0530  -44.3895 C.ar      10 UNK        -0.0863 
     10 C10        17.7774  -31.3831  -43.9591 C.ar      10 UNK        -0.1009 
     11 C11        18.9166  -32.1667  -44.1857 C.ar      10 UNK        -0.0712 
     12 C12        20.0013  -31.6060  -44.8746 C.ar      10 UNK        -0.0894 
     13 C13        19.9650  -30.2758  -45.2994 C.ar      10 UNK        -0.0745 
     14 C14        18.8224  -29.5106  -45.0635 C.ar      10 UNK        -0.0972 
     15 C15        21.1556  -29.6549  -46.0092 C.3       10 UNK         0.0209 
     16 S16        22.2092  -28.7420  -44.8373 S.3       10 UNK        -0.2568 
     17 C17        23.0799  -27.6088  -45.9833 C.3       10 UNK        -0.0983 
     18 CA         22.5855  -26.1370  -45.9209 C.3       3 UNK         0.0876 
     19 N          21.1297  -26.0587  -46.0005 N.am      3 UNK        -0.4424 
     20 C          20.4208  -24.9837  -46.3663 C.2       2 UNK         0.4918 
     21 O          20.9085  -23.9558  -46.8356 O.2       2 UNK        -0.4875 
     22 CA         18.9142  -25.0674  -46.1000 C.3       2 UNK         0.0481 
     23 CB         18.2283  -25.9822  -47.1367 C.3       2 UNK        -0.1831 
     24 N          18.7354  -25.5262  -44.7210 N.am      2 UNK        -0.4498 
     25 C          17.5912  -25.6878  -44.0442 C.2       1 UNK         0.5027 
     26 O          16.4690  -25.5528  -44.5322 O.2       1 UNK        -0.4969 
     27 C          23.0811  -25.4338  -44.6418 C.2       3 UNK         0.5005 
     28 O          22.3853  -25.4502  -43.6197 O.2       3 UNK        -0.5279 
     29 N          24.3057  -24.8906  -44.7023 N.am      4 UNK        -0.4463 
     30 CA         25.0019  -24.2465  -43.5800 C.3       4 UNK         0.0283 
     31 CB         26.2722  -23.5554  -44.1015 C.3       4 UNK        -0.1875 
     32 C          25.3476  -25.2061  -42.4245 C.2       4 UNK         0.4949 
     33 O          25.5789  -24.7453  -41.3071 O.2       4 UNK        -0.5039 
     34 N          25.3497  -26.5178  -42.7041 N.am      5 UNK        -0.4663 
     35 CA         25.4748  -27.5945  -41.7188 C.3       5 UNK         0.0242 
     36 CB         25.6996  -28.9229  -42.4601 C.3       5 UNK        -0.1982 
     37 C          24.2611  -27.7092  -40.7755 C.2       5 UNK         0.5017 
     38 O          24.4034  -28.2936  -39.7014 O.2       5 UNK        -0.5012 
     39 N          23.1091  -27.1509  -41.1862 N.am      6 UNK        -0.4439 
     40 CA         21.8346  -27.1139  -40.4639 C.3       6 UNK         0.0297 
     41 CB         21.9364  -26.2147  -39.2137 C.3       6 UNK        -0.2006 
     42 C          21.2782  -28.5178  -40.1628 C.2       6 UNK         0.4892 
     43 O          20.9188  -28.8092  -39.0206 O.2       6 UNK        -0.5089 
     44 N          21.2109  -29.3471  -41.2140 N.am      7 UNK        -0.4243 
     45 CA         20.7468  -30.7358  -41.2121 C.3       7 UNK         0.0196 
     46 CB         19.2488  -30.8318  -40.8389 C.3       7 UNK        -0.2007 
     47 C          21.6669  -31.6468  -40.3802 C.2       7 UNK         0.5020 
     48 O          22.8198  -31.8353  -40.7695 O.2       7 UNK        -0.5147 
     49 N          21.1328  -32.2229  -39.2906 N.am      8 UNK        -0.4734 
     50 CA         21.7346  -33.2695  -38.4486 C.3       8 UNK         0.0238 
     51 CB         22.9994  -32.7531  -37.7288 C.3       8 UNK        -0.1912 
     52 C          21.9710  -34.5799  -39.2293 C.2       8 UNK         0.5038 
     53 O          22.9760  -35.2603  -39.0147 O.2       8 UNK        -0.5046 
     54 N          21.0355  -34.8918  -40.1358 N.am      9 UNK        -0.4200 
     55 CA         21.0946  -36.0193  -41.0795 C.3       9 UNK         0.0839 
     56 C          20.7959  -37.4134  -40.4556 C.2       9 UNK         0.5513 
     57 N          20.3462  -37.5061  -39.2098 N.am      9 UNK        -0.7519 
     58 O          20.9811  -38.4323  -41.1161 O.2       9 UNK        -0.4960 
     59 C59        20.2068  -35.7631  -42.3286 C.3       10 UNK        -0.0876 
     60 S60        20.5960  -34.1768  -43.1468 S.3       10 UNK        -0.2414 
     61 C61        18.9442  -33.6112  -43.6836 C.3       10 UNK         0.0169 
     62 H62        21.0190  -23.9945  -41.3746 H         1 UNK         0.0903 
     63 H63        20.3685  -22.3883  -41.6813 H         1 UNK         0.0903 
     64 H64        20.0774  -23.1694  -40.1243 H         1 UNK         0.0903 
     65 H65        19.6869  -25.7979  -41.7278 H         1 UNK         0.3096 
     66 H66        16.8305  -25.6976  -42.0422 H         1 UNK         0.1121 
     67 H67        18.7338  -27.9474  -42.9107 H         1 UNK         0.0849 
     68 H68        18.2667  -27.6907  -41.2686 H         1 UNK         0.0849 
     69 H69        15.5970  -29.7980  -44.3275 H         1 UNK         0.0865 
     70 H70        16.4437  -28.3773  -44.8646 H         1 UNK         0.0865 
     71 H71        16.9301  -31.8032  -43.4343 H         1 UNK         0.1346 
     72 H72        20.8864  -32.1959  -45.0674 H         1 UNK         0.1412 
     73 H73        18.7900  -28.4830  -45.3915 H         1 UNK         0.1426 
     74 H74        20.7977  -28.9850  -46.7927 H         1 UNK         0.0716 
     75 H75        21.7512  -30.4210  -46.5081 H         1 UNK         0.0716 
     76 H76        24.1507  -27.6707  -45.7808 H         1 UNK         0.0695 
     77 H77        22.9668  -27.9800  -47.0030 H         1 UNK         0.0695 
     78 H78        23.0001  -25.6020  -46.7785 H         1 UNK         0.0983 
     79 H79        20.6473  -26.8524  -45.6088 H         1 UNK         0.3095 
     80 H80        18.4940  -24.0630  -46.1784 H         1 UNK         0.0454 
     81 H81        18.4043  -25.6123  -48.1476 H         1 UNK         0.0851 
     82 H82        18.6038  -27.0037  -47.1020 H         1 UNK         0.0851 
     83 H83        17.1481  -26.0171  -47.0007 H         1 UNK         0.0851 
     84 H84        19.5926  -25.5821  -44.1860 H         1 UNK         0.2976 
     85 H85        24.8114  -24.9285  -45.5766 H         1 UNK         0.3116 
     86 H86        24.3377  -23.4805  -43.1738 H         1 UNK         0.0646 
     87 H87        26.7948  -23.0392  -43.2948 H         1 UNK         0.0847 
     88 H88        26.0370  -22.8084  -44.8598 H         1 UNK         0.0847 
     89 H89        26.9724  -24.2697  -44.5366 H         1 UNK         0.0847 
     90 H90        25.1732  -26.7971  -43.6574 H         1 UNK         0.3040 
     91 H91        26.3504  -27.3887  -41.0989 H         1 UNK         0.1015 
     92 H92        26.5988  -28.8886  -43.0755 H         1 UNK         0.0786 
     93 H93        24.8572  -29.1730  -43.1065 H         1 UNK         0.0786 
     94 H94        25.8221  -29.7470  -41.7555 H         1 UNK         0.0786 
     95 H95        23.1060  -26.6820  -42.0868 H         1 UNK         0.3172 
     96 H96        21.1252  -26.6473  -41.1452 H         1 UNK         0.0595 
     97 H97        22.3124  -25.2233  -39.4658 H         1 UNK         0.0839 
     98 H98        22.6002  -26.6417  -38.4611 H         1 UNK         0.0839 
     99 H99        20.9595  -26.0832  -38.7467 H         1 UNK         0.0839 
    100 H100       21.5842  -29.0227  -42.0957 H         1 UNK         0.2998 
    101 H101       20.8451  -31.0816  -42.2412 H         1 UNK         0.0822 
    102 H102       18.6473  -30.2302  -41.5163 H         1 UNK         0.0787 
    103 H103       18.8865  -31.8567  -40.9262 H         1 UNK         0.0787 
    104 H104       19.0399  -30.4866  -39.8263 H         1 UNK         0.0787 
    105 H105       20.1869  -31.9586  -39.0503 H         1 UNK         0.3055 
    106 H106       20.9984  -33.5089  -37.6794 H         1 UNK         0.1106 
    107 H107       23.8185  -32.5697  -38.4246 H         1 UNK         0.0828 
    108 H108       22.8002  -31.8243  -37.1942 H         1 UNK         0.0828 
    109 H109       23.3549  -33.4787  -36.9963 H         1 UNK         0.0828 
    110 H110       20.2496  -34.2699  -40.2449 H         1 UNK         0.2931 
    111 H111       22.1262  -36.0767  -41.4327 H         1 UNK         0.0412 
    112 H112       20.1605  -38.4160  -38.8172 H         1 UNK         0.3472 
    113 H113       20.1954  -36.6773  -38.6577 H         1 UNK         0.3472 
    114 H114       19.1518  -35.7833  -42.0496 H         1 UNK         0.0970 
    115 H115       20.3412  -36.5588  -43.0639 H         1 UNK         0.0970 
    116 H116       18.2546  -33.7174  -42.8447 H         1 UNK         0.0612 
    117 H117       18.5828  -34.2687  -44.4752 H         1 UNK         0.0612 
@<TRIPOS>BOND
     1    1    2 1    
     2    1   62 1    
     3    1   63 1    
     4    1   64 1    
     5    2    3 2    
     6    2    4 am   BACKBONE|DICT|INTERRES
     7    4    5 1    
     8    4   65 1    
     9    5    6 1    
    10    5   25 1    
    11    5   66 1    
    12    6    7 1    
    13    6   67 1    
    14    6   68 1    
    15    7    8 1    
    16    8    9 1    
    17    8   69 1    
    18    8   70 1    
    19    9   10 ar   
    20    9   14 ar   
    21   10   11 ar   
    22   10   71 1    
    23   11   12 ar   
    24   11   61 1    
    25   12   13 ar   
    26   12   72 1    
    27   13   14 ar   
    28   13   15 1    
    29   14   73 1    
    30   15   16 1    
    31   15   74 1    
    32   15   75 1    
    33   16   17 1    
    34   17   18 1    
    35   17   76 1    
    36   17   77 1    
    37   18   19 1    
    38   18   27 1    
    39   18   78 1    
    40   19   20 am   BACKBONE|DICT|INTERRES
    41   19   79 1    
    42   20   21 2    
    43   20   22 1    
    44   22   23 1    
    45   22   24 1    
    46   22   80 1    
    47   23   81 1    
    48   23   82 1    
    49   23   83 1    
    50   24   25 am   BACKBONE|DICT|INTERRES
    51   24   84 1    
    52   25   26 2    
    53   27   28 2    
    54   27   29 am   BACKBONE|DICT|INTERRES
    55   29   30 1    
    56   29   85 1    
    57   30   31 1    
    58   30   32 1    
    59   30   86 1    
    60   31   87 1    
    61   31   88 1    
    62   31   89 1    
    63   32   33 2    
    64   32   34 am   BACKBONE|DICT|INTERRES
    65   34   35 1    
    66   34   90 1    
    67   35   36 1    
    68   35   37 1    
    69   35   91 1    
    70   36   92 1    
    71   36   93 1    
    72   36   94 1    
    73   37   38 2    
    74   37   39 am   BACKBONE|DICT|INTERRES
    75   39   40 1    
    76   39   95 1    
    77   40   41 1    
    78   40   42 1    
    79   40   96 1    
    80   41   97 1    
    81   41   98 1    
    82   41   99 1    
    83   42   43 2    
    84   42   44 am   BACKBONE|DICT|INTERRES
    85   44   45 1    
    86   44  100 1    
    87   45   46 1    
    88   45   47 1    
    89   45  101 1    
    90   46  102 1    
    91   46  103 1    
    92   46  104 1    
    93   47   48 2    
    94   47   49 am   BACKBONE|DICT|INTERRES
    95   49   50 1    
    96   49  105 1    
    97   50   51 1    
    98   50   52 1    
    99   50  106 1    
   100   51  107 1    
   101   51  108 1    
   102   51  109 1    
   103   52   53 2    
   104   52   54 am   BACKBONE|DICT|INTERRES
   105   54   55 1    
   106   54  110 1    
   107   55   56 1    
   108   55   59 1    
   109   55  111 1    
   110   56   57 am   BACKBONE|DICT|INTERRES
   111   56   58 2    
   112   57  112 1    
   113   57  113 1    
   114   59   60 1    
   115   59  114 1    
   116   59  115 1    
   117   60   61 1    
   118   61  116 1    
   119   61  117 1    
@<TRIPOS>SUBSTRUCTURE
     1 UNK         1 GROUP             0       ****    0 ROOT    
