@<TRIPOS>MOLECULE
3R8
117   119    1
SMALL
USER_CHARGES


@<TRIPOS>ATOM
      1 CA         15.6531  -28.0169  -43.5136 C.3       0 UNK        -0.2013 
      2 C          16.4207  -27.0968  -44.4502 C.2       0 UNK         0.4866 
      3 O          16.1123  -25.9073  -44.5332 O.2       0 UNK        -0.5176 
      4 N          17.4209  -27.6312  -45.1608 N.am      1 UNK        -0.4884 
      5 CA         18.2286  -26.9383  -46.1718 C.3       1 UNK         0.0853 
      6 C6         18.7491  -27.9272  -47.2514 C.3       10 UNK        -0.0849 
      7 S7         19.8779  -29.2435  -46.6619 S.3       10 UNK        -0.2776 
      8 C8         18.7557  -30.6533  -46.3587 C.3       10 UNK         0.0316 
      9 C9         18.3264  -30.8632  -44.9038 C.ar      10 UNK        -0.0863 
     10 C10        17.3623  -31.8408  -44.6399 C.ar      10 UNK        -0.1009 
     11 C11        16.9869  -32.1434  -43.3280 C.ar      10 UNK        -0.0712 
     12 C12        17.5459  -31.4261  -42.2678 C.ar      10 UNK        -0.0894 
     13 C13        18.5070  -30.4440  -42.5115 C.ar      10 UNK        -0.0745 
     14 C14        18.8963  -30.1699  -43.8258 C.ar      10 UNK        -0.0972 
     15 C15        19.1514  -29.7006  -41.3551 C.3       10 UNK         0.0209 
     16 S16        18.3306  -28.1068  -41.0691 S.3       10 UNK        -0.2568 
     17 C17        19.6007  -27.2558  -40.0783 C.3       10 UNK        -0.0983 
     18 CA         20.6486  -26.5514  -40.9733 C.3       3 UNK         0.0876 
     19 N          20.0271  -25.6092  -41.9152 N.am      3 UNK        -0.4424 
     20 C          20.6438  -24.9578  -42.9097 C.2       2 UNK         0.4918 
     21 O          21.8636  -24.9665  -43.0835 O.2       2 UNK        -0.4875 
     22 CA         19.7160  -24.1908  -43.8673 C.3       2 UNK         0.0481 
     23 CB         20.4735  -23.1899  -44.7656 C.3       2 UNK        -0.1831 
     24 N          18.8974  -25.1171  -44.6606 N.am      2 UNK        -0.4498 
     25 C          19.3195  -26.0312  -45.5490 C.2       1 UNK         0.5027 
     26 O          20.4987  -26.1650  -45.8782 O.2       1 UNK        -0.4969 
     27 C          21.7995  -25.9712  -40.1242 C.2       3 UNK         0.5005 
     28 O          22.6035  -26.7485  -39.6080 O.2       3 UNK        -0.5279 
     29 N          21.9195  -24.6365  -40.0524 N.am      4 UNK        -0.4463 
     30 CA         23.0716  -23.9121  -39.5003 C.3       4 UNK         0.0283 
     31 CB         22.7934  -22.4017  -39.5613 C.3       4 UNK        -0.1875 
     32 C          24.4116  -24.2390  -40.1952 C.2       4 UNK         0.4949 
     33 O          25.4626  -24.0754  -39.5763 O.2       4 UNK        -0.5039 
     34 N          24.3563  -24.7330  -41.4421 N.am      5 UNK        -0.4663 
     35 CA         25.4951  -25.2768  -42.1889 C.3       5 UNK         0.0242 
     36 CB         25.1323  -25.3062  -43.6837 C.3       5 UNK        -0.1982 
     37 C          25.9471  -26.6761  -41.7147 C.2       5 UNK         0.5017 
     38 O          26.9397  -27.1810  -42.2402 O.2       5 UNK        -0.5012 
     39 N          25.2234  -27.2810  -40.7574 N.am      6 UNK        -0.4439 
     40 CA         25.4432  -28.6078  -40.1679 C.3       6 UNK         0.0297 
     41 CB         26.8097  -28.6924  -39.4535 C.3       6 UNK        -0.2006 
     42 C          25.2015  -29.7583  -41.1638 C.2       6 UNK         0.4892 
     43 O          25.9186  -30.7600  -41.1363 O.2       6 UNK        -0.5089 
     44 N          24.1784  -29.5972  -42.0167 N.am      7 UNK        -0.4243 
     45 CA         23.7290  -30.5995  -42.9893 C.3       7 UNK         0.0196 
     46 CB         22.7255  -29.9519  -43.9570 C.3       7 UNK        -0.2007 
     47 C          23.1219  -31.8522  -42.3308 C.2       7 UNK         0.5020 
     48 O          23.3119  -32.9556  -42.8429 O.2       7 UNK        -0.5147 
     49 N          22.4099  -31.6530  -41.2087 N.am      8 UNK        -0.4734 
     50 CA         21.8704  -32.6699  -40.2885 C.3       8 UNK         0.0238 
     51 CB         23.0288  -33.3026  -39.4884 C.3       8 UNK        -0.1912 
     52 C          20.9610  -33.7432  -40.9289 C.2       8 UNK         0.5038 
     53 O          20.8285  -34.8344  -40.3716 O.2       8 UNK        -0.5046 
     54 N          20.3537  -33.4235  -42.0790 N.am      9 UNK        -0.4200 
     55 CA         19.5694  -34.3408  -42.9214 C.3       9 UNK         0.0839 
     56 C          20.4077  -35.4747  -43.5898 C.2       9 UNK         0.5513 
     57 N          21.7240  -35.3363  -43.7092 N.am      9 UNK        -0.7519 
     58 O          19.8643  -36.4842  -44.0306 O.2       9 UNK        -0.4960 
     59 C59        18.2682  -34.8383  -42.2151 C.3       10 UNK        -0.0876 
     60 S60        16.8322  -34.9098  -43.3450 S.3       10 UNK        -0.2414 
     61 C61        16.0321  -33.2952  -43.0529 C.3       10 UNK         0.0169 
     62 H62        15.6677  -27.6193  -42.4994 H         1 UNK         0.0903 
     63 H63        14.6146  -28.0950  -43.8333 H         1 UNK         0.0903 
     64 H64        16.0765  -29.0206  -43.4897 H         1 UNK         0.0903 
     65 H65        17.6646  -28.6022  -45.0144 H         1 UNK         0.3096 
     66 H66        17.5636  -26.2497  -46.6989 H         1 UNK         0.1121 
     67 H67        19.2746  -27.3720  -48.0307 H         1 UNK         0.0849 
     68 H68        17.9014  -28.3863  -47.7618 H         1 UNK         0.0849 
     69 H69        17.8733  -30.5683  -46.9943 H         1 UNK         0.0865 
     70 H70        19.2723  -31.5574  -46.6842 H         1 UNK         0.0865 
     71 H71        16.9356  -32.4090  -45.4557 H         1 UNK         0.1346 
     72 H72        17.2596  -31.6559  -41.2506 H         1 UNK         0.1412 
     73 H73        19.6498  -29.4145  -43.9930 H         1 UNK         0.1426 
     74 H74        20.2074  -29.5410  -41.5722 H         1 UNK         0.0716 
     75 H75        19.1117  -30.2964  -40.4417 H         1 UNK         0.0716 
     76 H76        20.0729  -27.9829  -39.4140 H         1 UNK         0.0695 
     77 H77        19.1015  -26.5313  -39.4322 H         1 UNK         0.0695 
     78 H78        21.1186  -27.3164  -41.5942 H         1 UNK         0.0983 
     79 H79        19.0202  -25.5530  -41.8611 H         1 UNK         0.3095 
     80 H80        19.0239  -23.6153  -43.2507 H         1 UNK         0.0454 
     81 H81        21.2157  -23.6802  -45.3962 H         1 UNK         0.0851 
     82 H82        21.0045  -22.4538  -44.1609 H         1 UNK         0.0851 
     83 H83        19.7900  -22.6439  -45.4153 H         1 UNK         0.0851 
     84 H84        17.8998  -25.1159  -44.4625 H         1 UNK         0.2976 
     85 H85        21.2142  -24.0789  -40.5117 H         1 UNK         0.3116 
     86 H86        23.1704  -24.2024  -38.4524 H         1 UNK         0.0646 
     87 H87        22.6626  -22.0561  -40.5876 H         1 UNK         0.0847 
     88 H88        23.6203  -21.8351  -39.1306 H         1 UNK         0.0847 
     89 H89        21.8972  -22.1382  -38.9993 H         1 UNK         0.0847 
     90 H90        23.4508  -24.8037  -41.8990 H         1 UNK         0.3040 
     91 H91        26.3457  -24.6046  -42.0560 H         1 UNK         0.1015 
     92 H92        24.3088  -25.9928  -43.8850 H         1 UNK         0.0786 
     93 H93        25.9808  -25.6290  -44.2885 H         1 UNK         0.0786 
     94 H94        24.8385  -24.3191  -44.0413 H         1 UNK         0.0786 
     95 H95        24.4067  -26.7939  -40.3983 H         1 UNK         0.3172 
     96 H96        24.6755  -28.7181  -39.4005 H         1 UNK         0.0595 
     97 H97        27.6410  -28.6694  -40.1586 H         1 UNK         0.0839 
     98 H98        26.8953  -29.6196  -38.8856 H         1 UNK         0.0839 
     99 H99        26.9418  -27.8700  -38.7505 H         1 UNK         0.0839 
    100 H100       23.6688  -28.7272  -41.9844 H         1 UNK         0.2998 
    101 H101       24.5986  -30.9242  -43.5649 H         1 UNK         0.0822 
    102 H102       22.3270  -30.6829  -44.6625 H         1 UNK         0.0787 
    103 H103       21.8812  -29.5132  -43.4273 H         1 UNK         0.0787 
    104 H104       23.1947  -29.1619  -44.5440 H         1 UNK         0.0787 
    105 H105       22.3175  -30.6982  -40.8934 H         1 UNK         0.3055 
    106 H106       21.2348  -32.1361  -39.5800 H         1 UNK         0.1106 
    107 H107       22.6562  -33.9552  -38.6978 H         1 UNK         0.0828 
    108 H108       23.6769  -33.9024  -40.1285 H         1 UNK         0.0828 
    109 H109       23.6448  -32.5407  -39.0106 H         1 UNK         0.0828 
    110 H110       20.5276  -32.5110  -42.4724 H         1 UNK         0.2931 
    111 H111       19.2761  -33.7147  -43.7628 H         1 UNK         0.0412 
    112 H112       22.2578  -36.0687  -44.1493 H         1 UNK         0.3472 
    113 H113       22.1967  -34.5066  -43.3631 H         1 UNK         0.3472 
    114 H114       18.4187  -35.8213  -41.7652 H         1 UNK         0.0970 
    115 H115       18.0058  -34.1851  -41.3822 H         1 UNK         0.0970 
    116 H116       15.6607  -33.2581  -42.0276 H         1 UNK         0.0612 
    117 H117       15.1592  -33.2076  -43.7012 H         1 UNK         0.0612 
@<TRIPOS>BOND
     1    1    2 1    
     2    1   62 1    
     3    1   63 1    
     4    1   64 1    
     5    2    3 2    
     6    2    4 am   BACKBONE|DICT|INTERRES
     7    4    5 1    
     8    4   65 1    
     9    5    6 1    
    10    5   25 1    
    11    5   66 1    
    12    6    7 1    
    13    6   67 1    
    14    6   68 1    
    15    7    8 1    
    16    8    9 1    
    17    8   69 1    
    18    8   70 1    
    19    9   10 ar   
    20    9   14 ar   
    21   10   11 ar   
    22   10   71 1    
    23   11   12 ar   
    24   11   61 1    
    25   12   13 ar   
    26   12   72 1    
    27   13   14 ar   
    28   13   15 1    
    29   14   73 1    
    30   15   16 1    
    31   15   74 1    
    32   15   75 1    
    33   16   17 1    
    34   17   18 1    
    35   17   76 1    
    36   17   77 1    
    37   18   19 1    
    38   18   27 1    
    39   18   78 1    
    40   19   20 am   BACKBONE|DICT|INTERRES
    41   19   79 1    
    42   20   21 2    
    43   20   22 1    
    44   22   23 1    
    45   22   24 1    
    46   22   80 1    
    47   23   81 1    
    48   23   82 1    
    49   23   83 1    
    50   24   25 am   BACKBONE|DICT|INTERRES
    51   24   84 1    
    52   25   26 2    
    53   27   28 2    
    54   27   29 am   BACKBONE|DICT|INTERRES
    55   29   30 1    
    56   29   85 1    
    57   30   31 1    
    58   30   32 1    
    59   30   86 1    
    60   31   87 1    
    61   31   88 1    
    62   31   89 1    
    63   32   33 2    
    64   32   34 am   BACKBONE|DICT|INTERRES
    65   34   35 1    
    66   34   90 1    
    67   35   36 1    
    68   35   37 1    
    69   35   91 1    
    70   36   92 1    
    71   36   93 1    
    72   36   94 1    
    73   37   38 2    
    74   37   39 am   BACKBONE|DICT|INTERRES
    75   39   40 1    
    76   39   95 1    
    77   40   41 1    
    78   40   42 1    
    79   40   96 1    
    80   41   97 1    
    81   41   98 1    
    82   41   99 1    
    83   42   43 2    
    84   42   44 am   BACKBONE|DICT|INTERRES
    85   44   45 1    
    86   44  100 1    
    87   45   46 1    
    88   45   47 1    
    89   45  101 1    
    90   46  102 1    
    91   46  103 1    
    92   46  104 1    
    93   47   48 2    
    94   47   49 am   BACKBONE|DICT|INTERRES
    95   49   50 1    
    96   49  105 1    
    97   50   51 1    
    98   50   52 1    
    99   50  106 1    
   100   51  107 1    
   101   51  108 1    
   102   51  109 1    
   103   52   53 2    
   104   52   54 am   BACKBONE|DICT|INTERRES
   105   54   55 1    
   106   54  110 1    
   107   55   56 1    
   108   55   59 1    
   109   55  111 1    
   110   56   57 am   BACKBONE|DICT|INTERRES
   111   56   58 2    
   112   57  112 1    
   113   57  113 1    
   114   59   60 1    
   115   59  114 1    
   116   59  115 1    
   117   60   61 1    
   118   61  116 1    
   119   61  117 1    
@<TRIPOS>SUBSTRUCTURE
     1 UNK         1 GROUP             0       ****    0 ROOT    
