@<TRIPOS>MOLECULE
3R8
117   119    1
SMALL
USER_CHARGES


@<TRIPOS>ATOM
      1 CA         16.0819  -22.4418  -41.2851 C.3       0 UNK        -0.2013 
      2 C          16.0389  -23.3002  -42.5403 C.2       0 UNK         0.4866 
      3 O          15.2926  -22.9892  -43.4687 O.2       0 UNK        -0.5176 
      4 N          16.8306  -24.3805  -42.5737 N.am      1 UNK        -0.4884 
      5 CA         16.9213  -25.3208  -43.6981 C.3       1 UNK         0.0853 
      6 C6         17.7077  -26.5991  -43.3122 C.3       10 UNK        -0.0849 
      7 S7         16.7606  -27.7066  -42.2191 S.3       10 UNK        -0.2776 
      8 C8         15.9925  -28.8416  -43.4239 C.3       10 UNK         0.0316 
      9 C9         17.0044  -29.7592  -44.1017 C.ar      10 UNK        -0.0863 
     10 C10        17.4581  -30.9102  -43.4497 C.ar      10 UNK        -0.1009 
     11 C11        18.3494  -31.7811  -44.0844 C.ar      10 UNK        -0.0712 
     12 C12        18.8120  -31.4775  -45.3695 C.ar      10 UNK        -0.0894 
     13 C13        18.3668  -30.3299  -46.0338 C.ar      10 UNK        -0.0745 
     14 C14        17.4527  -29.4833  -45.3984 C.ar      10 UNK        -0.0972 
     15 C15        18.8248  -30.0416  -47.4596 C.3       10 UNK         0.0209 
     16 S16        20.4430  -29.2046  -47.5339 S.3       10 UNK        -0.2568 
     17 C17        20.0000  -27.4898  -47.0823 C.3       10 UNK        -0.0983 
     18 CA         21.0865  -26.6930  -46.3036 C.3       3 UNK         0.0876 
     19 N          20.5616  -25.4179  -45.8360 N.am      3 UNK        -0.4424 
     20 C          20.2026  -24.3603  -46.5683 C.2       2 UNK         0.4918 
     21 O          20.4218  -24.2550  -47.7759 O.2       2 UNK        -0.4875 
     22 CA         19.4341  -23.2559  -45.8056 C.3       2 UNK         0.0481 
     23 CB         18.6656  -22.3026  -46.7444 C.3       2 UNK        -0.1831 
     24 N          18.5420  -23.8084  -44.7707 N.am      2 UNK        -0.4498 
     25 C          17.5497  -24.6969  -44.9598 C.2       1 UNK         0.5027 
     26 O          17.1590  -25.0728  -46.0658 O.2       1 UNK        -0.4969 
     27 C          21.5629  -27.4115  -45.0281 C.2       3 UNK         0.5005 
     28 O          20.9670  -27.1992  -43.9670 O.2       3 UNK        -0.5279 
     29 N          22.6156  -28.2346  -45.1562 N.am      4 UNK        -0.4463 
     30 CA         23.1940  -29.0961  -44.1164 C.3       4 UNK         0.0283 
     31 CB         22.2428  -30.2719  -43.8166 C.3       4 UNK        -0.1875 
     32 C          23.5954  -28.3216  -42.8465 C.2       4 UNK         0.4949 
     33 O          23.1587  -28.6633  -41.7472 O.2       4 UNK        -0.5039 
     34 N          24.4248  -27.2829  -43.0270 N.am      5 UNK        -0.4663 
     35 CA         24.8424  -26.3232  -41.9926 C.3       5 UNK         0.0242 
     36 CB         25.7440  -25.2565  -42.6352 C.3       5 UNK        -0.1982 
     37 C          25.5305  -26.9329  -40.7546 C.2       5 UNK         0.5017 
     38 O          25.5009  -26.3178  -39.6883 O.2       5 UNK        -0.5012 
     39 N          26.1130  -28.1303  -40.9061 N.am      6 UNK        -0.4439 
     40 CA         26.6767  -28.9356  -39.8190 C.3       6 UNK         0.0297 
     41 CB         27.5660  -30.0352  -40.4241 C.3       6 UNK        -0.2006 
     42 C          25.6150  -29.5607  -38.8893 C.2       6 UNK         0.4892 
     43 O          25.9755  -30.0003  -37.7972 O.2       6 UNK        -0.5089 
     44 N          24.3493  -29.6176  -39.3391 N.am      7 UNK        -0.4243 
     45 CA         23.1766  -30.2002  -38.6702 C.3       7 UNK         0.0196 
     46 CB         22.8453  -29.4387  -37.3692 C.3       7 UNK        -0.2007 
     47 C          23.2654  -31.7251  -38.4573 C.2       7 UNK         0.5020 
     48 O          22.5428  -32.2671  -37.6197 O.2       7 UNK        -0.5147 
     49 N          24.1277  -32.4018  -39.2302 N.am      8 UNK        -0.4734 
     50 CA         24.4152  -33.8369  -39.1261 C.3       8 UNK         0.0238 
     51 CB         25.6010  -34.1804  -40.0424 C.3       8 UNK        -0.1912 
     52 C          23.2126  -34.7458  -39.4345 C.2       8 UNK         0.5038 
     53 O          23.1341  -35.8442  -38.8827 O.2       8 UNK        -0.5046 
     54 N          22.3030  -34.2699  -40.2934 N.am      9 UNK        -0.4200 
     55 CA         21.0309  -34.9269  -40.6227 C.3       9 UNK         0.0839 
     56 C          19.8728  -34.6283  -39.6243 C.2       9 UNK         0.5513 
     57 N          20.0744  -33.8379  -38.5753 N.am      9 UNK        -0.7519 
     58 O          18.7702  -35.1422  -39.7950 O.2       9 UNK        -0.4960 
     59 C59        20.6390  -34.6886  -42.1042 C.3       10 UNK        -0.0876 
     60 S60        20.3513  -32.9371  -42.5417 S.3       10 UNK        -0.2414 
     61 C61        18.7622  -33.0817  -43.4110 C.3       10 UNK         0.0169 
     62 H62        16.7795  -22.8340  -40.5453 H         1 UNK         0.0903 
     63 H63        16.3884  -21.4265  -41.5353 H         1 UNK         0.0903 
     64 H64        15.0938  -22.3965  -40.8280 H         1 UNK         0.0903 
     65 H65        17.3977  -24.6049  -41.7678 H         1 UNK         0.3096 
     66 H66        15.9039  -25.6083  -43.9743 H         1 UNK         0.1121 
     67 H67        18.0200  -27.1601  -44.1926 H         1 UNK         0.0849 
     68 H68        18.6372  -26.3357  -42.8043 H         1 UNK         0.0849 
     69 H69        15.2478  -29.4480  -42.9060 H         1 UNK         0.0865 
     70 H70        15.4411  -28.2622  -44.1662 H         1 UNK         0.0865 
     71 H71        17.0989  -31.1395  -42.4556 H         1 UNK         0.1346 
     72 H72        19.5015  -32.1488  -45.8631 H         1 UNK         0.1412 
     73 H73        17.0833  -28.6093  -45.9173 H         1 UNK         0.1426 
     74 H74        18.0822  -29.4416  -47.9881 H         1 UNK         0.0716 
     75 H75        18.8964  -30.9808  -48.0102 H         1 UNK         0.0716 
     76 H76        19.7505  -26.9649  -48.0054 H         1 UNK         0.0695 
     77 H77        19.0799  -27.5063  -46.4988 H         1 UNK         0.0695 
     78 H78        21.9449  -26.5037  -46.9512 H         1 UNK         0.0983 
     79 H79        20.3861  -25.4188  -44.8381 H         1 UNK         0.3095 
     80 H80        20.1868  -22.6667  -45.2803 H         1 UNK         0.0454 
     81 H81        19.3471  -21.7924  -47.4260 H         1 UNK         0.0851 
     82 H82        18.1356  -21.5340  -46.1821 H         1 UNK         0.0851 
     83 H83        17.9356  -22.8346  -47.3551 H         1 UNK         0.0851 
     84 H84        18.7655  -23.5582  -43.8172 H         1 UNK         0.2976 
     85 H85        23.0286  -28.3297  -46.0743 H         1 UNK         0.3116 
     86 H86        24.1135  -29.5138  -44.5290 H         1 UNK         0.0646 
     87 H87        21.3013  -29.9320  -43.3823 H         1 UNK         0.0847 
     88 H88        22.0050  -30.8340  -44.7196 H         1 UNK         0.0847 
     89 H89        22.6935  -30.9694  -43.1098 H         1 UNK         0.0847 
     90 H90        24.7301  -27.0837  -43.9692 H         1 UNK         0.3040 
     91 H91        23.9362  -25.8313  -41.6322 H         1 UNK         0.1015 
     92 H92        26.0498  -24.5085  -41.9021 H         1 UNK         0.0786 
     93 H93        25.2263  -24.7272  -43.4355 H         1 UNK         0.0786 
     94 H94        26.6521  -25.6940  -43.0521 H         1 UNK         0.0786 
     95 H95        26.0962  -28.5467  -41.8258 H         1 UNK         0.3172 
     96 H96        27.3057  -28.2874  -39.2052 H         1 UNK         0.0595 
     97 H97        26.9975  -30.7128  -41.0622 H         1 UNK         0.0839 
     98 H98        28.0290  -30.6383  -39.6415 H         1 UNK         0.0839 
     99 H99        28.3738  -29.6098  -41.0201 H         1 UNK         0.0839 
    100 H100       24.1448  -29.2168  -40.2524 H         1 UNK         0.2998 
    101 H101       22.3421  -30.0485  -39.3567 H         1 UNK         0.0822 
    102 H102       21.8872  -29.7610  -36.9596 H         1 UNK         0.0787 
    103 H103       22.7755  -28.3653  -37.5456 H         1 UNK         0.0787 
    104 H104       23.5988  -29.6048  -36.5988 H         1 UNK         0.0787 
    105 H105       24.6724  -31.8751  -39.8969 H         1 UNK         0.3055 
    106 H106       24.7099  -34.0381  -38.0936 H         1 UNK         0.1106 
    107 H107       26.4911  -33.6125  -39.7708 H         1 UNK         0.0828 
    108 H108       25.8591  -35.2378  -39.9666 H         1 UNK         0.0828 
    109 H109       25.3763  -33.9748  -41.0898 H         1 UNK         0.0828 
    110 H110       22.4384  -33.3493  -40.6838 H         1 UNK         0.2931 
    111 H111       21.1920  -36.0031  -40.5344 H         1 UNK         0.0412 
    112 H112       19.3116  -33.6658  -37.9399 H         1 UNK         0.3472 
    113 H113       20.9787  -33.4181  -38.3961 H         1 UNK         0.3472 
    114 H114       21.4302  -35.0665  -42.7535 H         1 UNK         0.0970 
    115 H115       19.7585  -35.2842  -42.3525 H         1 UNK         0.0970 
    116 H116       17.9965  -33.4021  -42.7025 H         1 UNK         0.0612 
    117 H117       18.8342  -33.8693  -44.1629 H         1 UNK         0.0612 
@<TRIPOS>BOND
     1    1    2 1    
     2    1   62 1    
     3    1   63 1    
     4    1   64 1    
     5    2    3 2    
     6    2    4 am   BACKBONE|DICT|INTERRES
     7    4    5 1    
     8    4   65 1    
     9    5    6 1    
    10    5   25 1    
    11    5   66 1    
    12    6    7 1    
    13    6   67 1    
    14    6   68 1    
    15    7    8 1    
    16    8    9 1    
    17    8   69 1    
    18    8   70 1    
    19    9   10 ar   
    20    9   14 ar   
    21   10   11 ar   
    22   10   71 1    
    23   11   12 ar   
    24   11   61 1    
    25   12   13 ar   
    26   12   72 1    
    27   13   14 ar   
    28   13   15 1    
    29   14   73 1    
    30   15   16 1    
    31   15   74 1    
    32   15   75 1    
    33   16   17 1    
    34   17   18 1    
    35   17   76 1    
    36   17   77 1    
    37   18   19 1    
    38   18   27 1    
    39   18   78 1    
    40   19   20 am   BACKBONE|DICT|INTERRES
    41   19   79 1    
    42   20   21 2    
    43   20   22 1    
    44   22   23 1    
    45   22   24 1    
    46   22   80 1    
    47   23   81 1    
    48   23   82 1    
    49   23   83 1    
    50   24   25 am   BACKBONE|DICT|INTERRES
    51   24   84 1    
    52   25   26 2    
    53   27   28 2    
    54   27   29 am   BACKBONE|DICT|INTERRES
    55   29   30 1    
    56   29   85 1    
    57   30   31 1    
    58   30   32 1    
    59   30   86 1    
    60   31   87 1    
    61   31   88 1    
    62   31   89 1    
    63   32   33 2    
    64   32   34 am   BACKBONE|DICT|INTERRES
    65   34   35 1    
    66   34   90 1    
    67   35   36 1    
    68   35   37 1    
    69   35   91 1    
    70   36   92 1    
    71   36   93 1    
    72   36   94 1    
    73   37   38 2    
    74   37   39 am   BACKBONE|DICT|INTERRES
    75   39   40 1    
    76   39   95 1    
    77   40   41 1    
    78   40   42 1    
    79   40   96 1    
    80   41   97 1    
    81   41   98 1    
    82   41   99 1    
    83   42   43 2    
    84   42   44 am   BACKBONE|DICT|INTERRES
    85   44   45 1    
    86   44  100 1    
    87   45   46 1    
    88   45   47 1    
    89   45  101 1    
    90   46  102 1    
    91   46  103 1    
    92   46  104 1    
    93   47   48 2    
    94   47   49 am   BACKBONE|DICT|INTERRES
    95   49   50 1    
    96   49  105 1    
    97   50   51 1    
    98   50   52 1    
    99   50  106 1    
   100   51  107 1    
   101   51  108 1    
   102   51  109 1    
   103   52   53 2    
   104   52   54 am   BACKBONE|DICT|INTERRES
   105   54   55 1    
   106   54  110 1    
   107   55   56 1    
   108   55   59 1    
   109   55  111 1    
   110   56   57 am   BACKBONE|DICT|INTERRES
   111   56   58 2    
   112   57  112 1    
   113   57  113 1    
   114   59   60 1    
   115   59  114 1    
   116   59  115 1    
   117   60   61 1    
   118   61  116 1    
   119   61  117 1    
@<TRIPOS>SUBSTRUCTURE
     1 UNK         1 GROUP             0       ****    0 ROOT    
