@<TRIPOS>MOLECULE
3R8
117   119    1
SMALL
USER_CHARGES


@<TRIPOS>ATOM
      1 CA         11.6799  -28.0498  -42.1412 C.3       0 UNK        -0.2013 
      2 C          12.9772  -27.3093  -42.4305 C.2       0 UNK         0.4866 
      3 O          13.4055  -26.4856  -41.6212 O.2       0 UNK        -0.5176 
      4 N          13.6011  -27.5880  -43.5819 N.am      1 UNK        -0.4884 
      5 CA         14.8946  -27.0272  -43.9834 C.3       1 UNK         0.0853 
      6 C6         15.1139  -27.1811  -45.5097 C.3       10 UNK        -0.0849 
      7 S7         16.4474  -26.1120  -46.1597 S.3       10 UNK        -0.2776 
      8 C8         17.4498  -27.2859  -47.1304 C.3       10 UNK         0.0316 
      9 C9         18.4789  -28.0261  -46.2843 C.ar      10 UNK        -0.0863 
     10 C10        18.1415  -29.2264  -45.6479 C.ar      10 UNK        -0.1009 
     11 C11        19.0988  -29.9318  -44.9145 C.ar      10 UNK        -0.0712 
     12 C12        20.3992  -29.4343  -44.8334 C.ar      10 UNK        -0.0894 
     13 C13        20.7576  -28.2347  -45.4512 C.ar      10 UNK        -0.0745 
     14 C14        19.7867  -27.5333  -46.1792 C.ar      10 UNK        -0.0972 
     15 C15        22.2141  -27.7852  -45.3282 C.3       10 UNK         0.0209 
     16 S16        22.5827  -26.0371  -45.7146 S.3       10 UNK        -0.2568 
     17 C17        21.7322  -25.0103  -44.4566 C.3       10 UNK        -0.0983 
     18 CA         21.6810  -25.4594  -42.9645 C.3       3 UNK         0.0876 
     19 N          20.6202  -26.4226  -42.6857 N.am      3 UNK        -0.4424 
     20 C          19.3255  -26.1038  -42.6114 C.2       2 UNK         0.4918 
     21 O          18.8920  -24.9578  -42.7678 O.2       2 UNK        -0.4875 
     22 CA         18.3439  -27.2365  -42.2982 C.3       2 UNK         0.0481 
     23 CB         18.2145  -27.4711  -40.7828 C.3       2 UNK        -0.1831 
     24 N          17.0618  -26.8590  -42.8778 N.am      2 UNK        -0.4498 
     25 C          16.0417  -27.6675  -43.1739 C.2       1 UNK         0.5027 
     26 O          15.9888  -28.8628  -42.8749 O.2       1 UNK        -0.4969 
     27 C          23.0107  -25.9663  -42.3834 C.2       3 UNK         0.5005 
     28 O          23.1153  -27.1409  -42.0191 O.2       3 UNK        -0.5279 
     29 N          24.0031  -25.0696  -42.3024 N.am      4 UNK        -0.4463 
     30 CA         25.3184  -25.3157  -41.6979 C.3       4 UNK         0.0283 
     31 CB         26.0468  -23.9724  -41.5245 C.3       4 UNK        -0.1875 
     32 C          26.2080  -26.3113  -42.4662 C.2       4 UNK         0.4949 
     33 O          27.1947  -26.7871  -41.9047 O.2       4 UNK        -0.5039 
     34 N          25.8604  -26.6102  -43.7254 N.am      5 UNK        -0.4663 
     35 CA         26.5702  -27.5667  -44.5792 C.3       5 UNK         0.0242 
     36 CB         26.2014  -27.2982  -46.0478 C.3       5 UNK        -0.1982 
     37 C          26.3125  -29.0422  -44.2142 C.2       5 UNK         0.5017 
     38 O          27.0053  -29.9084  -44.7503 O.2       5 UNK        -0.5012 
     39 N          25.3375  -29.3122  -43.3356 N.am      6 UNK        -0.4439 
     40 CA         24.9956  -30.6450  -42.8437 C.3       6 UNK         0.0297 
     41 CB         23.5663  -30.9866  -43.2920 C.3       6 UNK        -0.2006 
     42 C          25.0775  -30.6662  -41.3141 C.2       6 UNK         0.4892 
     43 O          24.8909  -29.6320  -40.6688 O.2       6 UNK        -0.5089 
     44 N          25.2852  -31.8635  -40.7539 N.am      7 UNK        -0.4243 
     45 CA         25.2531  -32.1332  -39.3148 C.3       7 UNK         0.0196 
     46 CB         26.0946  -33.3898  -39.0227 C.3       7 UNK        -0.2007 
     47 C          23.7985  -32.2690  -38.8278 C.2       7 UNK         0.5020 
     48 O          23.3593  -33.3709  -38.4944 O.2       7 UNK        -0.5147 
     49 N          23.0592  -31.1498  -38.8623 N.am      8 UNK        -0.4734 
     50 CA         21.6409  -31.0042  -38.4927 C.3       8 UNK         0.0238 
     51 CB         21.4686  -31.1452  -36.9651 C.3       8 UNK        -0.1912 
     52 C          20.6969  -31.9357  -39.2845 C.2       8 UNK         0.5038 
     53 O          19.6949  -32.4035  -38.7406 O.2       8 UNK        -0.5046 
     54 N          21.0572  -32.1971  -40.5487 N.am      9 UNK        -0.4200 
     55 CA         20.3996  -33.1330  -41.4786 C.3       9 UNK         0.0839 
     56 C          20.5457  -34.6368  -41.0906 C.2       9 UNK         0.5513 
     57 N          21.4203  -35.0082  -40.1619 N.am      9 UNK        -0.7519 
     58 O          19.8788  -35.4923  -41.6671 O.2       9 UNK        -0.4960 
     59 C59        18.9309  -32.7450  -41.8250 C.3       10 UNK        -0.0876 
     60 S60        18.7769  -31.0217  -42.4014 S.3       10 UNK        -0.2414 
     61 C61        18.7541  -31.2352  -44.2086 C.3       10 UNK         0.0169 
     62 H62        11.7755  -28.6279  -41.2225 H         1 UNK         0.0903 
     63 H63        10.8629  -27.3401  -42.0139 H         1 UNK         0.0903 
     64 H64        11.4119  -28.7342  -42.9459 H         1 UNK         0.0903 
     65 H65        13.2225  -28.3002  -44.1902 H         1 UNK         0.3096 
     66 H66        14.8675  -25.9594  -43.7514 H         1 UNK         0.1121 
     67 H67        15.2889  -28.2248  -45.7738 H         1 UNK         0.0849 
     68 H68        14.2039  -26.8952  -46.0400 H         1 UNK         0.0849 
     69 H69        16.8006  -27.9949  -47.6465 H         1 UNK         0.0865 
     70 H70        17.9597  -26.7296  -47.9186 H         1 UNK         0.0865 
     71 H71        17.1367  -29.6167  -45.7246 H         1 UNK         0.1346 
     72 H72        21.1348  -29.9937  -44.2769 H         1 UNK         0.1412 
     73 H73        20.0463  -26.6125  -46.6818 H         1 UNK         0.1426 
     74 H74        22.7982  -28.3967  -46.0168 H         1 UNK         0.0716 
     75 H75        22.5945  -28.0258  -44.3382 H         1 UNK         0.0716 
     76 H76        22.2148  -24.0328  -44.5012 H         1 UNK         0.0695 
     77 H77        20.7210  -24.8267  -44.8222 H         1 UNK         0.0695 
     78 H78        21.4439  -24.5712  -42.3732 H         1 UNK         0.0983 
     79 H79        20.9418  -27.3624  -42.4943 H         1 UNK         0.3095 
     80 H80        18.6982  -28.1437  -42.7850 H         1 UNK         0.0454 
     81 H81        19.1788  -27.7289  -40.3436 H         1 UNK         0.0851 
     82 H82        17.8444  -26.5836  -40.2683 H         1 UNK         0.0851 
     83 H83        17.5335  -28.2942  -40.5661 H         1 UNK         0.0851 
     84 H84        17.0411  -25.8956  -43.1923 H         1 UNK         0.2976 
     85 H85        23.8378  -24.1322  -42.6417 H         1 UNK         0.3116 
     86 H86        25.1515  -25.7419  -40.7062 H         1 UNK         0.0646 
     87 H87        27.0149  -24.1116  -41.0408 H         1 UNK         0.0847 
     88 H88        25.4743  -23.2855  -40.9010 H         1 UNK         0.0847 
     89 H89        26.2305  -23.4857  -42.4832 H         1 UNK         0.0847 
     90 H90        25.0351  -26.1748  -44.1126 H         1 UNK         0.3040 
     91 H91        27.6429  -27.3946  -44.4647 H         1 UNK         0.1015 
     92 H92        25.1505  -27.5066  -46.2459 H         1 UNK         0.0786 
     93 H93        26.7868  -27.9292  -46.7181 H         1 UNK         0.0786 
     94 H94        26.3987  -26.2630  -46.3268 H         1 UNK         0.0786 
     95 H95        24.8674  -28.5440  -42.8693 H         1 UNK         0.3172 
     96 H96        25.6833  -31.3955  -43.2391 H         1 UNK         0.0595 
     97 H97        23.2989  -32.0064  -43.0133 H         1 UNK         0.0839 
     98 H98        22.8389  -30.3170  -42.8312 H         1 UNK         0.0839 
     99 H99        23.4616  -30.9103  -44.3745 H         1 UNK         0.0839 
    100 H100       25.3970  -32.6675  -41.3555 H         1 UNK         0.2998 
    101 H101       25.7062  -31.2963  -38.7784 H         1 UNK         0.0822 
    102 H102       26.0967  -33.6176  -37.9559 H         1 UNK         0.0787 
    103 H103       25.7091  -34.2678  -39.5428 H         1 UNK         0.0787 
    104 H104       27.1328  -33.2502  -39.3249 H         1 UNK         0.0787 
    105 H105       23.5131  -30.3151  -39.2223 H         1 UNK         0.3055 
    106 H106       21.3520  -29.9877  -38.7654 H         1 UNK         0.1106 
    107 H107       21.6865  -32.1586  -36.6263 H         1 UNK         0.0828 
    108 H108       22.1258  -30.4626  -36.4265 H         1 UNK         0.0828 
    109 H109       20.4467  -30.9138  -36.6618 H         1 UNK         0.0828 
    110 H110       21.9065  -31.7728  -40.8864 H         1 UNK         0.2931 
    111 H111       20.9693  -33.0429  -42.4040 H         1 UNK         0.0412 
    112 H112       21.5066  -35.9865  -39.9362 H         1 UNK         0.3472 
    113 H113       21.9832  -34.3286  -39.6624 H         1 UNK         0.3472 
    114 H114       18.2873  -32.8719  -40.9534 H         1 UNK         0.0970 
    115 H115       18.5252  -33.4084  -42.5910 H         1 UNK         0.0970 
    116 H116       17.7723  -31.5997  -44.5145 H         1 UNK         0.0612 
    117 H117       19.4788  -31.9981  -44.4970 H         1 UNK         0.0612 
@<TRIPOS>BOND
     1    1    2 1    
     2    1   62 1    
     3    1   63 1    
     4    1   64 1    
     5    2    3 2    
     6    2    4 am   BACKBONE|DICT|INTERRES
     7    4    5 1    
     8    4   65 1    
     9    5    6 1    
    10    5   25 1    
    11    5   66 1    
    12    6    7 1    
    13    6   67 1    
    14    6   68 1    
    15    7    8 1    
    16    8    9 1    
    17    8   69 1    
    18    8   70 1    
    19    9   10 ar   
    20    9   14 ar   
    21   10   11 ar   
    22   10   71 1    
    23   11   12 ar   
    24   11   61 1    
    25   12   13 ar   
    26   12   72 1    
    27   13   14 ar   
    28   13   15 1    
    29   14   73 1    
    30   15   16 1    
    31   15   74 1    
    32   15   75 1    
    33   16   17 1    
    34   17   18 1    
    35   17   76 1    
    36   17   77 1    
    37   18   19 1    
    38   18   27 1    
    39   18   78 1    
    40   19   20 am   BACKBONE|DICT|INTERRES
    41   19   79 1    
    42   20   21 2    
    43   20   22 1    
    44   22   23 1    
    45   22   24 1    
    46   22   80 1    
    47   23   81 1    
    48   23   82 1    
    49   23   83 1    
    50   24   25 am   BACKBONE|DICT|INTERRES
    51   24   84 1    
    52   25   26 2    
    53   27   28 2    
    54   27   29 am   BACKBONE|DICT|INTERRES
    55   29   30 1    
    56   29   85 1    
    57   30   31 1    
    58   30   32 1    
    59   30   86 1    
    60   31   87 1    
    61   31   88 1    
    62   31   89 1    
    63   32   33 2    
    64   32   34 am   BACKBONE|DICT|INTERRES
    65   34   35 1    
    66   34   90 1    
    67   35   36 1    
    68   35   37 1    
    69   35   91 1    
    70   36   92 1    
    71   36   93 1    
    72   36   94 1    
    73   37   38 2    
    74   37   39 am   BACKBONE|DICT|INTERRES
    75   39   40 1    
    76   39   95 1    
    77   40   41 1    
    78   40   42 1    
    79   40   96 1    
    80   41   97 1    
    81   41   98 1    
    82   41   99 1    
    83   42   43 2    
    84   42   44 am   BACKBONE|DICT|INTERRES
    85   44   45 1    
    86   44  100 1    
    87   45   46 1    
    88   45   47 1    
    89   45  101 1    
    90   46  102 1    
    91   46  103 1    
    92   46  104 1    
    93   47   48 2    
    94   47   49 am   BACKBONE|DICT|INTERRES
    95   49   50 1    
    96   49  105 1    
    97   50   51 1    
    98   50   52 1    
    99   50  106 1    
   100   51  107 1    
   101   51  108 1    
   102   51  109 1    
   103   52   53 2    
   104   52   54 am   BACKBONE|DICT|INTERRES
   105   54   55 1    
   106   54  110 1    
   107   55   56 1    
   108   55   59 1    
   109   55  111 1    
   110   56   57 am   BACKBONE|DICT|INTERRES
   111   56   58 2    
   112   57  112 1    
   113   57  113 1    
   114   59   60 1    
   115   59  114 1    
   116   59  115 1    
   117   60   61 1    
   118   61  116 1    
   119   61  117 1    
@<TRIPOS>SUBSTRUCTURE
     1 UNK         1 GROUP             0       ****    0 ROOT    
