@<TRIPOS>MOLECULE
3R8
117   119    1
SMALL
USER_CHARGES


@<TRIPOS>ATOM
      1 CA         17.0009  -25.8294  -49.2079 C.3       0 UNK        -0.2013 
      2 C          17.3824  -26.4105  -47.8551 C.2       0 UNK         0.4866 
      3 O          18.4403  -26.0782  -47.3209 O.2       0 UNK        -0.5176 
      4 N          16.5281  -27.2728  -47.2890 N.am      1 UNK        -0.4884 
      5 CA         16.7083  -27.9148  -45.9825 C.3       1 UNK         0.0853 
      6 C6         15.9219  -29.2505  -45.9238 C.3       10 UNK        -0.0849 
      7 S7         16.1976  -30.2543  -44.4224 S.3       10 UNK        -0.2776 
      8 C8         17.8527  -30.9605  -44.7039 C.3       10 UNK         0.0316 
      9 C9         18.9468  -30.1078  -44.0750 C.ar      10 UNK        -0.0863 
     10 C10        19.0283  -30.0001  -42.6830 C.ar      10 UNK        -0.1009 
     11 C11        20.0528  -29.2621  -42.0854 C.ar      10 UNK        -0.0712 
     12 C12        21.0037  -28.6345  -42.8917 C.ar      10 UNK        -0.0894 
     13 C13        20.9189  -28.7046  -44.2863 C.ar      10 UNK        -0.0745 
     14 C14        19.8921  -29.4525  -44.8715 C.ar      10 UNK        -0.0972 
     15 C15        21.9501  -28.0042  -45.1637 C.3       10 UNK         0.0209 
     16 S16        21.5590  -26.2470  -45.4518 S.3       10 UNK        -0.2568 
     17 C17        22.0578  -25.4859  -43.8642 C.3       10 UNK        -0.0983 
     18 CA         20.9568  -24.6628  -43.1271 C.3       3 UNK         0.0876 
     19 N          19.5829  -25.0672  -43.4528 N.am      3 UNK        -0.4424 
     20 C          18.5127  -24.2707  -43.3167 C.2       2 UNK         0.4918 
     21 O          18.5873  -23.0990  -42.9410 O.2       2 UNK        -0.4875 
     22 CA         17.1367  -24.8624  -43.6708 C.3       2 UNK         0.0481 
     23 CB         16.1394  -23.7893  -44.1565 C.3       2 UNK        -0.1831 
     24 N          17.2523  -25.9274  -44.6667 N.am      2 UNK        -0.4498 
     25 C          16.3749  -26.9213  -44.8469 C.2       1 UNK         0.5027 
     26 O          15.3316  -27.0361  -44.2002 O.2       1 UNK        -0.4969 
     27 C          21.1738  -24.6941  -41.5972 C.2       3 UNK         0.5005 
     28 O          20.3889  -25.3170  -40.8761 O.2       3 UNK        -0.5279 
     29 N          22.2515  -24.0484  -41.1269 N.am      4 UNK        -0.4463 
     30 CA         22.6334  -24.0050  -39.7094 C.3       4 UNK         0.0283 
     31 CB         23.7973  -23.0193  -39.5146 C.3       4 UNK        -0.1875 
     32 C          22.9898  -25.3874  -39.1315 C.2       4 UNK         0.4949 
     33 O          22.5718  -25.7032  -38.0173 O.2       4 UNK        -0.5039 
     34 N          23.7326  -26.1838  -39.9082 N.am      5 UNK        -0.4663 
     35 CA         24.1235  -27.5605  -39.6160 C.3       5 UNK         0.0242 
     36 CB         25.1524  -27.6088  -38.4680 C.3       5 UNK        -0.1982 
     37 C          24.7194  -28.1702  -40.8896 C.2       5 UNK         0.5017 
     38 O          25.2448  -27.4288  -41.7246 O.2       5 UNK        -0.5012 
     39 N          24.6547  -29.5002  -40.9966 N.am      6 UNK        -0.4439 
     40 CA         25.2296  -30.3273  -42.0559 C.3       6 UNK         0.0297 
     41 CB         24.5633  -30.0336  -43.4156 C.3       6 UNK        -0.2006 
     42 C          25.0236  -31.7966  -41.6742 C.2       6 UNK         0.4892 
     43 O          24.2578  -32.0885  -40.7520 O.2       6 UNK        -0.5089 
     44 N          25.6453  -32.7076  -42.4354 N.am      7 UNK        -0.4243 
     45 CA         25.4607  -34.1630  -42.3256 C.3       7 UNK         0.0196 
     46 CB         26.4400  -34.8669  -43.2790 C.3       7 UNK        -0.2007 
     47 C          24.0154  -34.6378  -42.5891 C.2       7 UNK         0.5020 
     48 O          23.6596  -35.7468  -42.1915 O.2       7 UNK        -0.5147 
     49 N          23.2052  -33.7826  -43.2280 N.am      8 UNK        -0.4734 
     50 CA         21.7665  -33.9524  -43.4328 C.3       8 UNK         0.0238 
     51 CB         21.2891  -32.8995  -44.4465 C.3       8 UNK        -0.1912 
     52 C          20.9302  -33.8630  -42.1400 C.2       8 UNK         0.5038 
     53 O          19.7828  -34.3117  -42.1568 O.2       8 UNK        -0.5046 
     54 N          21.4902  -33.2960  -41.0620 N.am      9 UNK        -0.4200 
     55 CA         20.8248  -33.1408  -39.7592 C.3       9 UNK         0.0839 
     56 C          21.7197  -33.4706  -38.5330 C.2       9 UNK         0.5513 
     57 N          23.0417  -33.4769  -38.6427 N.am      9 UNK        -0.7519 
     58 O          21.1972  -33.7573  -37.4586 O.2       9 UNK        -0.4960 
     59 C59        20.1128  -31.7701  -39.6239 C.3       10 UNK        -0.0876 
     60 S60        21.2293  -30.3337  -39.8078 S.3       10 UNK        -0.2414 
     61 C61        20.1247  -29.1083  -40.5730 C.3       10 UNK         0.0169 
     62 H62        16.9268  -24.7443  -49.1417 H         1 UNK         0.0903 
     63 H63        17.7617  -26.0744  -49.9484 H         1 UNK         0.0903 
     64 H64        16.0451  -26.2141  -49.5632 H         1 UNK         0.0903 
     65 H65        15.6586  -27.4819  -47.7600 H         1 UNK         0.3096 
     66 H66        17.7651  -28.1596  -45.8807 H         1 UNK         0.1121 
     67 H67        16.1736  -29.8663  -46.7889 H         1 UNK         0.0849 
     68 H68        14.8502  -29.0585  -46.0034 H         1 UNK         0.0849 
     69 H69        17.8860  -31.9544  -44.2548 H         1 UNK         0.0865 
     70 H70        18.0259  -31.1062  -45.7712 H         1 UNK         0.0865 
     71 H71        18.2875  -30.4912  -42.0676 H         1 UNK         0.1346 
     72 H72        21.8070  -28.0926  -42.4173 H         1 UNK         0.1412 
     73 H73        19.8364  -29.5307  -45.9489 H         1 UNK         0.1426 
     74 H74        22.0161  -28.5061  -46.1301 H         1 UNK         0.0716 
     75 H75        22.9415  -28.0799  -44.7207 H         1 UNK         0.0716 
     76 H76        22.8996  -24.8269  -44.0830 H         1 UNK         0.0695 
     77 H77        22.4883  -26.2536  -43.2243 H         1 UNK         0.0695 
     78 H78        21.0664  -23.6231  -43.4449 H         1 UNK         0.0983 
     79 H79        19.4581  -26.0328  -43.7180 H         1 UNK         0.3095 
     80 H80        16.7513  -25.2953  -42.7455 H         1 UNK         0.0454 
     81 H81        16.4852  -23.3091  -45.0725 H         1 UNK         0.0851 
     82 H82        16.0027  -23.0082  -43.4077 H         1 UNK         0.0851 
     83 H83        15.1554  -24.2147  -44.3526 H         1 UNK         0.0851 
     84 H84        18.0241  -25.8544  -45.3247 H         1 UNK         0.2976 
     85 H85        22.8533  -23.5595  -41.7747 H         1 UNK         0.3116 
     86 H86        21.7756  -23.6269  -39.1487 H         1 UNK         0.0646 
     87 H87        24.6828  -23.3189  -40.0765 H         1 UNK         0.0847 
     88 H88        24.0847  -22.9602  -38.4638 H         1 UNK         0.0847 
     89 H89        23.5231  -22.0123  -39.8294 H         1 UNK         0.0847 
     90 H90        24.0428  -25.8537  -40.8140 H         1 UNK         0.3040 
     91 H91        23.2305  -28.1231  -39.3364 H         1 UNK         0.1015 
     92 H92        26.0387  -27.0167  -38.6994 H         1 UNK         0.0786 
     93 H93        25.4823  -28.6313  -38.2798 H         1 UNK         0.0786 
     94 H94        24.7344  -27.2337  -37.5341 H         1 UNK         0.0786 
     95 H95        24.2002  -30.0481  -40.2735 H         1 UNK         0.3172 
     96 H96        26.3017  -30.1308  -42.1146 H         1 UNK         0.0595 
     97 H97        24.9321  -30.6961  -44.1991 H         1 UNK         0.0839 
     98 H98        24.7772  -29.0191  -43.7480 H         1 UNK         0.0839 
     99 H99        23.4810  -30.1567  -43.3654 H         1 UNK         0.0839 
    100 H100       26.2582  -32.3870  -43.1718 H         1 UNK         0.2998 
    101 H101       25.7095  -34.4510  -41.3019 H         1 UNK         0.0822 
    102 H102       26.3516  -35.9515  -43.1992 H         1 UNK         0.0787 
    103 H103       26.2516  -34.6007  -44.3200 H         1 UNK         0.0787 
    104 H104       27.4741  -34.6113  -43.0471 H         1 UNK         0.0787 
    105 H105       23.5996  -32.9041  -43.5285 H         1 UNK         0.3055 
    106 H106       21.5998  -34.9452  -43.8567 H         1 UNK         0.1106 
    107 H107       20.2264  -33.0178  -44.6611 H         1 UNK         0.0828 
    108 H108       21.4332  -31.8858  -44.0700 H         1 UNK         0.0828 
    109 H109       21.8197  -32.9864  -45.3947 H         1 UNK         0.0828 
    110 H110       22.4362  -32.9381  -41.1183 H         1 UNK         0.2931 
    111 H111       20.0396  -33.8974  -39.7028 H         1 UNK         0.0412 
    112 H112       23.5009  -33.1159  -39.4741 H         1 UNK         0.3472 
    113 H113       23.5945  -33.7111  -37.8339 H         1 UNK         0.3472 
    114 H114       19.6027  -31.6938  -38.6619 H         1 UNK         0.0970 
    115 H115       19.3259  -31.7113  -40.3750 H         1 UNK         0.0970 
    116 H116       20.4939  -28.1111  -40.3275 H         1 UNK         0.0612 
    117 H117       19.1299  -29.1774  -40.1303 H         1 UNK         0.0612 
@<TRIPOS>BOND
     1    1    2 1    
     2    1   62 1    
     3    1   63 1    
     4    1   64 1    
     5    2    3 2    
     6    2    4 am   BACKBONE|DICT|INTERRES
     7    4    5 1    
     8    4   65 1    
     9    5    6 1    
    10    5   25 1    
    11    5   66 1    
    12    6    7 1    
    13    6   67 1    
    14    6   68 1    
    15    7    8 1    
    16    8    9 1    
    17    8   69 1    
    18    8   70 1    
    19    9   10 ar   
    20    9   14 ar   
    21   10   11 ar   
    22   10   71 1    
    23   11   12 ar   
    24   11   61 1    
    25   12   13 ar   
    26   12   72 1    
    27   13   14 ar   
    28   13   15 1    
    29   14   73 1    
    30   15   16 1    
    31   15   74 1    
    32   15   75 1    
    33   16   17 1    
    34   17   18 1    
    35   17   76 1    
    36   17   77 1    
    37   18   19 1    
    38   18   27 1    
    39   18   78 1    
    40   19   20 am   BACKBONE|DICT|INTERRES
    41   19   79 1    
    42   20   21 2    
    43   20   22 1    
    44   22   23 1    
    45   22   24 1    
    46   22   80 1    
    47   23   81 1    
    48   23   82 1    
    49   23   83 1    
    50   24   25 am   BACKBONE|DICT|INTERRES
    51   24   84 1    
    52   25   26 2    
    53   27   28 2    
    54   27   29 am   BACKBONE|DICT|INTERRES
    55   29   30 1    
    56   29   85 1    
    57   30   31 1    
    58   30   32 1    
    59   30   86 1    
    60   31   87 1    
    61   31   88 1    
    62   31   89 1    
    63   32   33 2    
    64   32   34 am   BACKBONE|DICT|INTERRES
    65   34   35 1    
    66   34   90 1    
    67   35   36 1    
    68   35   37 1    
    69   35   91 1    
    70   36   92 1    
    71   36   93 1    
    72   36   94 1    
    73   37   38 2    
    74   37   39 am   BACKBONE|DICT|INTERRES
    75   39   40 1    
    76   39   95 1    
    77   40   41 1    
    78   40   42 1    
    79   40   96 1    
    80   41   97 1    
    81   41   98 1    
    82   41   99 1    
    83   42   43 2    
    84   42   44 am   BACKBONE|DICT|INTERRES
    85   44   45 1    
    86   44  100 1    
    87   45   46 1    
    88   45   47 1    
    89   45  101 1    
    90   46  102 1    
    91   46  103 1    
    92   46  104 1    
    93   47   48 2    
    94   47   49 am   BACKBONE|DICT|INTERRES
    95   49   50 1    
    96   49  105 1    
    97   50   51 1    
    98   50   52 1    
    99   50  106 1    
   100   51  107 1    
   101   51  108 1    
   102   51  109 1    
   103   52   53 2    
   104   52   54 am   BACKBONE|DICT|INTERRES
   105   54   55 1    
   106   54  110 1    
   107   55   56 1    
   108   55   59 1    
   109   55  111 1    
   110   56   57 am   BACKBONE|DICT|INTERRES
   111   56   58 2    
   112   57  112 1    
   113   57  113 1    
   114   59   60 1    
   115   59  114 1    
   116   59  115 1    
   117   60   61 1    
   118   61  116 1    
   119   61  117 1    
@<TRIPOS>SUBSTRUCTURE
     1 UNK         1 GROUP             0       ****    0 ROOT    
