@<TRIPOS>MOLECULE
3R8
117   119    1
SMALL
USER_CHARGES


@<TRIPOS>ATOM
      1 CA         21.3327  -24.8306  -48.4546 C.3       0 UNK        -0.2013 
      2 C          20.6191  -25.6787  -47.4134 C.2       0 UNK         0.4866 
      3 O          21.2701  -26.4044  -46.6609 O.2       0 UNK        -0.5176 
      4 N          19.2847  -25.5850  -47.3478 N.am      1 UNK        -0.4884 
      5 CA         18.4128  -26.3434  -46.4384 C.3       1 UNK         0.0853 
      6 C6         16.9845  -26.5073  -47.0231 C.3       10 UNK        -0.0849 
      7 S7         17.0033  -27.5856  -48.4982 S.3       10 UNK        -0.2776 
      8 C8         16.1826  -29.1059  -47.8991 C.3       10 UNK         0.0316 
      9 C9         16.7341  -29.6101  -46.5686 C.ar      10 UNK        -0.0863 
     10 C10        18.0890  -29.9292  -46.4330 C.ar      10 UNK        -0.1009 
     11 C11        18.5962  -30.3404  -45.1981 C.ar      10 UNK        -0.0712 
     12 C12        17.7327  -30.4823  -44.1101 C.ar      10 UNK        -0.0894 
     13 C13        16.3713  -30.1849  -44.2309 C.ar      10 UNK        -0.0745 
     14 C14        15.8830  -29.7456  -45.4658 C.ar      10 UNK        -0.0972 
     15 C15        15.4001  -30.3541  -43.0618 C.3       10 UNK         0.0209 
     16 S16        16.1330  -30.1324  -41.4015 S.3       10 UNK        -0.2568 
     17 C17        16.6015  -28.3683  -41.4211 C.3       10 UNK        -0.0983 
     18 CA         18.1262  -28.1399  -41.2136 C.3       3 UNK         0.0876 
     19 N          18.5397  -26.8920  -41.8710 N.am      3 UNK        -0.4424 
     20 C          19.7782  -26.4945  -42.1881 C.2       2 UNK         0.4918 
     21 O          20.8063  -27.0983  -41.8714 O.2       2 UNK        -0.4875 
     22 CA         19.8659  -25.2266  -43.0506 C.3       2 UNK         0.0481 
     23 CB         21.2328  -24.5302  -42.9420 C.3       2 UNK        -0.1831 
     24 N          19.6232  -25.5920  -44.4427 N.am      2 UNK        -0.4498 
     25 C          18.4209  -25.7678  -45.0045 C.2       1 UNK         0.5027 
     26 O          17.3632  -25.5064  -44.4272 O.2       1 UNK        -0.4969 
     27 C          18.5712  -28.2514  -39.7296 C.2       3 UNK         0.5005 
     28 O          17.7587  -28.5596  -38.8552 O.2       3 UNK        -0.5279 
     29 N          19.8559  -27.9884  -39.4719 N.am      4 UNK        -0.4463 
     30 CA         20.5488  -28.0596  -38.1872 C.3       4 UNK         0.0283 
     31 CB         19.9629  -27.0717  -37.1561 C.3       4 UNK        -0.1875 
     32 C          22.0415  -27.7786  -38.3941 C.2       4 UNK         0.4949 
     33 O          22.8731  -28.5356  -37.8968 O.2       4 UNK        -0.5039 
     34 N          22.3534  -26.6939  -39.1182 N.am      5 UNK        -0.4663 
     35 CA         23.7206  -26.2027  -39.3122 C.3       5 UNK         0.0242 
     36 CB         23.6836  -24.6824  -39.5357 C.3       5 UNK        -0.1982 
     37 C          24.4828  -26.8913  -40.4562 C.2       5 UNK         0.5017 
     38 O          25.7135  -26.8328  -40.4584 O.2       5 UNK        -0.5012 
     39 N          23.7737  -27.5186  -41.4067 N.am      6 UNK        -0.4439 
     40 CA         24.3292  -28.1841  -42.5941 C.3       6 UNK         0.0297 
     41 CB         23.2092  -28.3409  -43.6401 C.3       6 UNK        -0.2006 
     42 C          25.0447  -29.5218  -42.2916 C.2       6 UNK         0.4892 
     43 O          24.7455  -30.5367  -42.9240 O.2       6 UNK        -0.5089 
     44 N          25.9823  -29.5042  -41.3336 N.am      7 UNK        -0.4243 
     45 CA         26.7674  -30.6367  -40.8290 C.3       7 UNK         0.0196 
     46 CB         27.8073  -31.0826  -41.8830 C.3       7 UNK        -0.2007 
     47 C          25.8498  -31.7664  -40.3219 C.2       7 UNK         0.5020 
     48 O          25.0187  -31.5151  -39.4486 O.2       7 UNK        -0.5147 
     49 N          25.9730  -32.9720  -40.8939 N.am      8 UNK        -0.4734 
     50 CA         25.1149  -34.1282  -40.6065 C.3       8 UNK         0.0238 
     51 CB         25.7052  -35.3744  -41.2864 C.3       8 UNK        -0.1912 
     52 C          23.6426  -33.9337  -41.0215 C.2       8 UNK         0.5038 
     53 O          22.7747  -34.6194  -40.4798 O.2       8 UNK        -0.5046 
     54 N          23.3900  -33.0077  -41.9554 N.am      9 UNK        -0.4200 
     55 CA         22.0553  -32.5567  -42.3683 C.3       9 UNK         0.0839 
     56 C          21.4840  -31.4235  -41.4572 C.2       9 UNK         0.5513 
     57 N          22.2120  -30.9252  -40.4633 N.am      9 UNK        -0.7519 
     58 O          20.3439  -31.0047  -41.6267 O.2       9 UNK        -0.4960 
     59 C59        22.0651  -32.1967  -43.8806 C.3       10 UNK        -0.0876 
     60 S60        20.4361  -32.3424  -44.6855 S.3       10 UNK        -0.2414 
     61 C61        20.0819  -30.5880  -45.0084 C.3       10 UNK         0.0169 
     62 H62        20.6352  -24.2389  -49.0472 H         1 UNK         0.0903 
     63 H63        22.0298  -24.1484  -47.9687 H         1 UNK         0.0903 
     64 H64        21.8977  -25.4688  -49.1334 H         1 UNK         0.0903 
     65 H65        18.8054  -24.9591  -47.9798 H         1 UNK         0.3096 
     66 H66        18.8371  -27.3428  -46.3327 H         1 UNK         0.1121 
     67 H67        16.5665  -25.5370  -47.2964 H         1 UNK         0.0849 
     68 H68        16.2970  -26.9286  -46.2877 H         1 UNK         0.0849 
     69 H69        15.1114  -28.9121  -47.8240 H         1 UNK         0.0865 
     70 H70        16.2971  -29.8887  -48.6502 H         1 UNK         0.0865 
     71 H71        18.7525  -29.8184  -47.2801 H         1 UNK         0.1346 
     72 H72        18.1354  -30.8265  -43.1677 H         1 UNK         0.1412 
     73 H73        14.8323  -29.5096  -45.5682 H         1 UNK         0.1426 
     74 H74        14.9731  -31.3562  -43.1165 H         1 UNK         0.0716 
     75 H75        14.5656  -29.6583  -43.1623 H         1 UNK         0.0716 
     76 H76        16.0107  -27.8306  -40.6772 H         1 UNK         0.0695 
     77 H77        16.2915  -27.9565  -42.3833 H         1 UNK         0.0695 
     78 H78        18.6558  -28.9366  -41.7392 H         1 UNK         0.0983 
     79 H79        17.7802  -26.3145  -42.2062 H         1 UNK         0.3095 
     80 H80        19.1026  -24.5205  -42.7168 H         1 UNK         0.0454 
     81 H81        22.0565  -25.1860  -43.2253 H         1 UNK         0.0851 
     82 H82        21.4102  -24.1981  -41.9200 H         1 UNK         0.0851 
     83 H83        21.2776  -23.6465  -43.5785 H         1 UNK         0.0851 
     84 H84        20.4324  -25.8590  -44.9974 H         1 UNK         0.2976 
     85 H85        20.4318  -27.7563  -40.2806 H         1 UNK         0.3116 
     86 H86        20.4457  -29.0761  -37.8021 H         1 UNK         0.0646 
     87 H87        19.9345  -26.0520  -37.5412 H         1 UNK         0.0847 
     88 H88        20.5610  -27.0595  -36.2438 H         1 UNK         0.0847 
     89 H89        18.9499  -27.3456  -36.8633 H         1 UNK         0.0847 
     90 H90        21.6087  -26.1202  -39.4870 H         1 UNK         0.3040 
     91 H91        24.2886  -26.3882  -38.3972 H         1 UNK         0.1015 
     92 H92        23.1702  -24.4212  -40.4598 H         1 UNK         0.0786 
     93 H93        24.6934  -24.2747  -39.6018 H         1 UNK         0.0786 
     94 H94        23.1837  -24.1701  -38.7134 H         1 UNK         0.0786 
     95 H95        22.7621  -27.5006  -41.3412 H         1 UNK         0.3172 
     96 H96        25.0843  -27.5244  -43.0260 H         1 UNK         0.0595 
     97 H97        22.3858  -28.9393  -43.2508 H         1 UNK         0.0839 
     98 H98        23.5735  -28.8268  -44.5461 H         1 UNK         0.0839 
     99 H99        22.8041  -27.3749  -43.9398 H         1 UNK         0.0839 
    100 H100       26.1246  -28.6149  -40.8611 H         1 UNK         0.2998 
    101 H101       27.3118  -30.2729  -39.9564 H         1 UNK         0.0822 
    102 H102       28.4561  -30.2522  -42.1621 H         1 UNK         0.0787 
    103 H103       28.4539  -31.8704  -41.4942 H         1 UNK         0.0787 
    104 H104       27.3398  -31.4510  -42.7971 H         1 UNK         0.0787 
    105 H105       26.6691  -33.0884  -41.6167 H         1 UNK         0.3055 
    106 H106       25.1225  -34.2892  -39.5260 H         1 UNK         0.1106 
    107 H107       25.1061  -36.2595  -41.0669 H         1 UNK         0.0828 
    108 H108       25.7388  -35.2655  -42.3712 H         1 UNK         0.0828 
    109 H109       26.7174  -35.5773  -40.9361 H         1 UNK         0.0828 
    110 H110       24.1572  -32.4424  -42.3022 H         1 UNK         0.2931 
    111 H111       21.3759  -33.4020  -42.2444 H         1 UNK         0.0412 
    112 H112       21.8087  -30.2221  -39.8689 H         1 UNK         0.3472 
    113 H113       23.1489  -31.2601  -40.2728 H         1 UNK         0.3472 
    114 H114       22.7242  -32.8812  -44.4170 H         1 UNK         0.0970 
    115 H115       22.4880  -31.2063  -44.0476 H         1 UNK         0.0970 
    116 H116       20.4209  -29.9804  -44.1686 H         1 UNK         0.0612 
    117 H117       20.6520  -30.2597  -45.8789 H         1 UNK         0.0612 
@<TRIPOS>BOND
     1    1    2 1    
     2    1   62 1    
     3    1   63 1    
     4    1   64 1    
     5    2    3 2    
     6    2    4 am   BACKBONE|DICT|INTERRES
     7    4    5 1    
     8    4   65 1    
     9    5    6 1    
    10    5   25 1    
    11    5   66 1    
    12    6    7 1    
    13    6   67 1    
    14    6   68 1    
    15    7    8 1    
    16    8    9 1    
    17    8   69 1    
    18    8   70 1    
    19    9   10 ar   
    20    9   14 ar   
    21   10   11 ar   
    22   10   71 1    
    23   11   12 ar   
    24   11   61 1    
    25   12   13 ar   
    26   12   72 1    
    27   13   14 ar   
    28   13   15 1    
    29   14   73 1    
    30   15   16 1    
    31   15   74 1    
    32   15   75 1    
    33   16   17 1    
    34   17   18 1    
    35   17   76 1    
    36   17   77 1    
    37   18   19 1    
    38   18   27 1    
    39   18   78 1    
    40   19   20 am   BACKBONE|DICT|INTERRES
    41   19   79 1    
    42   20   21 2    
    43   20   22 1    
    44   22   23 1    
    45   22   24 1    
    46   22   80 1    
    47   23   81 1    
    48   23   82 1    
    49   23   83 1    
    50   24   25 am   BACKBONE|DICT|INTERRES
    51   24   84 1    
    52   25   26 2    
    53   27   28 2    
    54   27   29 am   BACKBONE|DICT|INTERRES
    55   29   30 1    
    56   29   85 1    
    57   30   31 1    
    58   30   32 1    
    59   30   86 1    
    60   31   87 1    
    61   31   88 1    
    62   31   89 1    
    63   32   33 2    
    64   32   34 am   BACKBONE|DICT|INTERRES
    65   34   35 1    
    66   34   90 1    
    67   35   36 1    
    68   35   37 1    
    69   35   91 1    
    70   36   92 1    
    71   36   93 1    
    72   36   94 1    
    73   37   38 2    
    74   37   39 am   BACKBONE|DICT|INTERRES
    75   39   40 1    
    76   39   95 1    
    77   40   41 1    
    78   40   42 1    
    79   40   96 1    
    80   41   97 1    
    81   41   98 1    
    82   41   99 1    
    83   42   43 2    
    84   42   44 am   BACKBONE|DICT|INTERRES
    85   44   45 1    
    86   44  100 1    
    87   45   46 1    
    88   45   47 1    
    89   45  101 1    
    90   46  102 1    
    91   46  103 1    
    92   46  104 1    
    93   47   48 2    
    94   47   49 am   BACKBONE|DICT|INTERRES
    95   49   50 1    
    96   49  105 1    
    97   50   51 1    
    98   50   52 1    
    99   50  106 1    
   100   51  107 1    
   101   51  108 1    
   102   51  109 1    
   103   52   53 2    
   104   52   54 am   BACKBONE|DICT|INTERRES
   105   54   55 1    
   106   54  110 1    
   107   55   56 1    
   108   55   59 1    
   109   55  111 1    
   110   56   57 am   BACKBONE|DICT|INTERRES
   111   56   58 2    
   112   57  112 1    
   113   57  113 1    
   114   59   60 1    
   115   59  114 1    
   116   59  115 1    
   117   60   61 1    
   118   61  116 1    
   119   61  117 1    
@<TRIPOS>SUBSTRUCTURE
     1 UNK         1 GROUP             0       ****    0 ROOT    
