@<TRIPOS>MOLECULE
3R8
117   119    1
SMALL
USER_CHARGES


@<TRIPOS>ATOM
      1 CA         15.9025  -23.7737  -47.4300 C.3       0 UNK        -0.2013 
      2 C          16.5727  -25.0553  -46.9571 C.2       0 UNK         0.4866 
      3 O          17.6542  -25.3897  -47.4405 O.2       0 UNK        -0.5176 
      4 N          15.9369  -25.7634  -46.0173 N.am      1 UNK        -0.4884 
      5 CA         16.4373  -26.9856  -45.3807 C.3       1 UNK         0.0853 
      6 C6         15.7305  -28.2608  -45.9150 C.3       10 UNK        -0.0849 
      7 S7         16.2775  -28.6654  -47.6070 S.3       10 UNK        -0.2776 
      8 C8         17.3919  -30.0856  -47.3268 C.3       10 UNK         0.0316 
      9 C9         18.5285  -29.8064  -46.3443 C.ar      10 UNK        -0.0863 
     10 C10        18.7807  -30.7053  -45.3034 C.ar      10 UNK        -0.1009 
     11 C11        19.8453  -30.4970  -44.4215 C.ar      10 UNK        -0.0712 
     12 C12        20.6518  -29.3652  -44.5703 C.ar      10 UNK        -0.0894 
     13 C13        20.3925  -28.4409  -45.5861 C.ar      10 UNK        -0.0745 
     14 C14        19.3486  -28.6814  -46.4858 C.ar      10 UNK        -0.0972 
     15 C15        21.2430  -27.1870  -45.7246 C.3       10 UNK         0.0209 
     16 S16        20.5661  -25.8020  -44.7501 S.3       10 UNK        -0.2568 
     17 C17        21.3508  -26.0653  -43.1228 C.3       10 UNK        -0.0983 
     18 CA         20.3798  -25.8606  -41.9322 C.3       3 UNK         0.0876 
     19 N          19.2556  -26.7933  -42.0164 N.am      3 UNK        -0.4424 
     20 C          18.1259  -26.7457  -41.3001 C.2       2 UNK         0.4918 
     21 O          17.8776  -25.8932  -40.4454 O.2       2 UNK        -0.4875 
     22 CA         17.0852  -27.8191  -41.6706 C.3       2 UNK         0.0481 
     23 CB         15.7699  -27.7124  -40.8692 C.3       2 UNK        -0.1831 
     24 N          16.8524  -27.8291  -43.1219 N.am      2 UNK        -0.4498 
     25 C          16.3094  -26.8425  -43.8542 C.2       1 UNK         0.5027 
     26 O          15.7574  -25.8472  -43.3756 O.2       1 UNK        -0.4969 
     27 C          21.1350  -25.9684  -40.5875 C.2       3 UNK         0.5005 
     28 O          20.9348  -26.9161  -39.8236 O.2       3 UNK        -0.5279 
     29 N          22.0277  -25.0014  -40.3345 N.am      4 UNK        -0.4463 
     30 CA         22.8983  -24.9613  -39.1537 C.3       4 UNK         0.0283 
     31 CB         23.4882  -23.5482  -39.0141 C.3       4 UNK        -0.1875 
     32 C          24.0272  -26.0121  -39.1682 C.2       4 UNK         0.4949 
     33 O          24.6003  -26.2859  -38.1133 O.2       4 UNK        -0.5039 
     34 N          24.3321  -26.5797  -40.3407 N.am      5 UNK        -0.4663 
     35 CA         25.3571  -27.5970  -40.5610 C.3       5 UNK         0.0242 
     36 CB         26.7391  -26.9180  -40.6659 C.3       5 UNK        -0.1982 
     37 C          25.0145  -28.3971  -41.8284 C.2       5 UNK         0.5017 
     38 O          24.0217  -28.0869  -42.4905 O.2       5 UNK        -0.5012 
     39 N          25.8755  -29.3749  -42.1454 N.am      6 UNK        -0.4439 
     40 CA         25.8504  -30.3032  -43.2842 C.3       6 UNK         0.0297 
     41 CB         25.6351  -29.5840  -44.6321 C.3       6 UNK        -0.2006 
     42 C          24.8515  -31.4572  -43.1013 C.2       6 UNK         0.4892 
     43 O          23.7421  -31.2564  -42.6045 O.2       6 UNK        -0.5089 
     44 N          25.2776  -32.6531  -43.5357 N.am      7 UNK        -0.4243 
     45 CA         24.5608  -33.9312  -43.4579 C.3       7 UNK         0.0196 
     46 CB         23.4001  -33.9601  -44.4797 C.3       7 UNK        -0.2007 
     47 C          24.1514  -34.2648  -42.0085 C.2       7 UNK         0.5020 
     48 O          25.0101  -34.2503  -41.1252 O.2       7 UNK        -0.5147 
     49 N          22.8640  -34.5511  -41.7834 N.am      8 UNK        -0.4734 
     50 CA         22.2851  -34.7968  -40.4594 C.3       8 UNK         0.0238 
     51 CB         21.0546  -35.7058  -40.6257 C.3       8 UNK        -0.1912 
     52 C          21.9012  -33.5047  -39.7107 C.2       8 UNK         0.5038 
     53 O          21.5267  -33.5899  -38.5397 O.2       8 UNK        -0.5046 
     54 N          21.9589  -32.3526  -40.3900 N.am      9 UNK        -0.4200 
     55 CA         21.5710  -31.0369  -39.8647 C.3       9 UNK         0.0839 
     56 C          22.7514  -30.3219  -39.1441 C.2       9 UNK         0.5513 
     57 N          22.5737  -29.0776  -38.7241 N.am      9 UNK        -0.7519 
     58 O          23.8256  -30.8812  -38.9306 O.2       9 UNK        -0.4960 
     59 C59        20.9035  -30.1680  -40.9659 C.3       10 UNK        -0.0876 
     60 S60        19.4562  -30.9847  -41.7255 S.3       10 UNK        -0.2414 
     61 C61        20.1328  -31.5124  -43.3270 C.3       10 UNK         0.0169 
     62 H62        14.9529  -23.5983  -46.9247 H         1 UNK         0.0903 
     63 H63        16.5511  -22.9190  -47.2393 H         1 UNK         0.0903 
     64 H64        15.7115  -23.8245  -48.5016 H         1 UNK         0.0903 
     65 H65        15.0944  -25.3938  -45.5965 H         1 UNK         0.3096 
     66 H66        17.5094  -27.0611  -45.5607 H         1 UNK         0.1121 
     67 H67        15.9153  -29.1290  -45.2804 H         1 UNK         0.0849 
     68 H68        14.6477  -28.1237  -45.9200 H         1 UNK         0.0849 
     69 H69        16.7907  -30.9320  -46.9907 H         1 UNK         0.0865 
     70 H70        17.8250  -30.3826  -48.2829 H         1 UNK         0.0865 
     71 H71        18.1601  -31.5840  -45.1894 H         1 UNK         0.1346 
     72 H72        21.4837  -29.2064  -43.8984 H         1 UNK         0.1412 
     73 H73        19.1573  -27.9772  -47.2852 H         1 UNK         0.1426 
     74 H74        21.2834  -26.8853  -46.7723 H         1 UNK         0.0716 
     75 H75        22.2747  -27.3865  -45.4291 H         1 UNK         0.0716 
     76 H76        22.1994  -25.3816  -43.0648 H         1 UNK         0.0695 
     77 H77        21.7695  -27.0697  -43.0847 H         1 UNK         0.0695 
     78 H78        19.9676  -24.8506  -41.9882 H         1 UNK         0.0983 
     79 H79        19.3572  -27.5277  -42.6999 H         1 UNK         0.3095 
     80 H80        17.5322  -28.7818  -41.4237 H         1 UNK         0.0454 
     81 H81        15.9579  -27.8458  -39.8033 H         1 UNK         0.0851 
     82 H82        15.2893  -26.7415  -40.9889 H         1 UNK         0.0851 
     83 H83        15.0578  -28.4799  -41.1713 H         1 UNK         0.0851 
     84 H84        17.2666  -28.6095  -43.6136 H         1 UNK         0.2976 
     85 H85        22.1416  -24.2519  -41.0027 H         1 UNK         0.3116 
     86 H86        22.2840  -25.1605  -38.2728 H         1 UNK         0.0646 
     87 H87        24.1127  -23.4724  -38.1227 H         1 UNK         0.0847 
     88 H88        22.7044  -22.7963  -38.9208 H         1 UNK         0.0847 
     89 H89        24.1110  -23.2833  -39.8695 H         1 UNK         0.0847 
     90 H90        23.7682  -26.3788  -41.1563 H         1 UNK         0.3040 
     91 H91        25.3529  -28.2950  -39.7207 H         1 UNK         0.1015 
     92 H92        26.9666  -26.3377  -39.7715 H         1 UNK         0.0786 
     93 H93        26.7885  -26.2430  -41.5213 H         1 UNK         0.0786 
     94 H94        27.5401  -27.6491  -40.7786 H         1 UNK         0.0786 
     95 H95        26.6333  -29.5390  -41.4975 H         1 UNK         0.3172 
     96 H96        26.8518  -30.7363  -43.3083 H         1 UNK         0.0595 
     97 H97        26.3191  -28.7438  -44.7513 H         1 UNK         0.0839 
     98 H98        24.6167  -29.2081  -44.7366 H         1 UNK         0.0839 
     99 H99        25.8082  -30.2650  -45.4661 H         1 UNK         0.0839 
    100 H100       26.2155  -32.7112  -43.9076 H         1 UNK         0.2998 
    101 H101       25.2740  -34.7034  -43.7505 H         1 UNK         0.0822 
    102 H102       23.7675  -33.7684  -45.4879 H         1 UNK         0.0787 
    103 H103       22.9131  -34.9359  -44.5040 H         1 UNK         0.0787 
    104 H104       22.6409  -33.2090  -44.2648 H         1 UNK         0.0787 
    105 H105       22.2251  -34.5419  -42.5656 H         1 UNK         0.3055 
    106 H106       23.0159  -35.3215  -39.8395 H         1 UNK         0.1106 
    107 H107       20.2758  -35.2268  -41.2205 H         1 UNK         0.0828 
    108 H108       21.3177  -36.6469  -41.1089 H         1 UNK         0.0828 
    109 H109       20.6173  -35.9539  -39.6575 H         1 UNK         0.0828 
    110 H110       22.3848  -32.3414  -41.3082 H         1 UNK         0.2931 
    111 H111       20.8172  -31.1954  -39.0912 H         1 UNK         0.0412 
    112 H112       23.3282  -28.6203  -38.2375 H         1 UNK         0.3472 
    113 H113       21.7461  -28.5418  -38.9628 H         1 UNK         0.3472 
    114 H114       21.6320  -29.8785  -41.7238 H         1 UNK         0.0970 
    115 H115       20.5300  -29.2414  -40.5375 H         1 UNK         0.0970 
    116 H116       21.2055  -31.6802  -43.2443 H         1 UNK         0.0612 
    117 H117       19.6964  -32.4783  -43.5852 H         1 UNK         0.0612 
@<TRIPOS>BOND
     1    1    2 1    
     2    1   62 1    
     3    1   63 1    
     4    1   64 1    
     5    2    3 2    
     6    2    4 am   BACKBONE|DICT|INTERRES
     7    4    5 1    
     8    4   65 1    
     9    5    6 1    
    10    5   25 1    
    11    5   66 1    
    12    6    7 1    
    13    6   67 1    
    14    6   68 1    
    15    7    8 1    
    16    8    9 1    
    17    8   69 1    
    18    8   70 1    
    19    9   10 ar   
    20    9   14 ar   
    21   10   11 ar   
    22   10   71 1    
    23   11   12 ar   
    24   11   61 1    
    25   12   13 ar   
    26   12   72 1    
    27   13   14 ar   
    28   13   15 1    
    29   14   73 1    
    30   15   16 1    
    31   15   74 1    
    32   15   75 1    
    33   16   17 1    
    34   17   18 1    
    35   17   76 1    
    36   17   77 1    
    37   18   19 1    
    38   18   27 1    
    39   18   78 1    
    40   19   20 am   BACKBONE|DICT|INTERRES
    41   19   79 1    
    42   20   21 2    
    43   20   22 1    
    44   22   23 1    
    45   22   24 1    
    46   22   80 1    
    47   23   81 1    
    48   23   82 1    
    49   23   83 1    
    50   24   25 am   BACKBONE|DICT|INTERRES
    51   24   84 1    
    52   25   26 2    
    53   27   28 2    
    54   27   29 am   BACKBONE|DICT|INTERRES
    55   29   30 1    
    56   29   85 1    
    57   30   31 1    
    58   30   32 1    
    59   30   86 1    
    60   31   87 1    
    61   31   88 1    
    62   31   89 1    
    63   32   33 2    
    64   32   34 am   BACKBONE|DICT|INTERRES
    65   34   35 1    
    66   34   90 1    
    67   35   36 1    
    68   35   37 1    
    69   35   91 1    
    70   36   92 1    
    71   36   93 1    
    72   36   94 1    
    73   37   38 2    
    74   37   39 am   BACKBONE|DICT|INTERRES
    75   39   40 1    
    76   39   95 1    
    77   40   41 1    
    78   40   42 1    
    79   40   96 1    
    80   41   97 1    
    81   41   98 1    
    82   41   99 1    
    83   42   43 2    
    84   42   44 am   BACKBONE|DICT|INTERRES
    85   44   45 1    
    86   44  100 1    
    87   45   46 1    
    88   45   47 1    
    89   45  101 1    
    90   46  102 1    
    91   46  103 1    
    92   46  104 1    
    93   47   48 2    
    94   47   49 am   BACKBONE|DICT|INTERRES
    95   49   50 1    
    96   49  105 1    
    97   50   51 1    
    98   50   52 1    
    99   50  106 1    
   100   51  107 1    
   101   51  108 1    
   102   51  109 1    
   103   52   53 2    
   104   52   54 am   BACKBONE|DICT|INTERRES
   105   54   55 1    
   106   54  110 1    
   107   55   56 1    
   108   55   59 1    
   109   55  111 1    
   110   56   57 am   BACKBONE|DICT|INTERRES
   111   56   58 2    
   112   57  112 1    
   113   57  113 1    
   114   59   60 1    
   115   59  114 1    
   116   59  115 1    
   117   60   61 1    
   118   61  116 1    
   119   61  117 1    
@<TRIPOS>SUBSTRUCTURE
     1 UNK         1 GROUP             0       ****    0 ROOT    
