@<TRIPOS>MOLECULE
3R8
117   119    1
SMALL
USER_CHARGES


@<TRIPOS>ATOM
      1 CA         13.8553  -26.8287  -46.4931 C.3       0 UNK        -0.2013 
      2 C          14.8176  -26.2259  -45.4806 C.2       0 UNK         0.4866 
      3 O          14.4820  -25.2273  -44.8435 O.2       0 UNK        -0.5176 
      4 N          16.0084  -26.8259  -45.3375 N.am      1 UNK        -0.4884 
      5 CA         17.0861  -26.4326  -44.4145 C.3       1 UNK         0.0853 
      6 C6         16.7216  -26.6092  -42.9133 C.3       10 UNK        -0.0849 
      7 S7         16.2814  -28.3262  -42.4761 S.3       10 UNK        -0.2776 
      8 C8         17.7773  -28.8855  -41.5971 C.3       10 UNK         0.0316 
      9 C9         18.8601  -29.3455  -42.5621 C.ar      10 UNK        -0.0863 
     10 C10        18.9080  -30.6822  -42.9671 C.ar      10 UNK        -0.1009 
     11 C11        19.9141  -31.1321  -43.8276 C.ar      10 UNK        -0.0712 
     12 C12        20.8594  -30.2225  -44.3119 C.ar      10 UNK        -0.0894 
     13 C13        20.8092  -28.8782  -43.9304 C.ar      10 UNK        -0.0745 
     14 C14        19.8191  -28.4482  -43.0410 C.ar      10 UNK        -0.0972 
     15 C15        21.8253  -27.8856  -44.4681 C.3       10 UNK         0.0209 
     16 S16        21.1139  -26.9147  -45.8280 S.3       10 UNK        -0.2568 
     17 C17        22.3005  -25.5261  -45.9583 C.3       10 UNK        -0.0983 
     18 CA         21.8776  -24.2293  -45.2026 C.3       3 UNK         0.0876 
     19 N          20.4732  -23.8830  -45.3907 N.am      3 UNK        -0.4424 
     20 C          19.8902  -23.5098  -46.5321 C.2       2 UNK         0.4918 
     21 O          20.5127  -23.2703  -47.5683 O.2       2 UNK        -0.4875 
     22 CA         18.3480  -23.4341  -46.5134 C.3       2 UNK         0.0481 
     23 CB         17.7520  -23.1193  -47.8980 C.3       2 UNK        -0.1831 
     24 N          17.7554  -24.6809  -46.0137 N.am      2 UNK        -0.4498 
     25 C          17.6460  -25.0240  -44.7217 C.2       1 UNK         0.5027 
     26 O          17.9941  -24.2794  -43.8031 O.2       1 UNK        -0.4969 
     27 C          22.1316  -24.3417  -43.6903 C.2       3 UNK         0.5005 
     28 O          21.2262  -24.7298  -42.9470 O.2       3 UNK        -0.5279 
     29 N          23.3597  -24.0219  -43.2620 N.am      4 UNK        -0.4463 
     30 CA         23.8000  -24.1474  -41.8677 C.3       4 UNK         0.0283 
     31 CB         24.8700  -23.0819  -41.5782 C.3       4 UNK        -0.1875 
     32 C          24.3478  -25.5479  -41.5409 C.2       4 UNK         0.4949 
     33 O          24.3520  -25.9380  -40.3727 O.2       4 UNK        -0.5039 
     34 N          24.8132  -26.2794  -42.5631 N.am      5 UNK        -0.4663 
     35 CA         25.4580  -27.5917  -42.4572 C.3       5 UNK         0.0242 
     36 CB         26.3218  -27.8143  -43.7134 C.3       5 UNK        -0.1982 
     37 C          24.4503  -28.7351  -42.2246 C.2       5 UNK         0.5017 
     38 O          24.3674  -29.6550  -43.0393 O.2       5 UNK        -0.5012 
     39 N          23.6949  -28.6494  -41.1212 N.am      6 UNK        -0.4439 
     40 CA         22.6754  -29.6236  -40.7129 C.3       6 UNK         0.0297 
     41 CB         21.8617  -29.0546  -39.5407 C.3       6 UNK        -0.2006 
     42 C          23.2351  -31.0159  -40.3683 C.2       6 UNK         0.4892 
     43 O          22.5001  -31.9950  -40.4873 O.2       6 UNK        -0.5089 
     44 N          24.5168  -31.0794  -39.9710 N.am      7 UNK        -0.4243 
     45 CA         25.3229  -32.2858  -39.7505 C.3       7 UNK         0.0196 
     46 CB         25.7482  -32.8789  -41.1138 C.3       7 UNK        -0.2007 
     47 C          24.6333  -33.3009  -38.8172 C.2       7 UNK         0.5020 
     48 O          24.5526  -33.0499  -37.6140 O.2       7 UNK        -0.5147 
     49 N          24.1461  -34.4091  -39.3870 N.am      8 UNK        -0.4734 
     50 CA         23.4110  -35.4693  -38.6980 C.3       8 UNK         0.0238 
     51 CB         24.2765  -36.7441  -38.6816 C.3       8 UNK        -0.1912 
     52 C          22.0282  -35.7146  -39.3325 C.2       8 UNK         0.5038 
     53 O          21.4761  -36.8015  -39.1488 O.2       8 UNK        -0.5046 
     54 N          21.4865  -34.7310  -40.0685 N.am      9 UNK        -0.4200 
     55 CA         20.1323  -34.7800  -40.6453 C.3       9 UNK         0.0839 
     56 C          19.0260  -34.8306  -39.5545 C.2       9 UNK         0.5513 
     57 N          17.9378  -35.5444  -39.8094 N.am      9 UNK        -0.7519 
     58 O          19.1250  -34.1962  -38.5059 O.2       9 UNK        -0.4960 
     59 C59        19.8677  -33.5973  -41.6110 C.3       10 UNK        -0.0876 
     60 S60        20.9484  -33.6050  -43.0819 S.3       10 UNK        -0.2414 
     61 C61        19.9705  -32.5965  -44.2440 C.3       10 UNK         0.0169 
     62 H62        12.9312  -27.1278  -45.9991 H         1 UNK         0.0903 
     63 H63        13.6094  -26.0948  -47.2602 H         1 UNK         0.0903 
     64 H64        14.2751  -27.7059  -46.9851 H         1 UNK         0.0903 
     65 H65        16.2051  -27.6492  -45.8906 H         1 UNK         0.3096 
     66 H66        17.9149  -27.1099  -44.6261 H         1 UNK         0.1121 
     67 H67        15.8824  -25.9645  -42.6475 H         1 UNK         0.0849 
     68 H68        17.5477  -26.2904  -42.2755 H         1 UNK         0.0849 
     69 H69        18.1541  -28.0985  -40.9421 H         1 UNK         0.0865 
     70 H70        17.5028  -29.7103  -40.9375 H         1 UNK         0.0865 
     71 H71        18.1638  -31.3764  -42.6025 H         1 UNK         0.1346 
     72 H72        21.6356  -30.5614  -44.9843 H         1 UNK         0.1412 
     73 H73        19.7918  -27.4105  -42.7354 H         1 UNK         0.1426 
     74 H74        22.7193  -28.3982  -44.8257 H         1 UNK         0.0716 
     75 H75        22.1449  -27.2290  -43.6594 H         1 UNK         0.0716 
     76 H76        23.2932  -25.8604  -45.6513 H         1 UNK         0.0695 
     77 H77        22.3962  -25.2966  -47.0205 H         1 UNK         0.0695 
     78 H78        22.4732  -23.3940  -45.5773 H         1 UNK         0.0983 
     79 H79        19.8937  -24.0470  -44.5713 H         1 UNK         0.3095 
     80 H80        18.0731  -22.6167  -45.8437 H         1 UNK         0.0454 
     81 H81        18.1324  -22.1715  -48.2812 H         1 UNK         0.0851 
     82 H82        17.9989  -23.8897  -48.6295 H         1 UNK         0.0851 
     83 H83        16.6662  -23.0345  -47.8526 H         1 UNK         0.0851 
     84 H84        17.4679  -25.3544  -46.7092 H         1 UNK         0.2976 
     85 H85        24.0432  -23.6852  -43.9265 H         1 UNK         0.3116 
     86 H86        22.9546  -23.9617  -41.2013 H         1 UNK         0.0646 
     87 H87        25.1983  -23.1318  -40.5389 H         1 UNK         0.0847 
     88 H88        24.4840  -22.0761  -41.7449 H         1 UNK         0.0847 
     89 H89        25.7537  -23.2116  -42.2043 H         1 UNK         0.0847 
     90 H90        24.7486  -25.8891  -43.4907 H         1 UNK         0.3040 
     91 H91        26.1287  -27.5802  -41.5949 H         1 UNK         0.1015 
     92 H92        27.0729  -27.0318  -43.8234 H         1 UNK         0.0786 
     93 H93        25.7181  -27.8316  -44.6219 H         1 UNK         0.0786 
     94 H94        26.8551  -28.7645  -43.6583 H         1 UNK         0.0786 
     95 H95        23.8131  -27.8230  -40.5414 H         1 UNK         0.3172 
     96 H96        21.9969  -29.7620  -41.5553 H         1 UNK         0.0595 
     97 H97        21.3724  -28.1200  -39.8158 H         1 UNK         0.0839 
     98 H98        22.4873  -28.8655  -38.6676 H         1 UNK         0.0839 
     99 H99        21.0781  -29.7509  -39.2380 H         1 UNK         0.0839 
    100 H100       25.0049  -30.2030  -39.8571 H         1 UNK         0.2998 
    101 H101       26.2292  -31.9667  -39.2336 H         1 UNK         0.0822 
    102 H102       26.3619  -33.7718  -40.9850 H         1 UNK         0.0787 
    103 H103       24.8916  -33.1447  -41.7348 H         1 UNK         0.0787 
    104 H104       26.3448  -32.1621  -41.6785 H         1 UNK         0.0787 
    105 H105       24.2283  -34.5022  -40.3902 H         1 UNK         0.3055 
    106 H106       23.2143  -35.1800  -37.6634 H         1 UNK         0.1106 
    107 H107       25.2436  -36.5596  -38.2135 H         1 UNK         0.0828 
    108 H108       23.7947  -37.5422  -38.1152 H         1 UNK         0.0828 
    109 H109       24.4576  -37.1205  -39.6889 H         1 UNK         0.0828 
    110 H110       21.9738  -33.8435  -40.1621 H         1 UNK         0.2931 
    111 H111       20.0684  -35.7035  -41.2249 H         1 UNK         0.0412 
    112 H112       17.2009  -35.5781  -39.1219 H         1 UNK         0.3472 
    113 H113       17.8438  -36.0630  -40.6693 H         1 UNK         0.3472 
    114 H114       19.9871  -32.6445  -41.0918 H         1 UNK         0.0970 
    115 H115       18.8332  -33.6286  -41.9580 H         1 UNK         0.0970 
    116 H116       20.4152  -32.6812  -45.2366 H         1 UNK         0.0612 
    117 H117       18.9630  -33.0063  -44.3288 H         1 UNK         0.0612 
@<TRIPOS>BOND
     1    1    2 1    
     2    1   62 1    
     3    1   63 1    
     4    1   64 1    
     5    2    3 2    
     6    2    4 am   BACKBONE|DICT|INTERRES
     7    4    5 1    
     8    4   65 1    
     9    5    6 1    
    10    5   25 1    
    11    5   66 1    
    12    6    7 1    
    13    6   67 1    
    14    6   68 1    
    15    7    8 1    
    16    8    9 1    
    17    8   69 1    
    18    8   70 1    
    19    9   10 ar   
    20    9   14 ar   
    21   10   11 ar   
    22   10   71 1    
    23   11   12 ar   
    24   11   61 1    
    25   12   13 ar   
    26   12   72 1    
    27   13   14 ar   
    28   13   15 1    
    29   14   73 1    
    30   15   16 1    
    31   15   74 1    
    32   15   75 1    
    33   16   17 1    
    34   17   18 1    
    35   17   76 1    
    36   17   77 1    
    37   18   19 1    
    38   18   27 1    
    39   18   78 1    
    40   19   20 am   BACKBONE|DICT|INTERRES
    41   19   79 1    
    42   20   21 2    
    43   20   22 1    
    44   22   23 1    
    45   22   24 1    
    46   22   80 1    
    47   23   81 1    
    48   23   82 1    
    49   23   83 1    
    50   24   25 am   BACKBONE|DICT|INTERRES
    51   24   84 1    
    52   25   26 2    
    53   27   28 2    
    54   27   29 am   BACKBONE|DICT|INTERRES
    55   29   30 1    
    56   29   85 1    
    57   30   31 1    
    58   30   32 1    
    59   30   86 1    
    60   31   87 1    
    61   31   88 1    
    62   31   89 1    
    63   32   33 2    
    64   32   34 am   BACKBONE|DICT|INTERRES
    65   34   35 1    
    66   34   90 1    
    67   35   36 1    
    68   35   37 1    
    69   35   91 1    
    70   36   92 1    
    71   36   93 1    
    72   36   94 1    
    73   37   38 2    
    74   37   39 am   BACKBONE|DICT|INTERRES
    75   39   40 1    
    76   39   95 1    
    77   40   41 1    
    78   40   42 1    
    79   40   96 1    
    80   41   97 1    
    81   41   98 1    
    82   41   99 1    
    83   42   43 2    
    84   42   44 am   BACKBONE|DICT|INTERRES
    85   44   45 1    
    86   44  100 1    
    87   45   46 1    
    88   45   47 1    
    89   45  101 1    
    90   46  102 1    
    91   46  103 1    
    92   46  104 1    
    93   47   48 2    
    94   47   49 am   BACKBONE|DICT|INTERRES
    95   49   50 1    
    96   49  105 1    
    97   50   51 1    
    98   50   52 1    
    99   50  106 1    
   100   51  107 1    
   101   51  108 1    
   102   51  109 1    
   103   52   53 2    
   104   52   54 am   BACKBONE|DICT|INTERRES
   105   54   55 1    
   106   54  110 1    
   107   55   56 1    
   108   55   59 1    
   109   55  111 1    
   110   56   57 am   BACKBONE|DICT|INTERRES
   111   56   58 2    
   112   57  112 1    
   113   57  113 1    
   114   59   60 1    
   115   59  114 1    
   116   59  115 1    
   117   60   61 1    
   118   61  116 1    
   119   61  117 1    
@<TRIPOS>SUBSTRUCTURE
     1 UNK         1 GROUP             0       ****    0 ROOT    
