@<TRIPOS>MOLECULE
3R8
117   119    1
SMALL
USER_CHARGES


@<TRIPOS>ATOM
      1 CA         19.5203  -26.1396  -49.5231 C.3       0 UNK        -0.2013 
      2 C          20.2677  -27.0457  -48.5564 C.2       0 UNK         0.4866 
      3 O          21.4584  -27.2939  -48.7460 O.2       0 UNK        -0.5176 
      4 N          19.5780  -27.5427  -47.5211 N.am      1 UNK        -0.4884 
      5 CA         20.1336  -28.4476  -46.5048 C.3       1 UNK         0.0853 
      6 C6         19.0227  -29.1101  -45.6584 C.3       10 UNK        -0.0849 
      7 S7         17.9211  -30.1981  -46.6195 S.3       10 UNK        -0.2776 
      8 C8         16.3573  -30.0596  -45.6801 C.3       10 UNK         0.0316 
      9 C9         16.5486  -30.1275  -44.1659 C.ar      10 UNK        -0.0863 
     10 C10        17.2728  -31.1734  -43.5842 C.ar      10 UNK        -0.1009 
     11 C11        17.4956  -31.2028  -42.2052 C.ar      10 UNK        -0.0712 
     12 C12        16.9500  -30.2014  -41.3969 C.ar      10 UNK        -0.0894 
     13 C13        16.2120  -29.1565  -41.9622 C.ar      10 UNK        -0.0745 
     14 C14        16.0185  -29.1240  -43.3472 C.ar      10 UNK        -0.0972 
     15 C15        15.6004  -28.0779  -41.0760 C.3       10 UNK         0.0209 
     16 S16        16.8433  -27.1399  -40.1275 S.3       10 UNK        -0.2568 
     17 C17        17.6675  -26.1378  -41.4133 C.3       10 UNK        -0.0983 
     18 CA         19.2128  -26.2493  -41.3468 C.3       3 UNK         0.0876 
     19 N          19.8259  -25.9226  -42.6397 N.am      3 UNK        -0.4424 
     20 C          21.1230  -26.0830  -42.9373 C.2       2 UNK         0.4918 
     21 O          21.9380  -26.6189  -42.1852 O.2       2 UNK        -0.4875 
     22 CA         21.5551  -25.5954  -44.3309 C.3       2 UNK         0.0481 
     23 CB         23.0857  -25.4940  -44.4873 C.3       2 UNK        -0.1831 
     24 N          20.9599  -26.4367  -45.3723 N.am      2 UNK        -0.4498 
     25 C          21.1219  -27.7595  -45.5418 C.2       1 UNK         0.5027 
     26 O          21.9504  -28.4484  -44.9408 O.2       1 UNK        -0.4969 
     27 C          19.8158  -25.3910  -40.2065 C.2       3 UNK         0.5005 
     28 O          20.3867  -24.3280  -40.4667 O.2       3 UNK        -0.5279 
     29 N          19.7232  -25.8933  -38.9677 N.am      4 UNK        -0.4463 
     30 CA         20.3501  -25.4029  -37.7288 C.3       4 UNK         0.0283 
     31 CB         20.0054  -23.9315  -37.4236 C.3       4 UNK        -0.1875 
     32 C          21.8678  -25.6579  -37.6792 C.2       4 UNK         0.4949 
     33 O          22.3585  -26.1306  -36.6539 O.2       4 UNK        -0.5039 
     34 N          22.5757  -25.4069  -38.7900 N.am      5 UNK        -0.4663 
     35 CA         23.9420  -25.8895  -39.0239 C.3       5 UNK         0.0242 
     36 CB         24.5586  -25.1496  -40.2222 C.3       5 UNK        -0.1982 
     37 C          23.9680  -27.4146  -39.2413 C.2       5 UNK         0.5017 
     38 O          24.8852  -28.0806  -38.7612 O.2       5 UNK        -0.5012 
     39 N          22.9302  -27.9229  -39.9235 N.am      6 UNK        -0.4439 
     40 CA         22.6069  -29.3261  -40.1883 C.3       6 UNK         0.0297 
     41 CB         22.3277  -30.0749  -38.8674 C.3       6 UNK        -0.2006 
     42 C          23.6535  -30.0174  -41.0799 C.2       6 UNK         0.4892 
     43 O          24.0537  -31.1475  -40.7957 O.2       6 UNK        -0.5089 
     44 N          24.0881  -29.3161  -42.1379 N.am      7 UNK        -0.4243 
     45 CA         25.1657  -29.7499  -43.0323 C.3       7 UNK         0.0196 
     46 CB         25.5794  -28.5934  -43.9560 C.3       7 UNK        -0.2007 
     47 C          24.8107  -30.9992  -43.8533 C.2       7 UNK         0.5020 
     48 O          25.6003  -31.9432  -43.8909 O.2       7 UNK        -0.5147 
     49 N          23.6313  -30.9921  -44.4890 N.am      8 UNK        -0.4734 
     50 CA         23.1507  -32.1040  -45.3200 C.3       8 UNK         0.0238 
     51 CB         22.1358  -31.5648  -46.3381 C.3       8 UNK        -0.1912 
     52 C          22.5255  -33.2566  -44.5139 C.2       8 UNK         0.5038 
     53 O          22.2518  -34.3087  -45.0933 O.2       8 UNK        -0.5046 
     54 N          22.2776  -33.0361  -43.2177 N.am      9 UNK        -0.4200 
     55 CA         21.5670  -33.9632  -42.3227 C.3       9 UNK         0.0839 
     56 C          22.3832  -35.2180  -41.8981 C.2       9 UNK         0.5513 
     57 N          23.6869  -35.2794  -42.1414 N.am      9 UNK        -0.7519 
     58 O          21.8186  -36.1553  -41.3403 O.2       9 UNK        -0.4960 
     59 C59        20.9847  -33.2374  -41.0808 C.3       10 UNK        -0.0876 
     60 S60        20.0843  -31.7057  -41.4999 S.3       10 UNK        -0.2414 
     61 C61        18.3681  -32.2890  -41.5996 C.3       10 UNK         0.0169 
     62 H62        19.9895  -25.1566  -49.5552 H         1 UNK         0.0903 
     63 H63        19.5450  -26.5617  -50.5274 H         1 UNK         0.0903 
     64 H64        18.4769  -26.0083  -49.2367 H         1 UNK         0.0903 
     65 H65        18.5926  -27.3365  -47.4331 H         1 UNK         0.3096 
     66 H66        20.6878  -29.2266  -47.0296 H         1 UNK         0.1121 
     67 H67        18.4272  -28.3426  -45.1595 H         1 UNK         0.0849 
     68 H68        19.4537  -29.7206  -44.8610 H         1 UNK         0.0849 
     69 H69        15.8703  -29.1252  -45.9632 H         1 UNK         0.0865 
     70 H70        15.6851  -30.8607  -45.9900 H         1 UNK         0.0865 
     71 H71        17.7004  -31.9429  -44.2126 H         1 UNK         0.1346 
     72 H72        17.1179  -30.2227  -40.3287 H         1 UNK         0.1412 
     73 H73        15.4533  -28.3143  -43.7887 H         1 UNK         0.1426 
     74 H74        14.9147  -28.5535  -40.3736 H         1 UNK         0.0716 
     75 H75        14.9995  -27.3802  -41.6617 H         1 UNK         0.0716 
     76 H76        17.3140  -26.4832  -42.3862 H         1 UNK         0.0695 
     77 H77        17.3379  -25.1004  -41.3285 H         1 UNK         0.0695 
     78 H78        19.4743  -27.2919  -41.1489 H         1 UNK         0.0983 
     79 H79        19.2319  -25.4573  -43.3091 H         1 UNK         0.3095 
     80 H80        21.1455  -24.5929  -44.4631 H         1 UNK         0.0454 
     81 H81        23.5008  -24.7847  -43.7705 H         1 UNK         0.0851 
     82 H82        23.5771  -26.4487  -44.3129 H         1 UNK         0.0851 
     83 H83        23.3621  -25.1512  -45.4840 H         1 UNK         0.0851 
     84 H84        20.2538  -25.9924  -45.9421 H         1 UNK         0.2976 
     85 H85        19.2124  -26.7607  -38.8631 H         1 UNK         0.3116 
     86 H86        19.9092  -26.0039  -36.9316 H         1 UNK         0.0646 
     87 H87        20.3510  -23.6550  -36.4268 H         1 UNK         0.0847 
     88 H88        18.9293  -23.7613  -37.4525 H         1 UNK         0.0847 
     89 H89        20.4744  -23.2417  -38.1253 H         1 UNK         0.0847 
     90 H90        22.0845  -24.9843  -39.5719 H         1 UNK         0.3040 
     91 H91        24.5432  -25.6698  -38.1386 H         1 UNK         0.1015 
     92 H92        24.6047  -24.0755  -40.0420 H         1 UNK         0.0786 
     93 H93        23.9909  -25.3101  -41.1387 H         1 UNK         0.0786 
     94 H94        25.5781  -25.4909  -40.4072 H         1 UNK         0.0786 
     95 H95        22.3376  -27.2566  -40.4093 H         1 UNK         0.3172 
     96 H96        21.6802  -29.3113  -40.7629 H         1 UNK         0.0595 
     97 H97        21.5801  -29.5557  -38.2680 H         1 UNK         0.0839 
     98 H98        23.2288  -30.1803  -38.2626 H         1 UNK         0.0839 
     99 H99        21.9471  -31.0776  -39.0558 H         1 UNK         0.0839 
    100 H100       23.6722  -28.4111  -42.3175 H         1 UNK         0.2998 
    101 H101       26.0242  -30.0004  -42.4052 H         1 UNK         0.0822 
    102 H102       26.4640  -28.8606  -44.5358 H         1 UNK         0.0787 
    103 H103       24.7927  -28.3454  -44.6687 H         1 UNK         0.0787 
    104 H104       25.8227  -27.6941  -43.3898 H         1 UNK         0.0787 
    105 H105       23.0472  -30.1621  -44.4387 H         1 UNK         0.3055 
    106 H106       23.9954  -32.5205  -45.8740 H         1 UNK         0.1106 
    107 H107       22.5592  -30.7519  -46.9281 H         1 UNK         0.0828 
    108 H108       21.8283  -32.3447  -47.0362 H         1 UNK         0.0828 
    109 H109       21.2355  -31.2012  -45.8431 H         1 UNK         0.0828 
    110 H110       22.5539  -32.1523  -42.8165 H         1 UNK         0.2931 
    111 H111       20.7148  -34.3454  -42.8883 H         1 UNK         0.0412 
    112 H112       24.2056  -36.0982  -41.8649 H         1 UNK         0.3472 
    113 H113       24.1568  -34.5099  -42.5928 H         1 UNK         0.3472 
    114 H114       21.7925  -32.9724  -40.3970 H         1 UNK         0.0970 
    115 H115       20.3231  -33.9010  -40.5206 H         1 UNK         0.0970 
    116 H116       18.3230  -33.1945  -42.2069 H         1 UNK         0.0612 
    117 H117       18.0118  -32.5563  -40.6037 H         1 UNK         0.0612 
@<TRIPOS>BOND
     1    1    2 1    
     2    1   62 1    
     3    1   63 1    
     4    1   64 1    
     5    2    3 2    
     6    2    4 am   BACKBONE|DICT|INTERRES
     7    4    5 1    
     8    4   65 1    
     9    5    6 1    
    10    5   25 1    
    11    5   66 1    
    12    6    7 1    
    13    6   67 1    
    14    6   68 1    
    15    7    8 1    
    16    8    9 1    
    17    8   69 1    
    18    8   70 1    
    19    9   10 ar   
    20    9   14 ar   
    21   10   11 ar   
    22   10   71 1    
    23   11   12 ar   
    24   11   61 1    
    25   12   13 ar   
    26   12   72 1    
    27   13   14 ar   
    28   13   15 1    
    29   14   73 1    
    30   15   16 1    
    31   15   74 1    
    32   15   75 1    
    33   16   17 1    
    34   17   18 1    
    35   17   76 1    
    36   17   77 1    
    37   18   19 1    
    38   18   27 1    
    39   18   78 1    
    40   19   20 am   BACKBONE|DICT|INTERRES
    41   19   79 1    
    42   20   21 2    
    43   20   22 1    
    44   22   23 1    
    45   22   24 1    
    46   22   80 1    
    47   23   81 1    
    48   23   82 1    
    49   23   83 1    
    50   24   25 am   BACKBONE|DICT|INTERRES
    51   24   84 1    
    52   25   26 2    
    53   27   28 2    
    54   27   29 am   BACKBONE|DICT|INTERRES
    55   29   30 1    
    56   29   85 1    
    57   30   31 1    
    58   30   32 1    
    59   30   86 1    
    60   31   87 1    
    61   31   88 1    
    62   31   89 1    
    63   32   33 2    
    64   32   34 am   BACKBONE|DICT|INTERRES
    65   34   35 1    
    66   34   90 1    
    67   35   36 1    
    68   35   37 1    
    69   35   91 1    
    70   36   92 1    
    71   36   93 1    
    72   36   94 1    
    73   37   38 2    
    74   37   39 am   BACKBONE|DICT|INTERRES
    75   39   40 1    
    76   39   95 1    
    77   40   41 1    
    78   40   42 1    
    79   40   96 1    
    80   41   97 1    
    81   41   98 1    
    82   41   99 1    
    83   42   43 2    
    84   42   44 am   BACKBONE|DICT|INTERRES
    85   44   45 1    
    86   44  100 1    
    87   45   46 1    
    88   45   47 1    
    89   45  101 1    
    90   46  102 1    
    91   46  103 1    
    92   46  104 1    
    93   47   48 2    
    94   47   49 am   BACKBONE|DICT|INTERRES
    95   49   50 1    
    96   49  105 1    
    97   50   51 1    
    98   50   52 1    
    99   50  106 1    
   100   51  107 1    
   101   51  108 1    
   102   51  109 1    
   103   52   53 2    
   104   52   54 am   BACKBONE|DICT|INTERRES
   105   54   55 1    
   106   54  110 1    
   107   55   56 1    
   108   55   59 1    
   109   55  111 1    
   110   56   57 am   BACKBONE|DICT|INTERRES
   111   56   58 2    
   112   57  112 1    
   113   57  113 1    
   114   59   60 1    
   115   59  114 1    
   116   59  115 1    
   117   60   61 1    
   118   61  116 1    
   119   61  117 1    
@<TRIPOS>SUBSTRUCTURE
     1 UNK         1 GROUP             0       ****    0 ROOT    
