@<TRIPOS>MOLECULE
3R8
117   119    1
SMALL
USER_CHARGES


@<TRIPOS>ATOM
      1 CA         20.8010  -30.0669  -50.4741 C.3       0 UNK        -0.2013 
      2 C          20.8845  -30.3085  -48.9744 C.2       0 UNK         0.4866 
      3 O          21.1098  -31.4408  -48.5498 O.2       0 UNK        -0.5176 
      4 N          20.7084  -29.2534  -48.1754 N.am      1 UNK        -0.4884 
      5 CA         20.7557  -29.2539  -46.7131 C.3       1 UNK         0.0853 
      6 C6         19.5363  -29.9663  -46.0598 C.3       10 UNK        -0.0849 
      7 S7         17.9161  -29.2482  -46.5180 S.3       10 UNK        -0.2776 
      8 C8         16.7854  -30.1388  -45.4041 C.3       10 UNK         0.0316 
      9 C9         16.9264  -29.6809  -43.9592 C.ar      10 UNK        -0.0863 
     10 C10        17.6317  -30.4599  -43.0394 C.ar      10 UNK        -0.1009 
     11 C11        17.7625  -30.0538  -41.7068 C.ar      10 UNK        -0.0712 
     12 C12        17.1621  -28.8576  -41.2972 C.ar      10 UNK        -0.0894 
     13 C13        16.4429  -28.0731  -42.2049 C.ar      10 UNK        -0.0745 
     14 C14        16.3305  -28.4906  -43.5348 C.ar      10 UNK        -0.0972 
     15 C15        15.7490  -26.7956  -41.7523 C.3       10 UNK         0.0209 
     16 S16        16.5419  -25.3122  -42.4478 S.3       10 UNK        -0.2568 
     17 C17        17.7136  -24.8297  -41.1335 C.3       10 UNK        -0.0983 
     18 CA         19.0625  -25.5944  -41.1553 C.3       3 UNK         0.0876 
     19 N          19.6498  -25.6480  -42.4950 N.am      3 UNK        -0.4424 
     20 C          20.6667  -26.4341  -42.8619 C.2       2 UNK         0.4918 
     21 O          21.2351  -27.2404  -42.1211 O.2       2 UNK        -0.4875 
     22 CA         21.1438  -26.2779  -44.3048 C.3       2 UNK         0.0481 
     23 CB         22.5426  -25.6387  -44.3584 C.3       2 UNK        -0.1831 
     24 N          21.1393  -27.5933  -44.9402 N.am      2 UNK        -0.4498 
     25 C          20.9120  -27.7943  -46.2433 C.2       1 UNK         0.5027 
     26 O          20.8068  -26.8769  -47.0655 O.2       1 UNK        -0.4969 
     27 C          20.0475  -24.9515  -40.1576 C.2       3 UNK         0.5005 
     28 O          20.8571  -24.1098  -40.5584 O.2       3 UNK        -0.5279 
     29 N          19.9617  -25.3501  -38.8794 N.am      4 UNK        -0.4463 
     30 CA         20.7760  -24.9198  -37.7272 C.3       4 UNK         0.0283 
     31 CB         20.6504  -23.4056  -37.4673 C.3       4 UNK        -0.1875 
     32 C          22.2533  -25.3531  -37.7938 C.2       4 UNK         0.4949 
     33 O          22.7794  -25.8502  -36.7984 O.2       4 UNK        -0.5039 
     34 N          22.8828  -25.1994  -38.9653 N.am      5 UNK        -0.4663 
     35 CA         24.2084  -25.7294  -39.2968 C.3       5 UNK         0.0242 
     36 CB         24.6800  -25.1050  -40.6202 C.3       5 UNK        -0.1982 
     37 C          24.2220  -27.2658  -39.3963 C.2       5 UNK         0.5017 
     38 O          25.2626  -27.8755  -39.1496 O.2       5 UNK        -0.5012 
     39 N          23.0638  -27.8457  -39.7467 N.am      6 UNK        -0.4439 
     40 CA         22.7782  -29.2734  -39.9003 C.3       6 UNK         0.0297 
     41 CB         22.8736  -30.0108  -38.5483 C.3       6 UNK        -0.2006 
     42 C          23.6132  -29.9321  -41.0124 C.2       6 UNK         0.4892 
     43 O          24.1274  -31.0382  -40.8297 O.2       6 UNK        -0.5089 
     44 N          23.7346  -29.2407  -42.1548 N.am      7 UNK        -0.4243 
     45 CA         24.4011  -29.7710  -43.3448 C.3       7 UNK         0.0196 
     46 CB         24.6856  -28.6444  -44.3485 C.3       7 UNK        -0.2007 
     47 C          23.5369  -30.8679  -43.9800 C.2       7 UNK         0.5020 
     48 O          22.3215  -30.6916  -44.0916 O.2       7 UNK        -0.5147 
     49 N          24.1808  -31.9779  -44.3600 N.am      8 UNK        -0.4734 
     50 CA         23.6196  -33.2264  -44.8980 C.3       8 UNK         0.0238 
     51 CB         22.8147  -32.9873  -46.1898 C.3       8 UNK        -0.1912 
     52 C          22.8055  -34.0465  -43.8797 C.2       8 UNK         0.5038 
     53 O          23.0021  -35.2602  -43.8046 O.2       8 UNK        -0.5046 
     54 N          21.9188  -33.3910  -43.1220 N.am      9 UNK        -0.4200 
     55 CA         21.0891  -34.0073  -42.0766 C.3       9 UNK         0.0839 
     56 C          21.8466  -34.3912  -40.7731 C.2       9 UNK         0.5513 
     57 N          23.0001  -33.8082  -40.4711 N.am      9 UNK        -0.7519 
     58 O          21.3824  -35.2519  -40.0296 O.2       9 UNK        -0.4960 
     59 C59        19.8099  -33.1801  -41.7920 C.3       10 UNK        -0.0876 
     60 S60        20.1480  -31.4616  -41.2707 S.3       10 UNK        -0.2414 
     61 C61        18.5084  -30.9148  -40.6908 C.3       10 UNK         0.0169 
     62 H62        21.7402  -30.3447  -50.9518 H         1 UNK         0.0903 
     63 H63        20.0057  -30.6729  -50.9072 H         1 UNK         0.0903 
     64 H64        20.5968  -29.0222  -50.7083 H         1 UNK         0.0903 
     65 H65        20.5563  -28.3275  -48.5597 H         1 UNK         0.3096 
     66 H66        21.6670  -29.7782  -46.4201 H         1 UNK         0.1121 
     67 H67        19.5333  -31.0203  -46.3403 H         1 UNK         0.0849 
     68 H68        19.6391  -29.9590  -44.9736 H         1 UNK         0.0849 
     69 H69        15.7600  -29.9710  -45.7367 H         1 UNK         0.0865 
     70 H70        16.9588  -31.2126  -45.4917 H         1 UNK         0.0865 
     71 H71        18.0808  -31.3839  -43.3687 H         1 UNK         0.1346 
     72 H72        17.2397  -28.5447  -40.2651 H         1 UNK         0.1412 
     73 H73        15.7759  -27.8871  -44.2408 H         1 UNK         0.1426 
     74 H74        15.7107  -26.7296  -40.6641 H         1 UNK         0.0716 
     75 H75        14.7115  -26.8228  -42.0885 H         1 UNK         0.0716 
     76 H76        17.2243  -24.9429  -40.1644 H         1 UNK         0.0695 
     77 H77        17.8868  -23.7580  -41.2536 H         1 UNK         0.0695 
     78 H78        18.8849  -26.6243  -40.8412 H         1 UNK         0.0983 
     79 H79        19.2549  -25.0085  -43.1681 H         1 UNK         0.3095 
     80 H80        20.4443  -25.6248  -44.8317 H         1 UNK         0.0454 
     81 H81        23.2661  -26.1912  -43.7602 H         1 UNK         0.0851 
     82 H82        22.5153  -24.6215  -43.9659 H         1 UNK         0.0851 
     83 H83        22.9196  -25.5822  -45.3794 H         1 UNK         0.0851 
     84 H84        21.2018  -28.3848  -44.3096 H         1 UNK         0.2976 
     85 H85        19.2719  -26.0553  -38.6569 H         1 UNK         0.3116 
     86 H86        20.3450  -25.4294  -36.8636 H         1 UNK         0.0646 
     87 H87        19.6080  -23.1069  -37.3570 H         1 UNK         0.0847 
     88 H88        21.1658  -23.1271  -36.5473 H         1 UNK         0.0847 
     89 H89        21.0862  -22.8116  -38.2710 H         1 UNK         0.0847 
     90 H90        22.3564  -24.7485  -39.7119 H         1 UNK         0.3040 
     91 H91        24.9030  -25.4415  -38.5045 H         1 UNK         0.1015 
     92 H92        24.0022  -25.3413  -41.4415 H         1 UNK         0.0786 
     93 H93        25.6694  -25.4729  -40.8959 H         1 UNK         0.0786 
     94 H94        24.7480  -24.0196  -40.5440 H         1 UNK         0.0786 
     95 H95        22.3009  -27.2313  -39.9974 H         1 UNK         0.3172 
     96 H96        21.7404  -29.3245  -40.2277 H         1 UNK         0.0595 
     97 H97        23.8976  -30.0423  -38.1752 H         1 UNK         0.0839 
     98 H98        22.5308  -31.0420  -38.6454 H         1 UNK         0.0839 
     99 H99        22.2530  -29.5330  -37.7905 H         1 UNK         0.0839 
    100 H100       23.2076  -28.3826  -42.2515 H         1 UNK         0.2998 
    101 H101       25.3576  -30.1967  -43.0329 H         1 UNK         0.0822 
    102 H102       25.3030  -29.0088  -45.1704 H         1 UNK         0.0787 
    103 H103       23.7708  -28.2527  -44.7888 H         1 UNK         0.0787 
    104 H104       25.2228  -27.8183  -43.8822 H         1 UNK         0.0787 
    105 H105       25.1782  -32.0091  -44.1956 H         1 UNK         0.3055 
    106 H106       24.4812  -33.8407  -45.1661 H         1 UNK         0.1106 
    107 H107       23.3974  -32.4362  -46.9277 H         1 UNK         0.0828 
    108 H108       22.5252  -33.9338  -46.6478 H         1 UNK         0.0828 
    109 H109       21.8963  -32.4291  -46.0062 H         1 UNK         0.0828 
    110 H110       21.8293  -32.3869  -43.2459 H         1 UNK         0.2931 
    111 H111       20.7396  -34.9568  -42.4876 H         1 UNK         0.0412 
    112 H112       23.4777  -34.0794  -39.6269 H         1 UNK         0.3472 
    113 H113       23.3528  -33.0297  -41.0129 H         1 UNK         0.3472 
    114 H114       19.1942  -33.1616  -42.6904 H         1 UNK         0.0970 
    115 H115       19.2031  -33.6746  -41.0310 H         1 UNK         0.0970 
    116 H116       18.6598  -30.3566  -39.7658 H         1 UNK         0.0612 
    117 H117       17.8916  -31.7750  -40.4290 H         1 UNK         0.0612 
@<TRIPOS>BOND
     1    1    2 1    
     2    1   62 1    
     3    1   63 1    
     4    1   64 1    
     5    2    3 2    
     6    2    4 am   BACKBONE|DICT|INTERRES
     7    4    5 1    
     8    4   65 1    
     9    5    6 1    
    10    5   25 1    
    11    5   66 1    
    12    6    7 1    
    13    6   67 1    
    14    6   68 1    
    15    7    8 1    
    16    8    9 1    
    17    8   69 1    
    18    8   70 1    
    19    9   10 ar   
    20    9   14 ar   
    21   10   11 ar   
    22   10   71 1    
    23   11   12 ar   
    24   11   61 1    
    25   12   13 ar   
    26   12   72 1    
    27   13   14 ar   
    28   13   15 1    
    29   14   73 1    
    30   15   16 1    
    31   15   74 1    
    32   15   75 1    
    33   16   17 1    
    34   17   18 1    
    35   17   76 1    
    36   17   77 1    
    37   18   19 1    
    38   18   27 1    
    39   18   78 1    
    40   19   20 am   BACKBONE|DICT|INTERRES
    41   19   79 1    
    42   20   21 2    
    43   20   22 1    
    44   22   23 1    
    45   22   24 1    
    46   22   80 1    
    47   23   81 1    
    48   23   82 1    
    49   23   83 1    
    50   24   25 am   BACKBONE|DICT|INTERRES
    51   24   84 1    
    52   25   26 2    
    53   27   28 2    
    54   27   29 am   BACKBONE|DICT|INTERRES
    55   29   30 1    
    56   29   85 1    
    57   30   31 1    
    58   30   32 1    
    59   30   86 1    
    60   31   87 1    
    61   31   88 1    
    62   31   89 1    
    63   32   33 2    
    64   32   34 am   BACKBONE|DICT|INTERRES
    65   34   35 1    
    66   34   90 1    
    67   35   36 1    
    68   35   37 1    
    69   35   91 1    
    70   36   92 1    
    71   36   93 1    
    72   36   94 1    
    73   37   38 2    
    74   37   39 am   BACKBONE|DICT|INTERRES
    75   39   40 1    
    76   39   95 1    
    77   40   41 1    
    78   40   42 1    
    79   40   96 1    
    80   41   97 1    
    81   41   98 1    
    82   41   99 1    
    83   42   43 2    
    84   42   44 am   BACKBONE|DICT|INTERRES
    85   44   45 1    
    86   44  100 1    
    87   45   46 1    
    88   45   47 1    
    89   45  101 1    
    90   46  102 1    
    91   46  103 1    
    92   46  104 1    
    93   47   48 2    
    94   47   49 am   BACKBONE|DICT|INTERRES
    95   49   50 1    
    96   49  105 1    
    97   50   51 1    
    98   50   52 1    
    99   50  106 1    
   100   51  107 1    
   101   51  108 1    
   102   51  109 1    
   103   52   53 2    
   104   52   54 am   BACKBONE|DICT|INTERRES
   105   54   55 1    
   106   54  110 1    
   107   55   56 1    
   108   55   59 1    
   109   55  111 1    
   110   56   57 am   BACKBONE|DICT|INTERRES
   111   56   58 2    
   112   57  112 1    
   113   57  113 1    
   114   59   60 1    
   115   59  114 1    
   116   59  115 1    
   117   60   61 1    
   118   61  116 1    
   119   61  117 1    
@<TRIPOS>SUBSTRUCTURE
     1 UNK         1 GROUP             0       ****    0 ROOT    
