@<TRIPOS>MOLECULE
3R8
117   119    1
SMALL
USER_CHARGES


@<TRIPOS>ATOM
      1 CA         12.3945  -24.8474  -45.4768 C.3       0 UNK        -0.2013 
      2 C          13.9006  -24.7403  -45.6647 C.2       0 UNK         0.4866 
      3 O          14.4223  -23.6319  -45.7899 O.2       0 UNK        -0.5176 
      4 N          14.5943  -25.8842  -45.6977 N.am      1 UNK        -0.4884 
      5 CA         16.0507  -25.9963  -45.8049 C.3       1 UNK         0.0853 
      6 C6         16.4698  -27.2064  -46.6858 C.3       10 UNK        -0.0849 
      7 S7         15.7196  -28.8063  -46.2048 S.3       10 UNK        -0.2776 
      8 C8         16.9678  -29.9890  -46.7969 C.3       10 UNK         0.0316 
      9 C9         18.2120  -30.0162  -45.9188 C.ar      10 UNK        -0.0863 
     10 C10        18.2183  -30.7559  -44.7318 C.ar      10 UNK        -0.1009 
     11 C11        19.3851  -30.8656  -43.9687 C.ar      10 UNK        -0.0712 
     12 C12        20.5448  -30.2093  -44.3905 C.ar      10 UNK        -0.0894 
     13 C13        20.5489  -29.4575  -45.5681 C.ar      10 UNK        -0.0745 
     14 C14        19.3792  -29.3631  -46.3269 C.ar      10 UNK        -0.0972 
     15 C15        21.8323  -28.8078  -46.0639 C.3       10 UNK         0.0209 
     16 S16        21.9328  -27.0442  -45.6259 S.3       10 UNK        -0.2568 
     17 C17        22.4306  -27.1066  -43.8719 C.3       10 UNK        -0.0983 
     18 CA         21.4356  -26.3638  -42.9515 C.3       3 UNK         0.0876 
     19 N          20.1011  -26.9720  -43.0162 N.am      3 UNK        -0.4424 
     20 C          19.0105  -26.5452  -42.3683 C.2       2 UNK         0.4918 
     21 O          18.9748  -25.5373  -41.6590 O.2       2 UNK        -0.4875 
     22 CA         17.7408  -27.3844  -42.5916 C.3       2 UNK         0.0481 
     23 CB         16.7068  -27.2127  -41.4604 C.3       2 UNK        -0.1831 
     24 N          17.1307  -27.1293  -43.9002 N.am      2 UNK        -0.4498 
     25 C          16.6730  -25.9668  -44.3911 C.2       1 UNK         0.5027 
     26 O          16.7082  -24.8985  -43.7789 O.2       1 UNK        -0.4969 
     27 C          21.9905  -26.3080  -41.5106 C.2       3 UNK         0.5005 
     28 O          21.6479  -27.1574  -40.6894 O.2       3 UNK        -0.5279 
     29 N          22.8500  -25.3189  -41.2278 N.am      4 UNK        -0.4463 
     30 CA         23.4145  -25.0829  -39.8932 C.3       4 UNK         0.0283 
     31 CB         24.1402  -23.7275  -39.8746 C.3       4 UNK        -0.1875 
     32 C          24.3520  -26.1997  -39.3985 C.2       4 UNK         0.4949 
     33 O          24.3510  -26.5006  -38.2040 O.2       4 UNK        -0.5039 
     34 N          25.1358  -26.7807  -40.3141 N.am      5 UNK        -0.4663 
     35 CA         26.1152  -27.8270  -40.0311 C.3       5 UNK         0.0242 
     36 CB         27.3677  -27.2207  -39.3605 C.3       5 UNK        -0.1982 
     37 C          26.4405  -28.5668  -41.3342 C.2       5 UNK         0.5017 
     38 O          27.5264  -28.3815  -41.8875 O.2       5 UNK        -0.5012 
     39 N          25.4877  -29.3673  -41.8225 N.am      6 UNK        -0.4439 
     40 CA         25.6386  -30.2140  -43.0047 C.3       6 UNK         0.0297 
     41 CB         25.5528  -29.3854  -44.3000 C.3       6 UNK        -0.2006 
     42 C          24.5696  -31.3083  -42.9751 C.2       6 UNK         0.4892 
     43 O          23.4450  -31.0514  -42.5396 O.2       6 UNK        -0.5089 
     44 N          24.9410  -32.5051  -43.4508 N.am      7 UNK        -0.4243 
     45 CA         24.1431  -33.7357  -43.4257 C.3       7 UNK         0.0196 
     46 CB         22.9500  -33.6335  -44.4064 C.3       7 UNK        -0.2007 
     47 C          23.7588  -34.1087  -41.9787 C.2       7 UNK         0.5020 
     48 O          24.6425  -34.1756  -41.1227 O.2       7 UNK        -0.5147 
     49 N          22.4655  -34.3317  -41.7226 N.am      8 UNK        -0.4734 
     50 CA         21.9172  -34.6087  -40.3920 C.3       8 UNK         0.0238 
     51 CB         20.6622  -35.4838  -40.5581 C.3       8 UNK        -0.1912 
     52 C          21.5795  -33.3357  -39.5896 C.2       8 UNK         0.5038 
     53 O          21.1878  -33.4601  -38.4280 O.2       8 UNK        -0.5046 
     54 N          21.6889  -32.1558  -40.2120 N.am      9 UNK        -0.4200 
     55 CA         21.2557  -30.8666  -39.6605 C.3       9 UNK         0.0839 
     56 C          22.4661  -30.0453  -39.1439 C.2       9 UNK         0.5513 
     57 N          22.2779  -29.2614  -38.0914 N.am      9 UNK        -0.7519 
     58 O          23.5638  -30.0889  -39.6947 O.2       9 UNK        -0.4960 
     59 C59        20.4378  -30.0637  -40.7065 C.3       10 UNK        -0.0876 
     60 S60        18.8998  -30.9041  -41.2196 S.3       10 UNK        -0.2414 
     61 C61        19.4115  -31.7632  -42.7396 C.3       10 UNK         0.0169 
     62 H62        12.0655  -25.8833  -45.3951 H         1 UNK         0.0903 
     63 H63        12.0916  -24.3234  -44.5706 H         1 UNK         0.0903 
     64 H64        11.8775  -24.3936  -46.3219 H         1 UNK         0.0903 
     65 H65        14.1106  -26.7647  -45.5837 H         1 UNK         0.3096 
     66 H66        16.4343  -25.1050  -46.3075 H         1 UNK         0.1121 
     67 H67        16.1746  -27.0111  -47.7180 H         1 UNK         0.0849 
     68 H68        17.5568  -27.2874  -46.7120 H         1 UNK         0.0849 
     69 H69        16.5219  -30.9847  -46.8181 H         1 UNK         0.0865 
     70 H70        17.2275  -29.7570  -47.8311 H         1 UNK         0.0865 
     71 H71        17.3233  -31.2777  -44.4207 H         1 UNK         0.1346 
     72 H72        21.4564  -30.3132  -43.8220 H         1 UNK         0.1412 
     73 H73        19.3903  -28.8056  -47.2538 H         1 UNK         0.1426 
     74 H74        21.8839  -28.8964  -47.1501 H         1 UNK         0.0716 
     75 H75        22.7052  -29.3385  -45.6820 H         1 UNK         0.0716 
     76 H76        23.4252  -26.6615  -43.8048 H         1 UNK         0.0695 
     77 H77        22.5392  -28.1432  -43.5479 H         1 UNK         0.0695 
     78 H78        21.3308  -25.3355  -43.3042 H         1 UNK         0.0983 
     79 H79        20.0273  -27.7952  -43.5966 H         1 UNK         0.3095 
     80 H80        18.0442  -28.4313  -42.5975 H         1 UNK         0.0454 
     81 H81        17.1478  -27.4603  -40.4941 H         1 UNK         0.0851 
     82 H82        16.3357  -26.1895  -41.3955 H         1 UNK         0.0851 
     83 H83        15.8507  -27.8716  -41.6043 H         1 UNK         0.0851 
     84 H84        17.0343  -27.9417  -44.4982 H         1 UNK         0.2976 
     85 H85        23.0966  -24.6570  -41.9502 H         1 UNK         0.3116 
     86 H86        22.5808  -25.0260  -39.1897 H         1 UNK         0.0646 
     87 H87        24.5491  -23.5188  -38.8848 H         1 UNK         0.0847 
     88 H88        23.4632  -22.9094  -40.1208 H         1 UNK         0.0847 
     89 H89        24.9713  -23.7023  -40.5805 H         1 UNK         0.0847 
     90 H90        25.0559  -26.4951  -41.2802 H         1 UNK         0.3040 
     91 H91        25.6783  -28.5535  -39.3427 H         1 UNK         0.1015 
     92 H92        27.1312  -26.7854  -38.3897 H         1 UNK         0.0786 
     93 H93        27.8167  -26.4402  -39.9759 H         1 UNK         0.0786 
     94 H94        28.1281  -27.9844  -39.1921 H         1 UNK         0.0786 
     95 H95        24.6363  -29.5267  -41.2833 H         1 UNK         0.3172 
     96 H96        26.6178  -30.6958  -42.9579 H         1 UNK         0.0595 
     97 H97        26.3745  -28.6735  -44.3758 H         1 UNK         0.0839 
     98 H98        24.6228  -28.8249  -44.3572 H         1 UNK         0.0839 
     99 H99        25.6019  -30.0268  -45.1808 H         1 UNK         0.0839 
    100 H100       25.8937  -32.6145  -43.7695 H         1 UNK         0.2998 
    101 H101       24.7944  -34.5361  -43.7803 H         1 UNK         0.0822 
    102 H102       23.2955  -33.3961  -45.4126 H         1 UNK         0.0787 
    103 H103       22.4090  -34.5782  -44.4750 H         1 UNK         0.0787 
    104 H104       22.2388  -32.8591  -44.1187 H         1 UNK         0.0787 
    105 H105       21.8053  -34.2597  -42.4832 H         1 UNK         0.3055 
    106 H106       22.6496  -35.1710  -39.8078 H         1 UNK         0.1106 
    107 H107       19.8781  -34.9651  -41.1114 H         1 UNK         0.0828 
    108 H108       20.8903  -36.4105  -41.0849 H         1 UNK         0.0828 
    109 H109       20.2461  -35.7610  -39.5884 H         1 UNK         0.0828 
    110 H110       22.1414  -32.1077  -41.1165 H         1 UNK         0.2931 
    111 H111       20.5962  -31.0459  -38.8088 H         1 UNK         0.0412 
    112 H112       23.0409  -28.6811  -37.7766 H         1 UNK         0.3472 
    113 H113       21.3788  -29.1975  -37.6410 H         1 UNK         0.3472 
    114 H114       21.0482  -29.8170  -41.5757 H         1 UNK         0.0970 
    115 H115       20.1290  -29.1114  -40.2747 H         1 UNK         0.0970 
    116 H116       20.4045  -32.1914  -42.6079 H         1 UNK         0.0612 
    117 H117       18.7417  -32.6101  -42.8951 H         1 UNK         0.0612 
@<TRIPOS>BOND
     1    1    2 1    
     2    1   62 1    
     3    1   63 1    
     4    1   64 1    
     5    2    3 2    
     6    2    4 am   BACKBONE|DICT|INTERRES
     7    4    5 1    
     8    4   65 1    
     9    5    6 1    
    10    5   25 1    
    11    5   66 1    
    12    6    7 1    
    13    6   67 1    
    14    6   68 1    
    15    7    8 1    
    16    8    9 1    
    17    8   69 1    
    18    8   70 1    
    19    9   10 ar   
    20    9   14 ar   
    21   10   11 ar   
    22   10   71 1    
    23   11   12 ar   
    24   11   61 1    
    25   12   13 ar   
    26   12   72 1    
    27   13   14 ar   
    28   13   15 1    
    29   14   73 1    
    30   15   16 1    
    31   15   74 1    
    32   15   75 1    
    33   16   17 1    
    34   17   18 1    
    35   17   76 1    
    36   17   77 1    
    37   18   19 1    
    38   18   27 1    
    39   18   78 1    
    40   19   20 am   BACKBONE|DICT|INTERRES
    41   19   79 1    
    42   20   21 2    
    43   20   22 1    
    44   22   23 1    
    45   22   24 1    
    46   22   80 1    
    47   23   81 1    
    48   23   82 1    
    49   23   83 1    
    50   24   25 am   BACKBONE|DICT|INTERRES
    51   24   84 1    
    52   25   26 2    
    53   27   28 2    
    54   27   29 am   BACKBONE|DICT|INTERRES
    55   29   30 1    
    56   29   85 1    
    57   30   31 1    
    58   30   32 1    
    59   30   86 1    
    60   31   87 1    
    61   31   88 1    
    62   31   89 1    
    63   32   33 2    
    64   32   34 am   BACKBONE|DICT|INTERRES
    65   34   35 1    
    66   34   90 1    
    67   35   36 1    
    68   35   37 1    
    69   35   91 1    
    70   36   92 1    
    71   36   93 1    
    72   36   94 1    
    73   37   38 2    
    74   37   39 am   BACKBONE|DICT|INTERRES
    75   39   40 1    
    76   39   95 1    
    77   40   41 1    
    78   40   42 1    
    79   40   96 1    
    80   41   97 1    
    81   41   98 1    
    82   41   99 1    
    83   42   43 2    
    84   42   44 am   BACKBONE|DICT|INTERRES
    85   44   45 1    
    86   44  100 1    
    87   45   46 1    
    88   45   47 1    
    89   45  101 1    
    90   46  102 1    
    91   46  103 1    
    92   46  104 1    
    93   47   48 2    
    94   47   49 am   BACKBONE|DICT|INTERRES
    95   49   50 1    
    96   49  105 1    
    97   50   51 1    
    98   50   52 1    
    99   50  106 1    
   100   51  107 1    
   101   51  108 1    
   102   51  109 1    
   103   52   53 2    
   104   52   54 am   BACKBONE|DICT|INTERRES
   105   54   55 1    
   106   54  110 1    
   107   55   56 1    
   108   55   59 1    
   109   55  111 1    
   110   56   57 am   BACKBONE|DICT|INTERRES
   111   56   58 2    
   112   57  112 1    
   113   57  113 1    
   114   59   60 1    
   115   59  114 1    
   116   59  115 1    
   117   60   61 1    
   118   61  116 1    
   119   61  117 1    
@<TRIPOS>SUBSTRUCTURE
     1 UNK         1 GROUP             0       ****    0 ROOT    
