@<TRIPOS>MOLECULE
3R8
117   119    1
SMALL
USER_CHARGES


@<TRIPOS>ATOM
      1 CA         15.3195  -24.1974  -41.7535 C.3       0 UNK        -0.2013 
      2 C          16.3382  -24.0857  -42.8780 C.2       0 UNK         0.4866 
      3 O          16.7162  -22.9758  -43.2550 O.2       0 UNK        -0.5176 
      4 N          16.7775  -25.2267  -43.4227 N.am      1 UNK        -0.4884 
      5 CA         17.7958  -25.3132  -44.4747 C.3       1 UNK         0.0853 
      6 C6         17.8621  -26.7322  -45.0980 C.3       10 UNK        -0.0849 
      7 S7         16.2924  -27.3130  -45.8203 S.3       10 UNK        -0.2776 
      8 C8         15.9345  -28.7965  -44.8059 C.3       10 UNK         0.0316 
      9 C9         16.9422  -29.9505  -44.8969 C.ar      10 UNK        -0.0863 
     10 C10        16.8612  -30.9758  -43.9479 C.ar      10 UNK        -0.1009 
     11 C11        17.7367  -32.0668  -43.9765 C.ar      10 UNK        -0.0712 
     12 C12        18.7176  -32.1202  -44.9744 C.ar      10 UNK        -0.0894 
     13 C13        18.8264  -31.1014  -45.9238 C.ar      10 UNK        -0.0745 
     14 C14        17.9235  -30.0338  -45.8941 C.ar      10 UNK        -0.0972 
     15 C15        19.9107  -31.1710  -46.9921 C.3       10 UNK         0.0209 
     16 S16        21.5335  -30.6141  -46.3699 S.3       10 UNK        -0.2568 
     17 C17        21.2857  -28.8069  -46.2717 C.3       10 UNK        -0.0983 
     18 CA         22.0319  -28.0758  -45.1247 C.3       3 UNK         0.0876 
     19 N          21.7108  -26.6458  -45.1679 N.am      3 UNK        -0.4424 
     20 C          22.1805  -25.6828  -44.3615 C.2       2 UNK         0.4918 
     21 O          23.0316  -25.8624  -43.4921 O.2       2 UNK        -0.4875 
     22 CA         21.5099  -24.3026  -44.5046 C.3       2 UNK         0.0481 
     23 CB         22.1945  -23.4782  -45.6053 C.3       2 UNK        -0.1831 
     24 N          20.0705  -24.4197  -44.7847 N.am      2 UNK        -0.4498 
     25 C          19.1914  -24.9543  -43.9231 C.2       1 UNK         0.5027 
     26 O          19.4884  -25.2733  -42.7696 O.2       1 UNK        -0.4969 
     27 C          21.7598  -28.6971  -43.7349 C.2       3 UNK         0.5005 
     28 O          22.5831  -29.4729  -43.2493 O.2       3 UNK        -0.5279 
     29 N          20.6494  -28.3043  -43.0908 N.am      4 UNK        -0.4463 
     30 CA         20.2566  -28.7805  -41.7623 C.3       4 UNK         0.0283 
     31 CB         18.8139  -28.3587  -41.4439 C.3       4 UNK        -0.1875 
     32 C          21.2253  -28.3596  -40.6477 C.2       4 UNK         0.4949 
     33 O          21.3982  -29.1190  -39.6943 O.2       4 UNK        -0.5039 
     34 N          21.8623  -27.1926  -40.8027 N.am      5 UNK        -0.4663 
     35 CA         22.9432  -26.7350  -39.9333 C.3       5 UNK         0.0242 
     36 CB         23.0223  -25.1996  -39.9709 C.3       5 UNK        -0.1982 
     37 C          24.2851  -27.3694  -40.3315 C.2       5 UNK         0.5017 
     38 O          24.9743  -27.9106  -39.4676 O.2       5 UNK        -0.5012 
     39 N          24.6288  -27.2900  -41.6257 N.am      6 UNK        -0.4439 
     40 CA         25.9203  -27.7011  -42.1841 C.3       6 UNK         0.0297 
     41 CB         26.0204  -27.2401  -43.6471 C.3       6 UNK        -0.2006 
     42 C          26.2108  -29.2064  -42.0730 C.2       6 UNK         0.4892 
     43 O          27.3227  -29.5742  -41.6919 O.2       6 UNK        -0.5089 
     44 N          25.2196  -30.0455  -42.4011 N.am      7 UNK        -0.4243 
     45 CA         25.3202  -31.5068  -42.3303 C.3       7 UNK         0.0196 
     46 CB         24.5225  -32.1200  -43.4955 C.3       7 UNK        -0.2007 
     47 C          24.8265  -32.0661  -40.9846 C.2       7 UNK         0.5020 
     48 O          24.8918  -33.2795  -40.7873 O.2       7 UNK        -0.5147 
     49 N          24.3150  -31.1923  -40.1021 N.am      8 UNK        -0.4734 
     50 CA         23.6774  -31.4949  -38.8119 C.3       8 UNK         0.0238 
     51 CB         24.6957  -32.0905  -37.8163 C.3       8 UNK        -0.1912 
     52 C          22.3998  -32.3511  -38.9497 C.2       8 UNK         0.5038 
     53 O          22.0580  -33.0993  -38.0318 O.2       8 UNK        -0.5046 
     54 N          21.7198  -32.2212  -40.0966 N.am      9 UNK        -0.4200 
     55 CA         20.4459  -32.8802  -40.4138 C.3       9 UNK         0.0839 
     56 C          19.2343  -32.3219  -39.6086 C.2       9 UNK         0.5513 
     57 N          19.2993  -31.1097  -39.0692 N.am      9 UNK        -0.7519 
     58 O          18.2302  -33.0091  -39.4446 O.2       9 UNK        -0.4960 
     59 C59        20.2042  -32.8630  -41.9471 C.3       10 UNK        -0.0876 
     60 S60        19.0694  -34.1531  -42.5552 S.3       10 UNK        -0.2414 
     61 C61        17.5700  -33.1725  -42.9293 C.3       10 UNK         0.0169 
     62 H62        15.0672  -25.2343  -41.5323 H         1 UNK         0.0903 
     63 H63        15.7138  -23.7434  -40.8447 H         1 UNK         0.0903 
     64 H64        14.4021  -23.6758  -42.0249 H         1 UNK         0.0903 
     65 H65        16.4359  -26.1083  -43.0708 H         1 UNK         0.3096 
     66 H66        17.5357  -24.5952  -45.2561 H         1 UNK         0.1121 
     67 H67        18.6006  -26.7570  -45.9009 H         1 UNK         0.0849 
     68 H68        18.1968  -27.4590  -44.3570 H         1 UNK         0.0849 
     69 H69        15.8373  -28.4837  -43.7653 H         1 UNK         0.0865 
     70 H70        14.9558  -29.1774  -45.1008 H         1 UNK         0.0865 
     71 H71        16.0987  -30.9297  -43.1817 H         1 UNK         0.1346 
     72 H72        19.4051  -32.9530  -45.0199 H         1 UNK         0.1412 
     73 H73        17.9954  -29.2688  -46.6533 H         1 UNK         0.1426 
     74 H74        19.6330  -30.5783  -47.8652 H         1 UNK         0.0716 
     75 H75        20.0059  -32.1994  -47.3436 H         1 UNK         0.0716 
     76 H76        21.5946  -28.3888  -47.2311 H         1 UNK         0.0695 
     77 H77        20.2195  -28.6030  -46.1935 H         1 UNK         0.0695 
     78 H78        23.1038  -28.1706  -45.3077 H         1 UNK         0.0983 
     79 H79        21.0427  -26.3709  -45.8711 H         1 UNK         0.3095 
     80 H80        21.6310  -23.7730  -43.5572 H         1 UNK         0.0454 
     81 H81        23.2608  -23.3688  -45.4021 H         1 UNK         0.0851 
     82 H82        22.0968  -23.9443  -46.5865 H         1 UNK         0.0851 
     83 H83        21.7750  -22.4740  -45.6672 H         1 UNK         0.0851 
     84 H84        19.7624  -24.1596  -45.7115 H         1 UNK         0.2976 
     85 H85        20.0627  -27.6028  -43.5133 H         1 UNK         0.3116 
     86 H86        20.2814  -29.8660  -41.7927 H         1 UNK         0.0646 
     87 H87        18.4944  -28.7642  -40.4835 H         1 UNK         0.0847 
     88 H88        18.1162  -28.7303  -42.1938 H         1 UNK         0.0847 
     89 H89        18.7065  -27.2766  -41.3826 H         1 UNK         0.0847 
     90 H90        21.6627  -26.6367  -41.6234 H         1 UNK         0.3040 
     91 H91        22.7252  -27.0336  -38.9050 H         1 UNK         0.1015 
     92 H92        22.0914  -24.7488  -39.6263 H         1 UNK         0.0786 
     93 H93        23.2228  -24.8225  -40.9743 H         1 UNK         0.0786 
     94 H94        23.8186  -24.8350  -39.3205 H         1 UNK         0.0786 
     95 H95        23.9934  -26.8164  -42.2654 H         1 UNK         0.3172 
     96 H96        26.6943  -27.1785  -41.6182 H         1 UNK         0.0595 
     97 H97        26.9880  -27.5048  -44.0756 H         1 UNK         0.0839 
     98 H98        25.9149  -26.1582  -43.7308 H         1 UNK         0.0839 
     99 H99        25.2517  -27.6996  -44.2685 H         1 UNK         0.0839 
    100 H100       24.3190  -29.6740  -42.7025 H         1 UNK         0.2998 
    101 H101       26.3632  -31.8099  -42.4440 H         1 UNK         0.0822 
    102 H102       23.4517  -31.9403  -43.3951 H         1 UNK         0.0787 
    103 H103       24.8407  -31.7115  -44.4548 H         1 UNK         0.0787 
    104 H104       24.6652  -33.2004  -43.5406 H         1 UNK         0.0787 
    105 H105       24.3355  -30.2135  -40.3564 H         1 UNK         0.3055 
    106 H106       23.3482  -30.5366  -38.4062 H         1 UNK         0.1106 
    107 H107       25.0179  -33.0891  -38.1127 H         1 UNK         0.0828 
    108 H108       25.5821  -31.4618  -37.7327 H         1 UNK         0.0828 
    109 H109       24.2641  -32.1730  -36.8181 H         1 UNK         0.0828 
    110 H110       22.0679  -31.5589  -40.7734 H         1 UNK         0.2931 
    111 H111       20.5602  -33.9238  -40.1137 H         1 UNK         0.0412 
    112 H112       18.5180  -30.7711  -38.5313 H         1 UNK         0.3472 
    113 H113       20.1209  -30.5271  -39.1903 H         1 UNK         0.3472 
    114 H114       19.8550  -31.8890  -42.2802 H         1 UNK         0.0970 
    115 H115       21.1479  -33.0250  -42.4708 H         1 UNK         0.0970 
    116 H116       16.7940  -33.8561  -43.2754 H         1 UNK         0.0612 
    117 H117       17.2049  -32.7420  -41.9959 H         1 UNK         0.0612 
@<TRIPOS>BOND
     1    1    2 1    
     2    1   62 1    
     3    1   63 1    
     4    1   64 1    
     5    2    3 2    
     6    2    4 am   BACKBONE|DICT|INTERRES
     7    4    5 1    
     8    4   65 1    
     9    5    6 1    
    10    5   25 1    
    11    5   66 1    
    12    6    7 1    
    13    6   67 1    
    14    6   68 1    
    15    7    8 1    
    16    8    9 1    
    17    8   69 1    
    18    8   70 1    
    19    9   10 ar   
    20    9   14 ar   
    21   10   11 ar   
    22   10   71 1    
    23   11   12 ar   
    24   11   61 1    
    25   12   13 ar   
    26   12   72 1    
    27   13   14 ar   
    28   13   15 1    
    29   14   73 1    
    30   15   16 1    
    31   15   74 1    
    32   15   75 1    
    33   16   17 1    
    34   17   18 1    
    35   17   76 1    
    36   17   77 1    
    37   18   19 1    
    38   18   27 1    
    39   18   78 1    
    40   19   20 am   BACKBONE|DICT|INTERRES
    41   19   79 1    
    42   20   21 2    
    43   20   22 1    
    44   22   23 1    
    45   22   24 1    
    46   22   80 1    
    47   23   81 1    
    48   23   82 1    
    49   23   83 1    
    50   24   25 am   BACKBONE|DICT|INTERRES
    51   24   84 1    
    52   25   26 2    
    53   27   28 2    
    54   27   29 am   BACKBONE|DICT|INTERRES
    55   29   30 1    
    56   29   85 1    
    57   30   31 1    
    58   30   32 1    
    59   30   86 1    
    60   31   87 1    
    61   31   88 1    
    62   31   89 1    
    63   32   33 2    
    64   32   34 am   BACKBONE|DICT|INTERRES
    65   34   35 1    
    66   34   90 1    
    67   35   36 1    
    68   35   37 1    
    69   35   91 1    
    70   36   92 1    
    71   36   93 1    
    72   36   94 1    
    73   37   38 2    
    74   37   39 am   BACKBONE|DICT|INTERRES
    75   39   40 1    
    76   39   95 1    
    77   40   41 1    
    78   40   42 1    
    79   40   96 1    
    80   41   97 1    
    81   41   98 1    
    82   41   99 1    
    83   42   43 2    
    84   42   44 am   BACKBONE|DICT|INTERRES
    85   44   45 1    
    86   44  100 1    
    87   45   46 1    
    88   45   47 1    
    89   45  101 1    
    90   46  102 1    
    91   46  103 1    
    92   46  104 1    
    93   47   48 2    
    94   47   49 am   BACKBONE|DICT|INTERRES
    95   49   50 1    
    96   49  105 1    
    97   50   51 1    
    98   50   52 1    
    99   50  106 1    
   100   51  107 1    
   101   51  108 1    
   102   51  109 1    
   103   52   53 2    
   104   52   54 am   BACKBONE|DICT|INTERRES
   105   54   55 1    
   106   54  110 1    
   107   55   56 1    
   108   55   59 1    
   109   55  111 1    
   110   56   57 am   BACKBONE|DICT|INTERRES
   111   56   58 2    
   112   57  112 1    
   113   57  113 1    
   114   59   60 1    
   115   59  114 1    
   116   59  115 1    
   117   60   61 1    
   118   61  116 1    
   119   61  117 1    
@<TRIPOS>SUBSTRUCTURE
     1 UNK         1 GROUP             0       ****    0 ROOT    
