@<TRIPOS>MOLECULE
3R8
117   119    1
SMALL
USER_CHARGES


@<TRIPOS>ATOM
      1 CA         16.5093  -21.3295  -42.8653 C.3       0 UNK        -0.2013 
      2 C          16.6279  -22.2401  -44.0782 C.2       0 UNK         0.4866 
      3 O          16.8510  -21.7565  -45.1885 O.2       0 UNK        -0.5176 
      4 N          16.4712  -23.5539  -43.8772 N.am      1 UNK        -0.4884 
      5 CA         16.6243  -24.5917  -44.8997 C.3       1 UNK         0.0853 
      6 C6         15.9770  -25.9395  -44.4782 C.3       10 UNK        -0.0849 
      7 S7         16.2420  -26.4231  -42.7311 S.3       10 UNK        -0.2776 
      8 C8         15.4042  -28.0408  -42.6539 C.3       10 UNK         0.0316 
      9 C9         16.3105  -29.1667  -43.1314 C.ar      10 UNK        -0.0863 
     10 C10        17.0336  -29.9359  -42.2137 C.ar      10 UNK        -0.1009 
     11 C11        17.8757  -30.9612  -42.6561 C.ar      10 UNK        -0.0712 
     12 C12        18.0187  -31.1917  -44.0294 C.ar      10 UNK        -0.0894 
     13 C13        17.2887  -30.4400  -44.9561 C.ar      10 UNK        -0.0745 
     14 C14        16.4173  -29.4494  -44.4944 C.ar      10 UNK        -0.0972 
     15 C15        17.3912  -30.7349  -46.4487 C.3       10 UNK         0.0209 
     16 S16        17.6098  -29.2260  -47.4566 S.3       10 UNK        -0.2568 
     17 C17        19.3712  -29.2966  -47.9355 C.3       10 UNK        -0.0983 
     18 CA         20.2950  -28.3009  -47.1866 C.3       3 UNK         0.0876 
     19 N          19.7584  -26.9357  -47.1940 N.am      3 UNK        -0.4424 
     20 C          20.4994  -25.8213  -47.1631 C.2       2 UNK         0.4918 
     21 O          21.7301  -25.8187  -47.1433 O.2       2 UNK        -0.4875 
     22 CA         19.7490  -24.4777  -47.1641 C.3       2 UNK         0.0481 
     23 CB         19.6838  -23.9073  -48.5901 C.3       2 UNK        -0.1831 
     24 N          18.3929  -24.5322  -46.6051 N.am      2 UNK        -0.4498 
     25 C          18.1057  -24.7403  -45.3115 C.2       1 UNK         0.5027 
     26 O          18.9542  -25.0228  -44.4639 O.2       1 UNK        -0.4969 
     27 C          20.6889  -28.8034  -45.7802 C.2       3 UNK         0.5005 
     28 O          21.2896  -29.8759  -45.6842 O.2       3 UNK        -0.5279 
     29 N          20.3719  -28.0417  -44.7226 N.am      4 UNK        -0.4463 
     30 CA         20.7613  -28.3502  -43.3469 C.3       4 UNK         0.0283 
     31 CB         19.8942  -27.5295  -42.3808 C.3       4 UNK        -0.1875 
     32 C          22.2531  -28.0816  -43.0865 C.2       4 UNK         0.4949 
     33 O          22.8899  -27.3282  -43.8268 O.2       4 UNK        -0.5039 
     34 N          22.7704  -28.6693  -42.0038 N.am      5 UNK        -0.4663 
     35 CA         24.1218  -28.4518  -41.4929 C.3       5 UNK         0.0242 
     36 CB         25.0579  -29.5576  -42.0112 C.3       5 UNK        -0.1982 
     37 C          24.0746  -28.4293  -39.9605 C.2       5 UNK         0.5017 
     38 O          23.1326  -28.9642  -39.3701 O.2       5 UNK        -0.5012 
     39 N          25.0962  -27.8164  -39.3469 N.am      6 UNK        -0.4439 
     40 CA         25.2235  -27.6390  -37.8944 C.3       6 UNK         0.0297 
     41 CB         26.3462  -26.6282  -37.6073 C.3       6 UNK        -0.2006 
     42 C          25.4666  -28.9438  -37.1120 C.2       6 UNK         0.4892 
     43 O          25.1861  -28.9849  -35.9132 O.2       6 UNK        -0.5089 
     44 N          25.9752  -29.9753  -37.7928 N.am      7 UNK        -0.4243 
     45 CA         26.1554  -31.3293  -37.2838 C.3       7 UNK         0.0196 
     46 CB         27.6191  -31.5329  -36.8583 C.3       7 UNK        -0.2007 
     47 C          25.7663  -32.2991  -38.4024 C.2       7 UNK         0.5020 
     48 O          25.9131  -31.9559  -39.5788 O.2       7 UNK        -0.5147 
     49 N          25.2691  -33.4824  -38.0193 N.am      8 UNK        -0.4734 
     50 CA         24.7940  -34.5996  -38.8556 C.3       8 UNK         0.0238 
     51 CB         25.9248  -35.1616  -39.7401 C.3       8 UNK        -0.1912 
     52 C          23.5349  -34.3046  -39.6957 C.2       8 UNK         0.5038 
     53 O          22.6532  -35.1613  -39.7660 O.2       8 UNK        -0.5046 
     54 N          23.4655  -33.1135  -40.3019 N.am      9 UNK        -0.4200 
     55 CA         22.3780  -32.6312  -41.1676 C.3       9 UNK         0.0839 
     56 C          22.2611  -33.3910  -42.5267 C.2       9 UNK         0.5513 
     57 N          23.3238  -34.0236  -43.0111 N.am      9 UNK        -0.7519 
     58 O          21.2127  -33.4008  -43.1641 O.2       9 UNK        -0.4960 
     59 C59        21.0355  -32.4806  -40.3914 C.3       10 UNK        -0.0876 
     60 S60        20.0648  -31.0409  -40.9513 S.3       10 UNK        -0.2414 
     61 C61        18.5959  -31.8505  -41.6526 C.3       10 UNK         0.0169 
     62 H62        15.7043  -20.6100  -43.0133 H         1 UNK         0.0903 
     63 H63        16.3001  -21.8896  -41.9540 H         1 UNK         0.0903 
     64 H64        17.4374  -20.7777  -42.7185 H         1 UNK         0.0903 
     65 H65        16.3210  -23.9077  -42.9419 H         1 UNK         0.3096 
     66 H66        16.0774  -24.2475  -45.7808 H         1 UNK         0.1121 
     67 H67        16.3186  -26.7380  -45.1359 H         1 UNK         0.0849 
     68 H68        14.8986  -25.8749  -44.6322 H         1 UNK         0.0849 
     69 H69        15.0965  -28.2246  -41.6234 H         1 UNK         0.0865 
     70 H70        14.4854  -28.0154  -43.2418 H         1 UNK         0.0865 
     71 H71        16.9393  -29.7423  -41.1538 H         1 UNK         0.1346 
     72 H72        18.6802  -31.9761  -44.3726 H         1 UNK         0.1412 
     73 H73        15.8256  -28.8915  -45.2056 H         1 UNK         0.1426 
     74 H74        16.4680  -31.2241  -46.7618 H         1 UNK         0.0716 
     75 H75        18.1929  -31.4461  -46.6508 H         1 UNK         0.0716 
     76 H76        19.4089  -29.0660  -49.0013 H         1 UNK         0.0695 
     77 H77        19.7472  -30.3182  -47.8598 H         1 UNK         0.0695 
     78 H78        21.2348  -28.2835  -47.7438 H         1 UNK         0.0983 
     79 H79        18.7521  -26.8578  -47.2203 H         1 UNK         0.3095 
     80 H80        20.3295  -23.7841  -46.5519 H         1 UNK         0.0454 
     81 H81        19.0936  -24.5410  -49.2532 H         1 UNK         0.0851 
     82 H82        20.6815  -23.8238  -49.0236 H         1 UNK         0.0851 
     83 H83        19.2462  -22.9089  -48.5997 H         1 UNK         0.0851 
     84 H84        17.6410  -24.2966  -47.2375 H         1 UNK         0.2976 
     85 H85        19.9232  -27.1485  -44.8762 H         1 UNK         0.3116 
     86 H86        20.5674  -29.4100  -43.1814 H         1 UNK         0.0646 
     87 H87        18.8362  -27.7096  -42.5595 H         1 UNK         0.0847 
     88 H88        20.0753  -26.4590  -42.4817 H         1 UNK         0.0847 
     89 H89        20.0939  -27.7994  -41.3433 H         1 UNK         0.0847 
     90 H90        22.1691  -29.2057  -41.3887 H         1 UNK         0.3040 
     91 H91        24.4897  -27.4798  -41.8304 H         1 UNK         0.1015 
     92 H92        26.0823  -29.3979  -41.6726 H         1 UNK         0.0786 
     93 H93        25.0782  -29.5800  -43.1009 H         1 UNK         0.0786 
     94 H94        24.7539  -30.5442  -41.6634 H         1 UNK         0.0786 
     95 H95        25.8309  -27.4153  -39.9131 H         1 UNK         0.3172 
     96 H96        24.2854  -27.2156  -37.5290 H         1 UNK         0.0595 
     97 H97        27.3128  -26.9842  -37.9662 H         1 UNK         0.0839 
     98 H98        26.4444  -26.4479  -36.5357 H         1 UNK         0.0839 
     99 H99        26.1454  -25.6650  -38.0769 H         1 UNK         0.0839 
    100 H100       26.1204  -29.8821  -38.7898 H         1 UNK         0.2998 
    101 H101       25.4970  -31.4988  -36.4288 H         1 UNK         0.0822 
    102 H102       27.9006  -30.8377  -36.0670 H         1 UNK         0.0787 
    103 H103       27.7796  -32.5419  -36.4765 H         1 UNK         0.0787 
    104 H104       28.3054  -31.3853  -37.6933 H         1 UNK         0.0787 
    105 H105       25.1746  -33.6397  -37.0244 H         1 UNK         0.3055 
    106 H106       24.5107  -35.3883  -38.1560 H         1 UNK         0.1106 
    107 H107       26.2665  -34.4383  -40.4809 H         1 UNK         0.0828 
    108 H108       25.5899  -36.0461  -40.2837 H         1 UNK         0.0828 
    109 H109       26.7857  -35.4580  -39.1408 H         1 UNK         0.0828 
    110 H110       24.2691  -32.4991  -40.1960 H         1 UNK         0.2931 
    111 H111       22.7007  -31.6294  -41.4488 H         1 UNK         0.0412 
    112 H112       24.1970  -34.0191  -42.5091 H         1 UNK         0.3472 
    113 H113       23.2483  -34.5087  -43.8914 H         1 UNK         0.3472 
    114 H114       20.4466  -33.3984  -40.4368 H         1 UNK         0.0970 
    115 H115       21.2325  -32.3153  -39.3311 H         1 UNK         0.0970 
    116 H116       18.8799  -32.7882  -42.1307 H         1 UNK         0.0612 
    117 H117       17.9172  -32.1177  -40.8414 H         1 UNK         0.0612 
@<TRIPOS>BOND
     1    1    2 1    
     2    1   62 1    
     3    1   63 1    
     4    1   64 1    
     5    2    3 2    
     6    2    4 am   BACKBONE|DICT|INTERRES
     7    4    5 1    
     8    4   65 1    
     9    5    6 1    
    10    5   25 1    
    11    5   66 1    
    12    6    7 1    
    13    6   67 1    
    14    6   68 1    
    15    7    8 1    
    16    8    9 1    
    17    8   69 1    
    18    8   70 1    
    19    9   10 ar   
    20    9   14 ar   
    21   10   11 ar   
    22   10   71 1    
    23   11   12 ar   
    24   11   61 1    
    25   12   13 ar   
    26   12   72 1    
    27   13   14 ar   
    28   13   15 1    
    29   14   73 1    
    30   15   16 1    
    31   15   74 1    
    32   15   75 1    
    33   16   17 1    
    34   17   18 1    
    35   17   76 1    
    36   17   77 1    
    37   18   19 1    
    38   18   27 1    
    39   18   78 1    
    40   19   20 am   BACKBONE|DICT|INTERRES
    41   19   79 1    
    42   20   21 2    
    43   20   22 1    
    44   22   23 1    
    45   22   24 1    
    46   22   80 1    
    47   23   81 1    
    48   23   82 1    
    49   23   83 1    
    50   24   25 am   BACKBONE|DICT|INTERRES
    51   24   84 1    
    52   25   26 2    
    53   27   28 2    
    54   27   29 am   BACKBONE|DICT|INTERRES
    55   29   30 1    
    56   29   85 1    
    57   30   31 1    
    58   30   32 1    
    59   30   86 1    
    60   31   87 1    
    61   31   88 1    
    62   31   89 1    
    63   32   33 2    
    64   32   34 am   BACKBONE|DICT|INTERRES
    65   34   35 1    
    66   34   90 1    
    67   35   36 1    
    68   35   37 1    
    69   35   91 1    
    70   36   92 1    
    71   36   93 1    
    72   36   94 1    
    73   37   38 2    
    74   37   39 am   BACKBONE|DICT|INTERRES
    75   39   40 1    
    76   39   95 1    
    77   40   41 1    
    78   40   42 1    
    79   40   96 1    
    80   41   97 1    
    81   41   98 1    
    82   41   99 1    
    83   42   43 2    
    84   42   44 am   BACKBONE|DICT|INTERRES
    85   44   45 1    
    86   44  100 1    
    87   45   46 1    
    88   45   47 1    
    89   45  101 1    
    90   46  102 1    
    91   46  103 1    
    92   46  104 1    
    93   47   48 2    
    94   47   49 am   BACKBONE|DICT|INTERRES
    95   49   50 1    
    96   49  105 1    
    97   50   51 1    
    98   50   52 1    
    99   50  106 1    
   100   51  107 1    
   101   51  108 1    
   102   51  109 1    
   103   52   53 2    
   104   52   54 am   BACKBONE|DICT|INTERRES
   105   54   55 1    
   106   54  110 1    
   107   55   56 1    
   108   55   59 1    
   109   55  111 1    
   110   56   57 am   BACKBONE|DICT|INTERRES
   111   56   58 2    
   112   57  112 1    
   113   57  113 1    
   114   59   60 1    
   115   59  114 1    
   116   59  115 1    
   117   60   61 1    
   118   61  116 1    
   119   61  117 1    
@<TRIPOS>SUBSTRUCTURE
     1 UNK         1 GROUP             0       ****    0 ROOT    
