@<TRIPOS>MOLECULE
3R8
117   119    1
SMALL
USER_CHARGES


@<TRIPOS>ATOM
      1 CA         13.6145  -24.6388  -43.0117 C.3       0 UNK        -0.2013 
      2 C          14.8832  -24.6489  -43.8507 C.2       0 UNK         0.4866 
      3 O          15.6571  -23.6929  -43.8047 O.2       0 UNK        -0.5176 
      4 N          15.1090  -25.7265  -44.6131 N.am      1 UNK        -0.4884 
      5 CA         16.2782  -25.9108  -45.4851 C.3       1 UNK         0.0853 
      6 C6         15.9789  -26.8997  -46.6427 C.3       10 UNK        -0.0849 
      7 S7         15.4493  -28.5651  -46.0972 S.3       10 UNK        -0.2776 
      8 C8         16.7180  -29.6507  -46.8367 C.3       10 UNK         0.0316 
      9 C9         17.9599  -29.8021  -45.9647 C.ar      10 UNK        -0.0863 
     10 C10        17.8757  -30.4807  -44.7458 C.ar      10 UNK        -0.1009 
     11 C11        19.0148  -30.6830  -43.9606 C.ar      10 UNK        -0.0712 
     12 C12        20.2501  -30.1962  -44.4001 C.ar      10 UNK        -0.0894 
     13 C13        20.3503  -29.5130  -45.6157 C.ar      10 UNK        -0.0745 
     14 C14        19.2020  -29.3206  -46.3939 C.ar      10 UNK        -0.0972 
     15 C15        21.7060  -29.0303  -46.1167 C.3       10 UNK         0.0209 
     16 S16        21.9054  -27.2236  -45.9944 S.3       10 UNK        -0.2568 
     17 C17        22.5154  -26.9890  -44.2907 C.3       10 UNK        -0.0983 
     18 CA         21.7636  -25.8484  -43.5528 C.3       3 UNK         0.0876 
     19 N          20.3550  -26.1653  -43.2735 N.am      3 UNK        -0.4424 
     20 C          19.8467  -27.1515  -42.5291 C.2       2 UNK         0.4918 
     21 O          20.5439  -27.8896  -41.8319 O.2       2 UNK        -0.4875 
     22 CA         18.3158  -27.3648  -42.5024 C.3       2 UNK         0.0481 
     23 CB         17.7878  -27.1360  -41.0750 C.3       2 UNK        -0.1831 
     24 N          17.4284  -26.6439  -43.4324 N.am      2 UNK        -0.4498 
     25 C          17.5608  -26.3172  -44.7289 C.2       1 UNK         0.5027 
     26 O          18.6161  -26.3249  -45.3553 O.2       1 UNK        -0.4969 
     27 C          22.5772  -25.3412  -42.3411 C.2       3 UNK         0.5005 
     28 O          23.4391  -24.4808  -42.5299 O.2       3 UNK        -0.5279 
     29 N          22.3180  -25.8708  -41.1375 N.am      4 UNK        -0.4463 
     30 CA         22.9552  -25.5980  -39.8407 C.3       4 UNK         0.0283 
     31 CB         22.8046  -24.1219  -39.4225 C.3       4 UNK        -0.1875 
     32 C          24.4197  -26.0632  -39.7727 C.2       4 UNK         0.4949 
     33 O          24.7501  -26.9080  -38.9415 O.2       4 UNK        -0.5039 
     34 N          25.2624  -25.5362  -40.6688 N.am      5 UNK        -0.4663 
     35 CA         26.6748  -25.9002  -40.8206 C.3       5 UNK         0.0242 
     36 CB         27.3801  -24.8238  -41.6611 C.3       5 UNK        -0.1982 
     37 C          26.8771  -27.2911  -41.4487 C.2       5 UNK         0.5017 
     38 O          27.9344  -27.8912  -41.2547 O.2       5 UNK        -0.5012 
     39 N          25.8632  -27.7743  -42.1768 N.am      6 UNK        -0.4439 
     40 CA         25.8099  -29.0939  -42.8038 C.3       6 UNK         0.0297 
     41 CB         26.0531  -28.9605  -44.3194 C.3       6 UNK        -0.2006 
     42 C          24.4757  -29.7774  -42.4678 C.2       6 UNK         0.4892 
     43 O          23.8520  -30.3799  -43.3432 O.2       6 UNK        -0.5089 
     44 N          24.0502  -29.6737  -41.2003 N.am      7 UNK        -0.4243 
     45 CA         22.8309  -30.2848  -40.6625 C.3       7 UNK         0.0196 
     46 CB         22.4264  -29.5555  -39.3694 C.3       7 UNK        -0.2007 
     47 C          22.9870  -31.8047  -40.4587 C.2       7 UNK         0.5020 
     48 O          22.8997  -32.2989  -39.3335 O.2       7 UNK        -0.5147 
     49 N          23.2113  -32.5260  -41.5639 N.am      8 UNK        -0.4734 
     50 CA         23.3989  -33.9812  -41.6238 C.3       8 UNK         0.0238 
     51 CB         23.8675  -34.3588  -43.0387 C.3       8 UNK        -0.1912 
     52 C          22.1538  -34.8000  -41.2310 C.2       8 UNK         0.5038 
     53 O          22.2771  -35.9995  -40.9797 O.2       8 UNK        -0.5046 
     54 N          20.9893  -34.1422  -41.1872 N.am      9 UNK        -0.4200 
     55 CA         19.6955  -34.6962  -40.7654 C.3       9 UNK         0.0839 
     56 C          19.6231  -35.1026  -39.2640 C.2       9 UNK         0.5513 
     57 N          20.5173  -34.6290  -38.4028 N.am      9 UNK        -0.7519 
     58 O          18.7363  -35.8589  -38.8770 O.2       9 UNK        -0.4960 
     59 C59        18.5220  -33.7432  -41.1182 C.3       10 UNK        -0.0876 
     60 S60        18.5420  -33.1766  -42.8547 S.3       10 UNK        -0.2414 
     61 C61        18.8984  -31.4057  -42.6279 C.3       10 UNK         0.0169 
     62 H62        13.0280  -25.5474  -43.1474 H         1 UNK         0.0903 
     63 H63        13.8638  -24.5506  -41.9546 H         1 UNK         0.0903 
     64 H64        12.9904  -23.7888  -43.2865 H         1 UNK         0.0903 
     65 H65        14.4456  -26.4901  -44.6187 H         1 UNK         0.3096 
     66 H66        16.5037  -24.9446  -45.9431 H         1 UNK         0.1121 
     67 H67        16.8429  -26.9822  -47.3052 H         1 UNK         0.0849 
     68 H68        15.1821  -26.4903  -47.2656 H         1 UNK         0.0849 
     69 H69        16.2791  -30.6389  -46.9822 H         1 UNK         0.0865 
     70 H70        16.9777  -29.2938  -47.8345 H         1 UNK         0.0865 
     71 H71        16.9203  -30.8603  -44.4094 H         1 UNK         0.1346 
     72 H72        21.1356  -30.3463  -43.7977 H         1 UNK         0.1412 
     73 H73        19.2815  -28.7984  -47.3375 H         1 UNK         0.1426 
     74 H74        21.8138  -29.3168  -47.1636 H         1 UNK         0.0716 
     75 H75        22.5207  -29.5266  -45.5871 H         1 UNK         0.0716 
     76 H76        23.5794  -26.7602  -44.3714 H         1 UNK         0.0695 
     77 H77        22.4447  -27.9251  -43.7357 H         1 UNK         0.0695 
     78 H78        21.7230  -24.9963  -44.2337 H         1 UNK         0.0983 
     79 H79        19.6939  -25.7102  -43.8932 H         1 UNK         0.3095 
     80 H80        18.1671  -28.4185  -42.7297 H         1 UNK         0.0454 
     81 H81        16.7503  -27.4553  -40.9761 H         1 UNK         0.0851 
     82 H82        17.8448  -26.0842  -40.7921 H         1 UNK         0.0851 
     83 H83        18.3620  -27.7023  -40.3399 H         1 UNK         0.0851 
     84 H84        16.4898  -26.5207  -43.0822 H         1 UNK         0.2976 
     85 H85        21.6318  -26.6244  -41.1366 H         1 UNK         0.3116 
     86 H86        22.4024  -26.1903  -39.1103 H         1 UNK         0.0646 
     87 H87        23.3318  -23.4432  -40.0933 H         1 UNK         0.0847 
     88 H88        21.7568  -23.8227  -39.4019 H         1 UNK         0.0847 
     89 H89        23.2066  -23.9606  -38.4215 H         1 UNK         0.0847 
     90 H90        24.8688  -24.8875  -41.3473 H         1 UNK         0.3040 
     91 H91        27.1330  -25.9206  -39.8290 H         1 UNK         0.1015 
     92 H92        28.4410  -25.0506  -41.7771 H         1 UNK         0.0786 
     93 H93        27.3096  -23.8434  -41.1894 H         1 UNK         0.0786 
     94 H94        26.9509  -24.7470  -42.6611 H         1 UNK         0.0786 
     95 H95        25.0326  -27.2054  -42.2543 H         1 UNK         0.3172 
     96 H96        26.5906  -29.7361  -42.3913 H         1 UNK         0.0595 
     97 H97        25.2702  -28.3807  -44.8080 H         1 UNK         0.0839 
     98 H98        26.0775  -29.9403  -44.7983 H         1 UNK         0.0839 
     99 H99        27.0079  -28.4772  -44.5265 H         1 UNK         0.0839 
    100 H100       24.6345  -29.1837  -40.5369 H         1 UNK         0.2998 
    101 H101       22.0247  -30.1391  -41.3844 H         1 UNK         0.0822 
    102 H102       21.5241  -29.9915  -38.9385 H         1 UNK         0.0787 
    103 H103       22.2095  -28.5069  -39.5642 H         1 UNK         0.0787 
    104 H104       23.2104  -29.6038  -38.6126 H         1 UNK         0.0787 
    105 H105       23.3156  -32.0115  -42.4351 H         1 UNK         0.3055 
    106 H106       24.1874  -34.2450  -40.9155 H         1 UNK         0.1106 
    107 H107       24.7960  -33.8501  -43.2989 H         1 UNK         0.0828 
    108 H108       24.0548  -35.4307  -43.1172 H         1 UNK         0.0828 
    109 H109       23.1213  -34.1019  -43.7918 H         1 UNK         0.0828 
    110 H110       20.9946  -33.1649  -41.4309 H         1 UNK         0.2931 
    111 H111       19.5528  -35.6151  -41.3375 H         1 UNK         0.0412 
    112 H112       21.2469  -34.0015  -38.7104 H         1 UNK         0.3472 
    113 H113       20.4614  -34.9000  -37.4336 H         1 UNK         0.3472 
    114 H114       17.5684  -34.2467  -40.9473 H         1 UNK         0.0970 
    115 H115       18.5219  -32.8771  -40.4533 H         1 UNK         0.0970 
    116 H116       18.1005  -30.9488  -42.0405 H         1 UNK         0.0612 
    117 H117       19.8154  -31.2906  -42.0484 H         1 UNK         0.0612 
@<TRIPOS>BOND
     1    1    2 1    
     2    1   62 1    
     3    1   63 1    
     4    1   64 1    
     5    2    3 2    
     6    2    4 am   BACKBONE|DICT|INTERRES
     7    4    5 1    
     8    4   65 1    
     9    5    6 1    
    10    5   25 1    
    11    5   66 1    
    12    6    7 1    
    13    6   67 1    
    14    6   68 1    
    15    7    8 1    
    16    8    9 1    
    17    8   69 1    
    18    8   70 1    
    19    9   10 ar   
    20    9   14 ar   
    21   10   11 ar   
    22   10   71 1    
    23   11   12 ar   
    24   11   61 1    
    25   12   13 ar   
    26   12   72 1    
    27   13   14 ar   
    28   13   15 1    
    29   14   73 1    
    30   15   16 1    
    31   15   74 1    
    32   15   75 1    
    33   16   17 1    
    34   17   18 1    
    35   17   76 1    
    36   17   77 1    
    37   18   19 1    
    38   18   27 1    
    39   18   78 1    
    40   19   20 am   BACKBONE|DICT|INTERRES
    41   19   79 1    
    42   20   21 2    
    43   20   22 1    
    44   22   23 1    
    45   22   24 1    
    46   22   80 1    
    47   23   81 1    
    48   23   82 1    
    49   23   83 1    
    50   24   25 am   BACKBONE|DICT|INTERRES
    51   24   84 1    
    52   25   26 2    
    53   27   28 2    
    54   27   29 am   BACKBONE|DICT|INTERRES
    55   29   30 1    
    56   29   85 1    
    57   30   31 1    
    58   30   32 1    
    59   30   86 1    
    60   31   87 1    
    61   31   88 1    
    62   31   89 1    
    63   32   33 2    
    64   32   34 am   BACKBONE|DICT|INTERRES
    65   34   35 1    
    66   34   90 1    
    67   35   36 1    
    68   35   37 1    
    69   35   91 1    
    70   36   92 1    
    71   36   93 1    
    72   36   94 1    
    73   37   38 2    
    74   37   39 am   BACKBONE|DICT|INTERRES
    75   39   40 1    
    76   39   95 1    
    77   40   41 1    
    78   40   42 1    
    79   40   96 1    
    80   41   97 1    
    81   41   98 1    
    82   41   99 1    
    83   42   43 2    
    84   42   44 am   BACKBONE|DICT|INTERRES
    85   44   45 1    
    86   44  100 1    
    87   45   46 1    
    88   45   47 1    
    89   45  101 1    
    90   46  102 1    
    91   46  103 1    
    92   46  104 1    
    93   47   48 2    
    94   47   49 am   BACKBONE|DICT|INTERRES
    95   49   50 1    
    96   49  105 1    
    97   50   51 1    
    98   50   52 1    
    99   50  106 1    
   100   51  107 1    
   101   51  108 1    
   102   51  109 1    
   103   52   53 2    
   104   52   54 am   BACKBONE|DICT|INTERRES
   105   54   55 1    
   106   54  110 1    
   107   55   56 1    
   108   55   59 1    
   109   55  111 1    
   110   56   57 am   BACKBONE|DICT|INTERRES
   111   56   58 2    
   112   57  112 1    
   113   57  113 1    
   114   59   60 1    
   115   59  114 1    
   116   59  115 1    
   117   60   61 1    
   118   61  116 1    
   119   61  117 1    
@<TRIPOS>SUBSTRUCTURE
     1 UNK         1 GROUP             0       ****    0 ROOT    
