@<TRIPOS>MOLECULE
3R8
117   119    1
SMALL
USER_CHARGES


@<TRIPOS>ATOM
      1 CA         15.1056  -28.5149  -39.6828 C.3       0 UNK        -0.2013 
      2 C          15.8194  -28.2917  -41.0077 C.2       0 UNK         0.4866 
      3 O          16.9389  -28.7704  -41.1838 O.2       0 UNK        -0.5176 
      4 N          15.1736  -27.5727  -41.9372 N.am      1 UNK        -0.4884 
      5 CA         15.6947  -27.1969  -43.2589 C.3       1 UNK         0.0853 
      6 C6         16.0118  -28.4368  -44.1477 C.3       10 UNK        -0.0849 
      7 S7         15.8694  -28.0968  -45.9368 S.3       10 UNK        -0.2776 
      8 C8         16.2313  -29.7335  -46.6473 C.3       10 UNK         0.0316 
      9 C9         17.6479  -30.1961  -46.3346 C.ar      10 UNK        -0.0863 
     10 C10        17.8696  -31.1475  -45.3341 C.ar      10 UNK        -0.1009 
     11 C11        19.1658  -31.5962  -45.0451 C.ar      10 UNK        -0.0712 
     12 C12        20.2386  -31.0734  -45.7745 C.ar      10 UNK        -0.0894 
     13 C13        20.0313  -30.1275  -46.7826 C.ar      10 UNK        -0.0745 
     14 C14        18.7321  -29.6914  -47.0581 C.ar      10 UNK        -0.0972 
     15 C15        21.2070  -29.6086  -47.5998 C.3       10 UNK         0.0209 
     16 S16        21.6233  -27.8816  -47.2080 S.3       10 UNK        -0.2568 
     17 C17        22.3116  -28.0362  -45.5243 C.3       10 UNK        -0.0983 
     18 CA         22.4763  -26.6501  -44.8411 C.3       3 UNK         0.0876 
     19 N          21.2266  -25.8767  -44.7867 N.am      3 UNK        -0.4424 
     20 C          20.1153  -26.2072  -44.1128 C.2       2 UNK         0.4918 
     21 O          20.0352  -27.1812  -43.3618 O.2       2 UNK        -0.4875 
     22 CA         18.8887  -25.2937  -44.3095 C.3       2 UNK         0.0481 
     23 CB         18.8809  -24.5623  -45.6679 C.3       2 UNK        -0.1831 
     24 N          17.6710  -26.0942  -44.2115 N.am      2 UNK        -0.4498 
     25 C          16.8605  -26.1799  -43.1515 C.2       1 UNK         0.5027 
     26 O          16.9783  -25.4760  -42.1438 O.2       1 UNK        -0.4969 
     27 C          23.1643  -26.7321  -43.4604 C.2       3 UNK         0.5005 
     28 O          23.6827  -27.7847  -43.0790 O.2       3 UNK        -0.5279 
     29 N          23.1741  -25.6006  -42.7378 N.am      4 UNK        -0.4463 
     30 CA         23.7029  -25.4416  -41.3760 C.3       4 UNK         0.0283 
     31 CB         23.3702  -24.0283  -40.8712 C.3       4 UNK        -0.1875 
     32 C          25.2086  -25.7295  -41.2152 C.2       4 UNK         0.4949 
     33 O          25.6610  -25.9328  -40.0892 O.2       4 UNK        -0.5039 
     34 N          25.9550  -25.7683  -42.3281 N.am      5 UNK        -0.4663 
     35 CA         27.3423  -26.2385  -42.3812 C.3       5 UNK         0.0242 
     36 CB         27.9391  -25.9020  -43.7573 C.3       5 UNK        -0.1982 
     37 C          27.4751  -27.7461  -42.0876 C.2       5 UNK         0.5017 
     38 O          28.5098  -28.1641  -41.5669 O.2       5 UNK        -0.5012 
     39 N          26.4310  -28.5221  -42.4122 N.am      6 UNK        -0.4439 
     40 CA         26.2996  -29.9376  -42.0702 C.3       6 UNK         0.0297 
     41 CB         25.7358  -30.7118  -43.2748 C.3       6 UNK        -0.2006 
     42 C          25.3922  -30.1021  -40.8428 C.2       6 UNK         0.4892 
     43 O          25.7726  -30.8012  -39.9039 O.2       6 UNK        -0.5089 
     44 N          24.2143  -29.4555  -40.8811 N.am      7 UNK        -0.4243 
     45 CA         23.1647  -29.4277  -39.8511 C.3       7 UNK         0.0196 
     46 CB         23.6574  -28.6835  -38.5922 C.3       7 UNK        -0.2007 
     47 C          22.5608  -30.8070  -39.5101 C.2       7 UNK         0.5020 
     48 O          21.9657  -30.9623  -38.4428 O.2       7 UNK        -0.5147 
     49 N          22.6969  -31.7828  -40.4204 N.am      8 UNK        -0.4734 
     50 CA         22.2939  -33.1832  -40.2325 C.3       8 UNK         0.0238 
     51 CB         22.7865  -34.0108  -41.4313 C.3       8 UNK        -0.1912 
     52 C          20.7837  -33.3930  -40.0211 C.2       8 UNK         0.5038 
     53 O          20.3952  -34.3684  -39.3771 O.2       8 UNK        -0.5046 
     54 N          19.9757  -32.4754  -40.5613 N.am      9 UNK        -0.4200 
     55 CA         18.5140  -32.4365  -40.4205 C.3       9 UNK         0.0839 
     56 C          18.0310  -31.5844  -39.2106 C.2       9 UNK         0.5513 
     57 N          18.9090  -30.9810  -38.4157 N.am      9 UNK        -0.7519 
     58 O          16.8312  -31.5008  -38.9623 O.2       9 UNK        -0.4960 
     59 C59        17.8402  -32.0140  -41.7538 C.3       10 UNK        -0.0876 
     60 S60        18.0473  -33.2974  -43.0366 S.3       10 UNK        -0.2414 
     61 C61        19.4710  -32.6630  -43.9908 C.3       10 UNK         0.0169 
     62 H62        15.7449  -28.2053  -38.8565 H         1 UNK         0.0903 
     63 H63        14.1734  -27.9540  -39.6194 H         1 UNK         0.0903 
     64 H64        14.8767  -29.5727  -39.5559 H         1 UNK         0.0903 
     65 H65        14.2682  -27.1841  -41.7107 H         1 UNK         0.3096 
     66 H66        14.8790  -26.6476  -43.7323 H         1 UNK         0.1121 
     67 H67        15.3122  -29.2433  -43.9217 H         1 UNK         0.0849 
     68 H68        17.0033  -28.8332  -43.9192 H         1 UNK         0.0849 
     69 H69        16.0957  -29.6867  -47.7289 H         1 UNK         0.0865 
     70 H70        15.4985  -30.4553  -46.2831 H         1 UNK         0.0865 
     71 H71        17.0202  -31.5354  -44.7913 H         1 UNK         0.1346 
     72 H72        21.2424  -31.4182  -45.5658 H         1 UNK         0.1412 
     73 H73        18.5658  -28.9602  -47.8377 H         1 UNK         0.1426 
     74 H74        20.9601  -29.6762  -48.6602 H         1 UNK         0.0716 
     75 H75        22.0905  -30.2321  -47.4538 H         1 UNK         0.0716 
     76 H76        23.2736  -28.5463  -45.6016 H         1 UNK         0.0695 
     77 H77        21.6667  -28.6822  -44.9268 H         1 UNK         0.0695 
     78 H78        23.1604  -26.0700  -45.4628 H         1 UNK         0.0983 
     79 H79        21.1943  -25.0628  -45.3834 H         1 UNK         0.3095 
     80 H80        18.9117  -24.5425  -43.5180 H         1 UNK         0.0454 
     81 H81        18.9789  -25.2569  -46.5039 H         1 UNK         0.0851 
     82 H82        19.6904  -23.8352  -45.7386 H         1 UNK         0.0851 
     83 H83        17.9528  -24.0079  -45.8088 H         1 UNK         0.0851 
     84 H84        17.4985  -26.7358  -44.9758 H         1 UNK         0.2976 
     85 H85        22.7291  -24.7872  -43.1385 H         1 UNK         0.3116 
     86 H86        23.1773  -26.1596  -40.7432 H         1 UNK         0.0646 
     87 H87        22.2953  -23.8466  -40.8736 H         1 UNK         0.0847 
     88 H88        23.8446  -23.2592  -41.4820 H         1 UNK         0.0847 
     89 H89        23.7157  -23.8875  -39.8458 H         1 UNK         0.0847 
     90 H90        25.5085  -25.5562  -43.2080 H         1 UNK         0.3040 
     91 H91        27.9120  -25.7044  -41.6173 H         1 UNK         0.1015 
     92 H92        28.9816  -26.2184  -43.8172 H         1 UNK         0.0786 
     93 H93        27.9170  -24.8289  -43.9483 H         1 UNK         0.0786 
     94 H94        27.4010  -26.3999  -44.5650 H         1 UNK         0.0786 
     95 H95        25.6027  -28.0778  -42.7967 H         1 UNK         0.3172 
     96 H96        27.2765  -30.3613  -41.8279 H         1 UNK         0.0595 
     97 H97        24.7630  -30.3322  -43.5904 H         1 UNK         0.0839 
     98 H98        25.6136  -31.7693  -43.0365 H         1 UNK         0.0839 
     99 H99        26.4084  -30.6498  -44.1304 H         1 UNK         0.0839 
    100 H100       24.0014  -28.9127  -41.7177 H         1 UNK         0.2998 
    101 H101       22.3472  -28.8442  -40.2775 H         1 UNK         0.0822 
    102 H102       24.0525  -27.6995  -38.8404 H         1 UNK         0.0787 
    103 H103       22.8449  -28.5314  -37.8806 H         1 UNK         0.0787 
    104 H104       24.4416  -29.2383  -38.0764 H         1 UNK         0.0787 
    105 H105       23.1950  -31.5636  -41.2704 H         1 UNK         0.3055 
    106 H106       22.7940  -33.5494  -39.3330 H         1 UNK         0.1106 
    107 H107       22.5280  -35.0639  -41.3112 H         1 UNK         0.0828 
    108 H108       23.8706  -33.9564  -41.5337 H         1 UNK         0.0828 
    109 H109       22.3416  -33.6720  -42.3677 H         1 UNK         0.0828 
    110 H110       20.3975  -31.6953  -41.0410 H         1 UNK         0.2931 
    111 H111       18.1644  -33.4464  -40.1968 H         1 UNK         0.0412 
    112 H112       19.9072  -31.0740  -38.5623 H         1 UNK         0.3472 
    113 H113       18.5691  -30.4468  -37.6322 H         1 UNK         0.3472 
    114 H114       16.7673  -31.8672  -41.6163 H         1 UNK         0.0970 
    115 H115       18.2290  -31.0569  -42.1071 H         1 UNK         0.0970 
    116 H116       19.9277  -33.5146  -44.4969 H         1 UNK         0.0612 
    117 H117       20.2244  -32.2804  -43.3024 H         1 UNK         0.0612 
@<TRIPOS>BOND
     1    1    2 1    
     2    1   62 1    
     3    1   63 1    
     4    1   64 1    
     5    2    3 2    
     6    2    4 am   BACKBONE|DICT|INTERRES
     7    4    5 1    
     8    4   65 1    
     9    5    6 1    
    10    5   25 1    
    11    5   66 1    
    12    6    7 1    
    13    6   67 1    
    14    6   68 1    
    15    7    8 1    
    16    8    9 1    
    17    8   69 1    
    18    8   70 1    
    19    9   10 ar   
    20    9   14 ar   
    21   10   11 ar   
    22   10   71 1    
    23   11   12 ar   
    24   11   61 1    
    25   12   13 ar   
    26   12   72 1    
    27   13   14 ar   
    28   13   15 1    
    29   14   73 1    
    30   15   16 1    
    31   15   74 1    
    32   15   75 1    
    33   16   17 1    
    34   17   18 1    
    35   17   76 1    
    36   17   77 1    
    37   18   19 1    
    38   18   27 1    
    39   18   78 1    
    40   19   20 am   BACKBONE|DICT|INTERRES
    41   19   79 1    
    42   20   21 2    
    43   20   22 1    
    44   22   23 1    
    45   22   24 1    
    46   22   80 1    
    47   23   81 1    
    48   23   82 1    
    49   23   83 1    
    50   24   25 am   BACKBONE|DICT|INTERRES
    51   24   84 1    
    52   25   26 2    
    53   27   28 2    
    54   27   29 am   BACKBONE|DICT|INTERRES
    55   29   30 1    
    56   29   85 1    
    57   30   31 1    
    58   30   32 1    
    59   30   86 1    
    60   31   87 1    
    61   31   88 1    
    62   31   89 1    
    63   32   33 2    
    64   32   34 am   BACKBONE|DICT|INTERRES
    65   34   35 1    
    66   34   90 1    
    67   35   36 1    
    68   35   37 1    
    69   35   91 1    
    70   36   92 1    
    71   36   93 1    
    72   36   94 1    
    73   37   38 2    
    74   37   39 am   BACKBONE|DICT|INTERRES
    75   39   40 1    
    76   39   95 1    
    77   40   41 1    
    78   40   42 1    
    79   40   96 1    
    80   41   97 1    
    81   41   98 1    
    82   41   99 1    
    83   42   43 2    
    84   42   44 am   BACKBONE|DICT|INTERRES
    85   44   45 1    
    86   44  100 1    
    87   45   46 1    
    88   45   47 1    
    89   45  101 1    
    90   46  102 1    
    91   46  103 1    
    92   46  104 1    
    93   47   48 2    
    94   47   49 am   BACKBONE|DICT|INTERRES
    95   49   50 1    
    96   49  105 1    
    97   50   51 1    
    98   50   52 1    
    99   50  106 1    
   100   51  107 1    
   101   51  108 1    
   102   51  109 1    
   103   52   53 2    
   104   52   54 am   BACKBONE|DICT|INTERRES
   105   54   55 1    
   106   54  110 1    
   107   55   56 1    
   108   55   59 1    
   109   55  111 1    
   110   56   57 am   BACKBONE|DICT|INTERRES
   111   56   58 2    
   112   57  112 1    
   113   57  113 1    
   114   59   60 1    
   115   59  114 1    
   116   59  115 1    
   117   60   61 1    
   118   61  116 1    
   119   61  117 1    
@<TRIPOS>SUBSTRUCTURE
     1 UNK         1 GROUP             0       ****    0 ROOT    
