@<TRIPOS>MOLECULE
3R8
117   119    1
SMALL
USER_CHARGES


@<TRIPOS>ATOM
      1 CA         13.9500  -25.1224  -44.6180 C.3       0 UNK        -0.2013 
      2 C          15.1676  -26.0163  -44.4402 C.2       0 UNK         0.4866 
      3 O          16.2902  -25.5818  -44.7002 O.2       0 UNK        -0.5176 
      4 N          14.9586  -27.2615  -43.9942 N.am      1 UNK        -0.4884 
      5 CA         16.0016  -28.2659  -43.7542 C.3       1 UNK         0.0853 
      6 C6         15.4327  -29.7062  -43.8135 C.3       10 UNK        -0.0849 
      7 S7         15.0645  -30.1762  -45.5367 S.3       10 UNK        -0.2776 
      8 C8         16.5002  -31.2254  -45.9495 C.3       10 UNK         0.0316 
      9 C9         17.8354  -30.5377  -45.6824 C.ar      10 UNK        -0.0863 
     10 C10        18.6506  -30.9726  -44.6307 C.ar      10 UNK        -0.1009 
     11 C11        19.8832  -30.3597  -44.3936 C.ar      10 UNK        -0.0712 
     12 C12        20.3018  -29.3145  -45.2155 C.ar      10 UNK        -0.0894 
     13 C13        19.4878  -28.8461  -46.2489 C.ar      10 UNK        -0.0745 
     14 C14        18.2579  -29.4711  -46.4853 C.ar      10 UNK        -0.0972 
     15 C15        19.9470  -27.6830  -47.1190 C.3       10 UNK         0.0209 
     16 S16        19.7698  -26.0728  -46.2777 S.3       10 UNK        -0.2568 
     17 C17        21.3467  -25.9326  -45.3617 C.3       10 UNK        -0.0983 
     18 CA         21.1934  -25.4094  -43.9077 C.3       3 UNK         0.0876 
     19 N          20.1386  -26.0949  -43.1544 N.am      3 UNK        -0.4424 
     20 C          19.5858  -25.6231  -42.0274 C.2       2 UNK         0.4918 
     21 O          19.8975  -24.5469  -41.5136 O.2       2 UNK        -0.4875 
     22 CA         18.4627  -26.4710  -41.4096 C.3       2 UNK         0.0481 
     23 CB         17.6699  -25.7291  -40.3144 C.3       2 UNK        -0.1831 
     24 N          17.5690  -26.9165  -42.4736 N.am      2 UNK        -0.4498 
     25 C          16.7582  -27.9771  -42.4436 C.2       1 UNK         0.5027 
     26 O          16.5866  -28.6887  -41.4525 O.2       1 UNK        -0.4969 
     27 C          22.5425  -25.4877  -43.1613 C.2       3 UNK         0.5005 
     28 O          22.7509  -26.3939  -42.3489 O.2       3 UNK        -0.5279 
     29 N          23.4588  -24.5669  -43.4969 N.am      4 UNK        -0.4463 
     30 CA         24.7898  -24.4068  -42.8913 C.3       4 UNK         0.0283 
     31 CB         25.4739  -23.1758  -43.5093 C.3       4 UNK        -0.1875 
     32 C          25.7200  -25.6346  -42.9785 C.2       4 UNK         0.4949 
     33 O          26.7005  -25.6931  -42.2361 O.2       4 UNK        -0.5039 
     34 N          25.4008  -26.5918  -43.8612 N.am      5 UNK        -0.4663 
     35 CA         26.0623  -27.8945  -43.9684 C.3       5 UNK         0.0242 
     36 CB         25.5222  -28.6324  -45.2047 C.3       5 UNK        -0.1982 
     37 C          25.9027  -28.7702  -42.7099 C.2       5 UNK         0.5017 
     38 O          26.8235  -29.5268  -42.3977 O.2       5 UNK        -0.5012 
     39 N          24.7607  -28.6359  -42.0130 N.am      6 UNK        -0.4439 
     40 CA         24.3852  -29.3418  -40.7818 C.3       6 UNK         0.0297 
     41 CB         25.1916  -28.7806  -39.5886 C.3       6 UNK        -0.2006 
     42 C          24.4517  -30.8804  -40.9237 C.2       6 UNK         0.4892 
     43 O          24.0599  -31.4077  -41.9677 O.2       6 UNK        -0.5089 
     44 N          24.9287  -31.5680  -39.8738 N.am      7 UNK        -0.4243 
     45 CA         25.1533  -33.0149  -39.7308 C.3       7 UNK         0.0196 
     46 CB         26.1734  -33.5365  -40.7633 C.3       7 UNK        -0.2007 
     47 C          23.8629  -33.8506  -39.7347 C.2       7 UNK         0.5020 
     48 O          23.5587  -34.5035  -38.7368 O.2       7 UNK        -0.5147 
     49 N          23.1180  -33.7989  -40.8430 N.am      8 UNK        -0.4734 
     50 CA         21.8047  -34.4287  -41.0127 C.3       8 UNK         0.0238 
     51 CB         21.6246  -34.7959  -42.4960 C.3       8 UNK        -0.1912 
     52 C          20.6515  -33.5317  -40.5211 C.2       8 UNK         0.5038 
     53 O          19.4956  -33.9541  -40.5683 O.2       8 UNK        -0.5046 
     54 N          20.9780  -32.3138  -40.0808 N.am      9 UNK        -0.4200 
     55 CA         20.0627  -31.2732  -39.6121 C.3       9 UNK         0.0839 
     56 C          20.7577  -30.3712  -38.5573 C.2       9 UNK         0.5513 
     57 N          19.9945  -29.5622  -37.8356 N.am      9 UNK        -0.7519 
     58 O          21.9764  -30.3931  -38.3885 O.2       9 UNK        -0.4960 
     59 C59        19.4430  -30.4711  -40.7904 C.3       10 UNK        -0.0876 
     60 S60        20.6885  -29.6601  -41.8547 S.3       10 UNK        -0.2414 
     61 C61        20.7830  -30.8125  -43.2581 C.3       10 UNK         0.0169 
     62 H62        13.0245  -25.6359  -44.3578 H         1 UNK         0.0903 
     63 H63        14.0379  -24.2393  -43.9857 H         1 UNK         0.0903 
     64 H64        13.8753  -24.7936  -45.6542 H         1 UNK         0.0903 
     65 H65        14.0159  -27.5589  -43.7857 H         1 UNK         0.3096 
     66 H66        16.7470  -28.1727  -44.5468 H         1 UNK         0.1121 
     67 H67        16.1314  -30.4321  -43.3937 H         1 UNK         0.0849 
     68 H68        14.5243  -29.7914  -43.2146 H         1 UNK         0.0849 
     69 H69        16.4437  -31.5029  -47.0030 H         1 UNK         0.0865 
     70 H70        16.4284  -32.1585  -45.3882 H         1 UNK         0.0865 
     71 H71        18.3295  -31.7890  -43.9983 H         1 UNK         0.1346 
     72 H72        21.2669  -28.8702  -45.0314 H         1 UNK         0.1412 
     73 H73        17.6227  -29.1255  -47.2899 H         1 UNK         0.1426 
     74 H74        20.9822  -27.8315  -47.4298 H         1 UNK         0.0716 
     75 H75        19.3607  -27.6533  -48.0387 H         1 UNK         0.0716 
     76 H76        21.8729  -26.8846  -45.3781 H         1 UNK         0.0695 
     77 H77        21.9814  -25.2514  -45.9312 H         1 UNK         0.0695 
     78 H78        20.9104  -24.3556  -43.9644 H         1 UNK         0.0983 
     79 H79        19.8565  -27.0002  -43.5000 H         1 UNK         0.3095 
     80 H80        18.9396  -27.3422  -40.9589 H         1 UNK         0.0454 
     81 H81        17.1711  -24.8443  -40.7114 H         1 UNK         0.0851 
     82 H82        16.9103  -26.3697  -39.8668 H         1 UNK         0.0851 
     83 H83        18.3278  -25.4020  -39.5084 H         1 UNK         0.0851 
     84 H84        17.5609  -26.3474  -43.3168 H         1 UNK         0.2976 
     85 H85        23.2099  -23.8786  -44.1936 H         1 UNK         0.3116 
     86 H86        24.6340  -24.2097  -41.8287 H         1 UNK         0.0646 
     87 H87        26.4517  -23.0025  -43.0573 H         1 UNK         0.0847 
     88 H88        24.8858  -22.2713  -43.3530 H         1 UNK         0.0847 
     89 H89        25.6295  -23.2969  -44.5821 H         1 UNK         0.0847 
     90 H90        24.5848  -26.4463  -44.4361 H         1 UNK         0.3040 
     91 H91        27.1307  -27.7163  -44.1102 H         1 UNK         0.1015 
     92 H92        25.6988  -28.0630  -46.1174 H         1 UNK         0.0786 
     93 H93        24.4507  -28.8223  -45.1264 H         1 UNK         0.0786 
     94 H94        26.0148  -29.5983  -45.3267 H         1 UNK         0.0786 
     95 H95        24.0761  -27.9622  -42.3445 H         1 UNK         0.3172 
     96 H96        23.3367  -29.0991  -40.6077 H         1 UNK         0.0595 
     97 H97        24.8013  -29.1436  -38.6369 H         1 UNK         0.0839 
     98 H98        25.1307  -27.6925  -39.5555 H         1 UNK         0.0839 
     99 H99        26.2475  -29.0481  -39.6474 H         1 UNK         0.0839 
    100 H100       25.1741  -31.0246  -39.0578 H         1 UNK         0.2998 
    101 H101       25.6023  -33.1449  -38.7446 H         1 UNK         0.0822 
    102 H102       27.1201  -33.0017  -40.6860 H         1 UNK         0.0787 
    103 H103       26.3843  -34.5943  -40.6012 H         1 UNK         0.0787 
    104 H104       25.8164  -33.4314  -41.7882 H         1 UNK         0.0787 
    105 H105       23.4257  -33.1589  -41.5728 H         1 UNK         0.3055 
    106 H106       21.7648  -35.3490  -40.4254 H         1 UNK         0.1106 
    107 H107       20.6563  -35.2669  -42.6715 H         1 UNK         0.0828 
    108 H108       21.6845  -33.9197  -43.1417 H         1 UNK         0.0828 
    109 H109       22.3884  -35.5021  -42.8220 H         1 UNK         0.0828 
    110 H110       21.9545  -32.0583  -40.0358 H         1 UNK         0.2931 
    111 H111       19.2503  -31.7729  -39.0807 H         1 UNK         0.0412 
    112 H112       20.4297  -28.9682  -37.1472 H         1 UNK         0.3472 
    113 H113       18.9942  -29.5380  -37.9568 H         1 UNK         0.3472 
    114 H114       18.7702  -29.7043  -40.4067 H         1 UNK         0.0970 
    115 H115       18.8138  -31.1237  -41.3970 H         1 UNK         0.0970 
    116 H116       21.8163  -30.8546  -43.6059 H         1 UNK         0.0612 
    117 H117       20.5276  -31.8229  -42.9410 H         1 UNK         0.0612 
@<TRIPOS>BOND
     1    1    2 1    
     2    1   62 1    
     3    1   63 1    
     4    1   64 1    
     5    2    3 2    
     6    2    4 am   BACKBONE|DICT|INTERRES
     7    4    5 1    
     8    4   65 1    
     9    5    6 1    
    10    5   25 1    
    11    5   66 1    
    12    6    7 1    
    13    6   67 1    
    14    6   68 1    
    15    7    8 1    
    16    8    9 1    
    17    8   69 1    
    18    8   70 1    
    19    9   10 ar   
    20    9   14 ar   
    21   10   11 ar   
    22   10   71 1    
    23   11   12 ar   
    24   11   61 1    
    25   12   13 ar   
    26   12   72 1    
    27   13   14 ar   
    28   13   15 1    
    29   14   73 1    
    30   15   16 1    
    31   15   74 1    
    32   15   75 1    
    33   16   17 1    
    34   17   18 1    
    35   17   76 1    
    36   17   77 1    
    37   18   19 1    
    38   18   27 1    
    39   18   78 1    
    40   19   20 am   BACKBONE|DICT|INTERRES
    41   19   79 1    
    42   20   21 2    
    43   20   22 1    
    44   22   23 1    
    45   22   24 1    
    46   22   80 1    
    47   23   81 1    
    48   23   82 1    
    49   23   83 1    
    50   24   25 am   BACKBONE|DICT|INTERRES
    51   24   84 1    
    52   25   26 2    
    53   27   28 2    
    54   27   29 am   BACKBONE|DICT|INTERRES
    55   29   30 1    
    56   29   85 1    
    57   30   31 1    
    58   30   32 1    
    59   30   86 1    
    60   31   87 1    
    61   31   88 1    
    62   31   89 1    
    63   32   33 2    
    64   32   34 am   BACKBONE|DICT|INTERRES
    65   34   35 1    
    66   34   90 1    
    67   35   36 1    
    68   35   37 1    
    69   35   91 1    
    70   36   92 1    
    71   36   93 1    
    72   36   94 1    
    73   37   38 2    
    74   37   39 am   BACKBONE|DICT|INTERRES
    75   39   40 1    
    76   39   95 1    
    77   40   41 1    
    78   40   42 1    
    79   40   96 1    
    80   41   97 1    
    81   41   98 1    
    82   41   99 1    
    83   42   43 2    
    84   42   44 am   BACKBONE|DICT|INTERRES
    85   44   45 1    
    86   44  100 1    
    87   45   46 1    
    88   45   47 1    
    89   45  101 1    
    90   46  102 1    
    91   46  103 1    
    92   46  104 1    
    93   47   48 2    
    94   47   49 am   BACKBONE|DICT|INTERRES
    95   49   50 1    
    96   49  105 1    
    97   50   51 1    
    98   50   52 1    
    99   50  106 1    
   100   51  107 1    
   101   51  108 1    
   102   51  109 1    
   103   52   53 2    
   104   52   54 am   BACKBONE|DICT|INTERRES
   105   54   55 1    
   106   54  110 1    
   107   55   56 1    
   108   55   59 1    
   109   55  111 1    
   110   56   57 am   BACKBONE|DICT|INTERRES
   111   56   58 2    
   112   57  112 1    
   113   57  113 1    
   114   59   60 1    
   115   59  114 1    
   116   59  115 1    
   117   60   61 1    
   118   61  116 1    
   119   61  117 1    
@<TRIPOS>SUBSTRUCTURE
     1 UNK         1 GROUP             0       ****    0 ROOT    
