@<TRIPOS>MOLECULE
3R8
117   119    1
SMALL
USER_CHARGES


@<TRIPOS>ATOM
      1 CA         17.1734  -22.5059  -41.3762 C.3       0 UNK        -0.2013 
      2 C          17.6690  -22.9832  -42.7330 C.2       0 UNK         0.4866 
      3 O          18.2459  -22.1978  -43.4863 O.2       0 UNK        -0.5176 
      4 N          17.4408  -24.2623  -43.0534 N.am      1 UNK        -0.4884 
      5 CA         17.9329  -24.9290  -44.2629 C.3       1 UNK         0.0853 
      6 C6         17.1538  -26.2390  -44.5590 C.3       10 UNK        -0.0849 
      7 S7         16.9906  -27.3616  -43.1259 S.3       10 UNK        -0.2776 
      8 C8         15.8008  -28.5873  -43.7585 C.3       10 UNK         0.0316 
      9 C9         16.4776  -29.9282  -43.9920 C.ar      10 UNK        -0.0863 
     10 C10        16.3183  -30.9694  -43.0719 C.ar      10 UNK        -0.1009 
     11 C11        16.9541  -32.2012  -43.2604 C.ar      10 UNK        -0.0712 
     12 C12        17.7669  -32.3727  -44.3888 C.ar      10 UNK        -0.0894 
     13 C13        17.9617  -31.3294  -45.2988 C.ar      10 UNK        -0.0745 
     14 C14        17.2858  -30.1202  -45.1143 C.ar      10 UNK        -0.0972 
     15 C15        18.9598  -31.4894  -46.4393 C.3       10 UNK         0.0209 
     16 S16        20.3169  -30.2620  -46.3840 S.3       10 UNK        -0.2568 
     17 C17        20.7320  -30.1661  -44.6032 C.3       10 UNK        -0.0983 
     18 CA         21.6987  -29.0082  -44.2466 C.3       3 UNK         0.0876 
     19 N          21.3482  -27.7384  -44.8874 N.am      3 UNK        -0.4424 
     20 C          22.1320  -26.6518  -44.8995 C.2       2 UNK         0.4918 
     21 O          23.2603  -26.6130  -44.4096 O.2       2 UNK        -0.4875 
     22 CA         21.5482  -25.3812  -45.5409 C.3       2 UNK         0.0481 
     23 CB         21.9016  -25.3287  -47.0354 C.3       2 UNK        -0.1831 
     24 N          20.0972  -25.2314  -45.3748 N.am      2 UNK        -0.4498 
     25 C          19.4577  -25.1610  -44.1972 C.2       1 UNK         0.5027 
     26 O          20.0195  -25.2915  -43.1058 O.2       1 UNK        -0.4969 
     27 C          21.7884  -28.8288  -42.7189 C.2       3 UNK         0.5005 
     28 O          22.8097  -29.1734  -42.1265 O.2       3 UNK        -0.5279 
     29 N          20.7422  -28.2381  -42.1186 N.am      4 UNK        -0.4463 
     30 CA         20.6579  -27.9518  -40.6842 C.3       4 UNK         0.0283 
     31 CB         19.2437  -27.4732  -40.3251 C.3       4 UNK        -0.1875 
     32 C          21.7084  -26.9342  -40.2166 C.2       4 UNK         0.4949 
     33 O          22.2594  -27.0994  -39.1294 O.2       4 UNK        -0.5039 
     34 N          22.0158  -25.9401  -41.0621 N.am      5 UNK        -0.4663 
     35 CA         23.0981  -24.9726  -40.8498 C.3       5 UNK         0.0242 
     36 CB         23.0290  -23.8845  -41.9325 C.3       5 UNK        -0.1982 
     37 C          24.4972  -25.6196  -40.8148 C.2       5 UNK         0.5017 
     38 O          25.3694  -25.1283  -40.0983 O.2       5 UNK        -0.5012 
     39 N          24.6736  -26.7219  -41.5563 N.am      6 UNK        -0.4439 
     40 CA         25.8720  -27.5649  -41.5533 C.3       6 UNK         0.0297 
     41 CB         26.0532  -28.1651  -42.9587 C.3       6 UNK        -0.2006 
     42 C          25.8235  -28.6798  -40.4867 C.2       6 UNK         0.4892 
     43 O          26.7899  -29.4363  -40.3813 O.2       6 UNK        -0.5089 
     44 N          24.7166  -28.7724  -39.7311 N.am      7 UNK        -0.4243 
     45 CA         24.3895  -29.7939  -38.7285 C.3       7 UNK         0.0196 
     46 CB         25.3400  -29.7010  -37.5156 C.3       7 UNK        -0.2007 
     47 C          24.2949  -31.2149  -39.3215 C.2       7 UNK         0.5020 
     48 O          24.7344  -32.1766  -38.6878 O.2       7 UNK        -0.5147 
     49 N          23.7244  -31.3236  -40.5264 N.am      8 UNK        -0.4734 
     50 CA         23.5485  -32.5642  -41.2788 C.3       8 UNK         0.0238 
     51 CB         24.4301  -32.4834  -42.5384 C.3       8 UNK        -0.1912 
     52 C          22.0745  -32.7569  -41.6678 C.2       8 UNK         0.5038 
     53 O          21.2734  -31.8268  -41.5630 O.2       8 UNK        -0.5046 
     54 N          21.7546  -33.9618  -42.1456 N.am      9 UNK        -0.4200 
     55 CA         20.4740  -34.3414  -42.7472 C.3       9 UNK         0.0839 
     56 C          20.6909  -35.6790  -43.4983 C.2       9 UNK         0.5513 
     57 N          20.3572  -35.7456  -44.7796 N.am      9 UNK        -0.7519 
     58 O          21.1592  -36.6585  -42.9214 O.2       9 UNK        -0.4960 
     59 C59        19.3164  -34.3997  -41.7081 C.3       10 UNK        -0.0876 
     60 S60        17.6874  -34.8406  -42.4175 S.3       10 UNK        -0.2414 
     61 C61        16.7180  -33.3014  -42.2203 C.3       10 UNK         0.0169 
     62 H62        16.4714  -21.6818  -41.5010 H         1 UNK         0.0903 
     63 H63        16.6705  -23.2994  -40.8237 H         1 UNK         0.0903 
     64 H64        18.0109  -22.1530  -40.7750 H         1 UNK         0.0903 
     65 H65        16.9911  -24.8759  -42.3881 H         1 UNK         0.3096 
     66 H66        17.7553  -24.2473  -45.0983 H         1 UNK         0.1121 
     67 H67        17.5988  -26.7852  -45.3928 H         1 UNK         0.0849 
     68 H68        16.1476  -25.9743  -44.8879 H         1 UNK         0.0849 
     69 H69        14.9888  -28.6911  -43.0372 H         1 UNK         0.0865 
     70 H70        15.3382  -28.2405  -44.6836 H         1 UNK         0.0865 
     71 H71        15.6958  -30.8200  -42.1999 H         1 UNK         0.1346 
     72 H72        18.2685  -33.3116  -44.5608 H         1 UNK         0.1412 
     73 H73        17.4349  -29.3107  -45.8154 H         1 UNK         0.1426 
     74 H74        18.4356  -31.3969  -47.3913 H         1 UNK         0.0716 
     75 H75        19.4014  -32.4869  -46.4277 H         1 UNK         0.0716 
     76 H76        21.1609  -31.1223  -44.2988 H         1 UNK         0.0695 
     77 H77        19.8110  -30.0555  -44.0310 H         1 UNK         0.0695 
     78 H78        22.6937  -29.2856  -44.6020 H         1 UNK         0.0983 
     79 H79        20.4474  -27.6964  -45.3391 H         1 UNK         0.3095 
     80 H80        22.0182  -24.5249  -45.0537 H         1 UNK         0.0454 
     81 H81        21.4319  -26.1409  -47.5919 H         1 UNK         0.0851 
     82 H82        22.9791  -25.4136  -47.1842 H         1 UNK         0.0851 
     83 H83        21.5895  -24.3865  -47.4860 H         1 UNK         0.0851 
     84 H84        19.5622  -25.1212  -46.2246 H         1 UNK         0.2976 
     85 H85        19.9625  -27.9353  -42.6851 H         1 UNK         0.3116 
     86 H86        20.8451  -28.8877  -40.1529 H         1 UNK         0.0646 
     87 H87        18.4960  -28.2268  -40.5728 H         1 UNK         0.0847 
     88 H88        18.9828  -26.5529  -40.8490 H         1 UNK         0.0847 
     89 H89        19.1590  -27.2744  -39.2560 H         1 UNK         0.0847 
     90 H90        21.4585  -25.8354  -41.9066 H         1 UNK         0.3040 
     91 H91        22.9326  -24.5009  -39.8787 H         1 UNK         0.1015 
     92 H92        23.7756  -23.1095  -41.7538 H         1 UNK         0.0786 
     93 H93        22.0528  -23.3990  -41.9479 H         1 UNK         0.0786 
     94 H94        23.2159  -24.2931  -42.9254 H         1 UNK         0.0786 
     95 H95        23.9012  -27.0486  -42.1254 H         1 UNK         0.3172 
     96 H96        26.7456  -26.9470  -41.3366 H         1 UNK         0.0595 
     97 H97        25.2314  -28.8314  -43.2228 H         1 UNK         0.0839 
     98 H98        26.9748  -28.7450  -43.0225 H         1 UNK         0.0839 
     99 H99        26.1077  -27.3859  -43.7192 H         1 UNK         0.0839 
    100 H100       23.9797  -28.0987  -39.9014 H         1 UNK         0.2998 
    101 H101       23.3859  -29.5541  -38.3743 H         1 UNK         0.0822 
    102 H102       25.3662  -28.6897  -37.1098 H         1 UNK         0.0787 
    103 H103       25.0141  -30.3629  -36.7123 H         1 UNK         0.0787 
    104 H104       26.3599  -29.9853  -37.7763 H         1 UNK         0.0787 
    105 H105       23.3476  -30.4911  -40.9813 H         1 UNK         0.3055 
    106 H106       23.8532  -33.4245  -40.6787 H         1 UNK         0.1106 
    107 H107       24.1320  -31.6555  -43.1836 H         1 UNK         0.0828 
    108 H108       24.3700  -33.3981  -43.1292 H         1 UNK         0.0828 
    109 H109       25.4784  -32.3378  -42.2764 H         1 UNK         0.0828 
    110 H110       22.4622  -34.6829  -42.1933 H         1 UNK         0.2931 
    111 H111       20.2391  -33.5699  -43.4815 H         1 UNK         0.0412 
    112 H112       20.4915  -36.6142  -45.2738 H         1 UNK         0.3472 
    113 H113       19.9752  -34.9503  -45.2646 H         1 UNK         0.3472 
    114 H114       19.5523  -35.1257  -40.9282 H         1 UNK         0.0970 
    115 H115       19.2248  -33.4401  -41.1986 H         1 UNK         0.0970 
    116 H116       16.8917  -32.9006  -41.2205 H         1 UNK         0.0612 
    117 H117       15.6624  -33.5737  -42.2583 H         1 UNK         0.0612 
@<TRIPOS>BOND
     1    1    2 1    
     2    1   62 1    
     3    1   63 1    
     4    1   64 1    
     5    2    3 2    
     6    2    4 am   BACKBONE|DICT|INTERRES
     7    4    5 1    
     8    4   65 1    
     9    5    6 1    
    10    5   25 1    
    11    5   66 1    
    12    6    7 1    
    13    6   67 1    
    14    6   68 1    
    15    7    8 1    
    16    8    9 1    
    17    8   69 1    
    18    8   70 1    
    19    9   10 ar   
    20    9   14 ar   
    21   10   11 ar   
    22   10   71 1    
    23   11   12 ar   
    24   11   61 1    
    25   12   13 ar   
    26   12   72 1    
    27   13   14 ar   
    28   13   15 1    
    29   14   73 1    
    30   15   16 1    
    31   15   74 1    
    32   15   75 1    
    33   16   17 1    
    34   17   18 1    
    35   17   76 1    
    36   17   77 1    
    37   18   19 1    
    38   18   27 1    
    39   18   78 1    
    40   19   20 am   BACKBONE|DICT|INTERRES
    41   19   79 1    
    42   20   21 2    
    43   20   22 1    
    44   22   23 1    
    45   22   24 1    
    46   22   80 1    
    47   23   81 1    
    48   23   82 1    
    49   23   83 1    
    50   24   25 am   BACKBONE|DICT|INTERRES
    51   24   84 1    
    52   25   26 2    
    53   27   28 2    
    54   27   29 am   BACKBONE|DICT|INTERRES
    55   29   30 1    
    56   29   85 1    
    57   30   31 1    
    58   30   32 1    
    59   30   86 1    
    60   31   87 1    
    61   31   88 1    
    62   31   89 1    
    63   32   33 2    
    64   32   34 am   BACKBONE|DICT|INTERRES
    65   34   35 1    
    66   34   90 1    
    67   35   36 1    
    68   35   37 1    
    69   35   91 1    
    70   36   92 1    
    71   36   93 1    
    72   36   94 1    
    73   37   38 2    
    74   37   39 am   BACKBONE|DICT|INTERRES
    75   39   40 1    
    76   39   95 1    
    77   40   41 1    
    78   40   42 1    
    79   40   96 1    
    80   41   97 1    
    81   41   98 1    
    82   41   99 1    
    83   42   43 2    
    84   42   44 am   BACKBONE|DICT|INTERRES
    85   44   45 1    
    86   44  100 1    
    87   45   46 1    
    88   45   47 1    
    89   45  101 1    
    90   46  102 1    
    91   46  103 1    
    92   46  104 1    
    93   47   48 2    
    94   47   49 am   BACKBONE|DICT|INTERRES
    95   49   50 1    
    96   49  105 1    
    97   50   51 1    
    98   50   52 1    
    99   50  106 1    
   100   51  107 1    
   101   51  108 1    
   102   51  109 1    
   103   52   53 2    
   104   52   54 am   BACKBONE|DICT|INTERRES
   105   54   55 1    
   106   54  110 1    
   107   55   56 1    
   108   55   59 1    
   109   55  111 1    
   110   56   57 am   BACKBONE|DICT|INTERRES
   111   56   58 2    
   112   57  112 1    
   113   57  113 1    
   114   59   60 1    
   115   59  114 1    
   116   59  115 1    
   117   60   61 1    
   118   61  116 1    
   119   61  117 1    
@<TRIPOS>SUBSTRUCTURE
     1 UNK         1 GROUP             0       ****    0 ROOT    
