@<TRIPOS>MOLECULE
3R8
117   119    1
SMALL
USER_CHARGES


@<TRIPOS>ATOM
      1 CA         21.4085  -24.3551  -41.6039 C.3       0 UNK        -0.2013 
      2 C          20.2225  -24.0712  -42.5143 C.2       0 UNK         0.4866 
      3 O          19.5617  -23.0442  -42.3557 O.2       0 UNK        -0.5176 
      4 N          19.9603  -24.9723  -43.4658 N.am      1 UNK        -0.4884 
      5 CA         18.9443  -24.8409  -44.5129 C.3       1 UNK         0.0853 
      6 C6         17.9108  -26.0049  -44.4491 C.3       10 UNK        -0.0849 
      7 S7         16.9829  -26.0602  -42.8810 S.3       10 UNK        -0.2776 
      8 C8         15.7059  -27.3065  -43.2592 C.3       10 UNK         0.0316 
      9 C9         16.2863  -28.7079  -43.4050 C.ar      10 UNK        -0.0863 
     10 C10        16.6890  -29.4209  -42.2705 C.ar      10 UNK        -0.1009 
     11 C11        17.2273  -30.7075  -42.3822 C.ar      10 UNK        -0.0712 
     12 C12        17.3169  -31.2918  -43.6508 C.ar      10 UNK        -0.0894 
     13 C13        16.9490  -30.5817  -44.7953 C.ar      10 UNK        -0.0745 
     14 C14        16.4205  -29.2937  -44.6684 C.ar      10 UNK        -0.0972 
     15 C15        17.1900  -31.1984  -46.1660 C.3       10 UNK         0.0209 
     16 S16        18.5816  -30.4298  -47.0716 S.3       10 UNK        -0.2568 
     17 C17        19.8449  -30.0741  -45.7877 C.3       10 UNK        -0.0983 
     18 CA         20.8766  -28.9969  -46.2193 C.3       3 UNK         0.0876 
     19 N          20.2193  -27.8506  -46.8429 N.am      3 UNK        -0.4424 
     20 C          20.7398  -27.0256  -47.7593 C.2       2 UNK         0.4918 
     21 O          21.8353  -27.1868  -48.2971 O.2       2 UNK        -0.4875 
     22 CA         19.8828  -25.7885  -48.1038 C.3       2 UNK         0.0481 
     23 CB         18.9148  -26.1045  -49.2548 C.3       2 UNK        -0.1831 
     24 N          19.1245  -25.3324  -46.9312 N.am      2 UNK        -0.4498 
     25 C          19.7088  -24.7817  -45.8558 C.2       1 UNK         0.5027 
     26 O          20.8421  -24.2924  -45.8950 O.2       1 UNK        -0.4969 
     27 C          21.6861  -28.5066  -44.9969 C.2       3 UNK         0.5005 
     28 O          21.3816  -27.4444  -44.4400 O.2       3 UNK        -0.5279 
     29 N          22.6730  -29.3029  -44.5630 N.am      4 UNK        -0.4463 
     30 CA         23.6160  -29.0010  -43.4748 C.3       4 UNK         0.0283 
     31 CB         24.8360  -29.9328  -43.6057 C.3       4 UNK        -0.1875 
     32 C          23.0066  -29.0414  -42.0540 C.2       4 UNK         0.4949 
     33 O          23.5997  -29.6205  -41.1453 O.2       4 UNK        -0.5039 
     34 N          21.8496  -28.3966  -41.8645 N.am      5 UNK        -0.4663 
     35 CA         21.0767  -28.3369  -40.6143 C.3       5 UNK         0.0242 
     36 CB         19.6739  -27.7939  -40.9253 C.3       5 UNK        -0.1982 
     37 C          21.7407  -27.5581  -39.4621 C.2       5 UNK         0.5017 
     38 O          21.2039  -27.5518  -38.3541 O.2       5 UNK        -0.5012 
     39 N          22.9036  -26.9455  -39.7231 N.am      6 UNK        -0.4439 
     40 CA         23.8194  -26.4220  -38.7070 C.3       6 UNK         0.0297 
     41 CB         24.8558  -25.5132  -39.3874 C.3       6 UNK        -0.2006 
     42 C          24.5199  -27.5412  -37.9064 C.2       6 UNK         0.4892 
     43 O          24.9950  -27.2783  -36.8009 O.2       6 UNK        -0.5089 
     44 N          24.5642  -28.7570  -38.4669 N.am      7 UNK        -0.4243 
     45 CA         25.0443  -29.9811  -37.8360 C.3       7 UNK         0.0196 
     46 CB         26.4873  -30.2655  -38.3034 C.3       7 UNK        -0.2007 
     47 C          24.0366  -31.0963  -38.1659 C.2       7 UNK         0.5020 
     48 O          22.8288  -30.8580  -38.0961 O.2       7 UNK        -0.5147 
     49 N          24.5257  -32.2901  -38.5222 N.am      8 UNK        -0.4734 
     50 CA         23.7061  -33.3842  -39.0419 C.3       8 UNK         0.0238 
     51 CB         24.4490  -34.7173  -38.8467 C.3       8 UNK        -0.1912 
     52 C          23.4000  -33.1275  -40.5260 C.2       8 UNK         0.5038 
     53 O          24.3287  -33.1258  -41.3374 O.2       8 UNK        -0.5046 
     54 N          22.1198  -32.9084  -40.8483 N.am      9 UNK        -0.4200 
     55 CA         21.6426  -32.6262  -42.2109 C.3       9 UNK         0.0839 
     56 C          21.6324  -33.8392  -43.1862 C.2       9 UNK         0.5513 
     57 N          21.8289  -35.0687  -42.7251 N.am      9 UNK        -0.7519 
     58 O          21.4567  -33.6541  -44.3875 O.2       9 UNK        -0.4960 
     59 C59        20.2898  -31.8702  -42.2030 C.3       10 UNK        -0.0876 
     60 S60        18.9282  -32.7633  -41.3727 S.3       10 UNK        -0.2414 
     61 C61        17.7065  -31.4233  -41.1157 C.3       10 UNK         0.0169 
     62 H62        21.9775  -25.2210  -41.9411 H         1 UNK         0.0903 
     63 H63        21.0666  -24.5433  -40.5865 H         1 UNK         0.0903 
     64 H64        22.0815  -23.4984  -41.5842 H         1 UNK         0.0903 
     65 H65        20.5854  -25.7605  -43.6054 H         1 UNK         0.3096 
     66 H66        18.4099  -23.8933  -44.4177 H         1 UNK         0.1121 
     67 H67        17.1748  -25.9177  -45.2496 H         1 UNK         0.0849 
     68 H68        18.4093  -26.9679  -44.5750 H         1 UNK         0.0849 
     69 H69        14.9694  -27.3076  -42.4543 H         1 UNK         0.0865 
     70 H70        15.1649  -27.0135  -44.1603 H         1 UNK         0.0865 
     71 H71        16.6007  -28.9596  -41.2961 H         1 UNK         0.1346 
     72 H72        17.7167  -32.2893  -43.7628 H         1 UNK         0.1412 
     73 H73        16.1353  -28.7439  -45.5550 H         1 UNK         0.1426 
     74 H74        16.2846  -31.1095  -46.7679 H         1 UNK         0.0716 
     75 H75        17.3877  -32.2676  -46.0748 H         1 UNK         0.0716 
     76 H76        20.3508  -31.0086  -45.5393 H         1 UNK         0.0695 
     77 H77        19.3480  -29.7421  -44.8764 H         1 UNK         0.0695 
     78 H78        21.5670  -29.4384  -46.9415 H         1 UNK         0.0983 
     79 H79        19.3139  -27.6271  -46.4658 H         1 UNK         0.3095 
     80 H80        20.5512  -24.9881  -48.4281 H         1 UNK         0.0454 
     81 H81        19.4609  -26.4223  -50.1441 H         1 UNK         0.0851 
     82 H82        18.3287  -25.2285  -49.5327 H         1 UNK         0.0851 
     83 H83        18.2214  -26.9060  -48.9965 H         1 UNK         0.0851 
     84 H84        18.1648  -25.6387  -46.8660 H         1 UNK         0.2976 
     85 H85        22.8284  -30.1762  -45.0465 H         1 UNK         0.3116 
     86 H86        23.9714  -27.9792  -43.6234 H         1 UNK         0.0646 
     87 H87        25.6026  -29.6824  -42.8710 H         1 UNK         0.0847 
     88 H88        25.2993  -29.8501  -44.5889 H         1 UNK         0.0847 
     89 H89        24.5658  -30.9775  -43.4458 H         1 UNK         0.0847 
     90 H90        21.4532  -27.9346  -42.6802 H         1 UNK         0.3040 
     91 H91        20.9724  -29.3568  -40.2407 H         1 UNK         0.1015 
     92 H92        19.0176  -27.8800  -40.0585 H         1 UNK         0.0786 
     93 H93        19.2084  -28.3457  -41.7412 H         1 UNK         0.0786 
     94 H94        19.6990  -26.7431  -41.2090 H         1 UNK         0.0786 
     95 H95        23.2592  -27.0115  -40.6650 H         1 UNK         0.3172 
     96 H96        23.2435  -25.8191  -38.0017 H         1 UNK         0.0595 
     97 H97        25.4645  -26.0611  -40.1078 H         1 UNK         0.0839 
     98 H98        25.5348  -25.0795  -38.6518 H         1 UNK         0.0839 
     99 H99        24.3765  -24.6853  -39.9104 H         1 UNK         0.0839 
    100 H100       24.1104  -28.9017  -39.3652 H         1 UNK         0.2998 
    101 H101       25.0406  -29.8668  -36.7500 H         1 UNK         0.0822 
    102 H102       27.1410  -29.4204  -38.0862 H         1 UNK         0.0787 
    103 H103       26.5351  -30.4502  -39.3779 H         1 UNK         0.0787 
    104 H104       26.9105  -31.1304  -37.7913 H         1 UNK         0.0787 
    105 H105       25.5267  -32.3975  -38.6010 H         1 UNK         0.3055 
    106 H106       22.7700  -33.4338  -38.4804 H         1 UNK         0.1106 
    107 H107       25.4048  -34.7324  -39.3720 H         1 UNK         0.0828 
    108 H108       24.6438  -34.9114  -37.7918 H         1 UNK         0.0828 
    109 H109       23.8569  -35.5517  -39.2249 H         1 UNK         0.0828 
    110 H110       21.4115  -32.9271  -40.1292 H         1 UNK         0.2931 
    111 H111       22.3647  -31.9343  -42.6476 H         1 UNK         0.0412 
    112 H112       21.9703  -35.2293  -41.7412 H         1 UNK         0.3472 
    113 H113       21.8257  -35.8441  -43.3691 H         1 UNK         0.3472 
    114 H114       20.4145  -30.9092  -41.7115 H         1 UNK         0.0970 
    115 H115       19.9920  -31.6300  -43.2229 H         1 UNK         0.0970 
    116 H116       18.1445  -30.6963  -40.4297 H         1 UNK         0.0612 
    117 H117       16.8377  -31.8437  -40.6080 H         1 UNK         0.0612 
@<TRIPOS>BOND
     1    1    2 1    
     2    1   62 1    
     3    1   63 1    
     4    1   64 1    
     5    2    3 2    
     6    2    4 am   BACKBONE|DICT|INTERRES
     7    4    5 1    
     8    4   65 1    
     9    5    6 1    
    10    5   25 1    
    11    5   66 1    
    12    6    7 1    
    13    6   67 1    
    14    6   68 1    
    15    7    8 1    
    16    8    9 1    
    17    8   69 1    
    18    8   70 1    
    19    9   10 ar   
    20    9   14 ar   
    21   10   11 ar   
    22   10   71 1    
    23   11   12 ar   
    24   11   61 1    
    25   12   13 ar   
    26   12   72 1    
    27   13   14 ar   
    28   13   15 1    
    29   14   73 1    
    30   15   16 1    
    31   15   74 1    
    32   15   75 1    
    33   16   17 1    
    34   17   18 1    
    35   17   76 1    
    36   17   77 1    
    37   18   19 1    
    38   18   27 1    
    39   18   78 1    
    40   19   20 am   BACKBONE|DICT|INTERRES
    41   19   79 1    
    42   20   21 2    
    43   20   22 1    
    44   22   23 1    
    45   22   24 1    
    46   22   80 1    
    47   23   81 1    
    48   23   82 1    
    49   23   83 1    
    50   24   25 am   BACKBONE|DICT|INTERRES
    51   24   84 1    
    52   25   26 2    
    53   27   28 2    
    54   27   29 am   BACKBONE|DICT|INTERRES
    55   29   30 1    
    56   29   85 1    
    57   30   31 1    
    58   30   32 1    
    59   30   86 1    
    60   31   87 1    
    61   31   88 1    
    62   31   89 1    
    63   32   33 2    
    64   32   34 am   BACKBONE|DICT|INTERRES
    65   34   35 1    
    66   34   90 1    
    67   35   36 1    
    68   35   37 1    
    69   35   91 1    
    70   36   92 1    
    71   36   93 1    
    72   36   94 1    
    73   37   38 2    
    74   37   39 am   BACKBONE|DICT|INTERRES
    75   39   40 1    
    76   39   95 1    
    77   40   41 1    
    78   40   42 1    
    79   40   96 1    
    80   41   97 1    
    81   41   98 1    
    82   41   99 1    
    83   42   43 2    
    84   42   44 am   BACKBONE|DICT|INTERRES
    85   44   45 1    
    86   44  100 1    
    87   45   46 1    
    88   45   47 1    
    89   45  101 1    
    90   46  102 1    
    91   46  103 1    
    92   46  104 1    
    93   47   48 2    
    94   47   49 am   BACKBONE|DICT|INTERRES
    95   49   50 1    
    96   49  105 1    
    97   50   51 1    
    98   50   52 1    
    99   50  106 1    
   100   51  107 1    
   101   51  108 1    
   102   51  109 1    
   103   52   53 2    
   104   52   54 am   BACKBONE|DICT|INTERRES
   105   54   55 1    
   106   54  110 1    
   107   55   56 1    
   108   55   59 1    
   109   55  111 1    
   110   56   57 am   BACKBONE|DICT|INTERRES
   111   56   58 2    
   112   57  112 1    
   113   57  113 1    
   114   59   60 1    
   115   59  114 1    
   116   59  115 1    
   117   60   61 1    
   118   61  116 1    
   119   61  117 1    
@<TRIPOS>SUBSTRUCTURE
     1 UNK         1 GROUP             0       ****    0 ROOT    
