@<TRIPOS>MOLECULE
3R8
117   119    1
SMALL
USER_CHARGES


@<TRIPOS>ATOM
      1 CA         17.4844  -22.5263  -48.2105 C.3       0 UNK        -0.2013 
      2 C          18.4963  -23.5529  -47.7234 C.2       0 UNK         0.4866 
      3 O          19.7005  -23.3013  -47.7824 O.2       0 UNK        -0.5176 
      4 N          18.0189  -24.7110  -47.2502 N.am      1 UNK        -0.4884 
      5 CA         18.8439  -25.7780  -46.6748 C.3       1 UNK         0.0853 
      6 C6         18.0665  -27.1185  -46.6307 C.3       10 UNK        -0.0849 
      7 S7         19.1808  -28.5614  -46.6230 S.3       10 UNK        -0.2776 
      8 C8         18.0005  -29.9351  -46.4393 C.3       10 UNK         0.0316 
      9 C9         17.6560  -30.2076  -44.9811 C.ar      10 UNK        -0.0863 
     10 C10        18.4297  -31.1016  -44.2340 C.ar      10 UNK        -0.1009 
     11 C11        18.0966  -31.3941  -42.9079 C.ar      10 UNK        -0.0712 
     12 C12        16.9791  -30.7882  -42.3291 C.ar      10 UNK        -0.0894 
     13 C13        16.2198  -29.8635  -43.0533 C.ar      10 UNK        -0.0745 
     14 C14        16.5543  -29.5880  -44.3832 C.ar      10 UNK        -0.0972 
     15 C15        15.0524  -29.1455  -42.3906 C.3       10 UNK         0.0209 
     16 S16        15.5799  -28.1681  -40.9436 S.3       10 UNK        -0.2568 
     17 C17        16.7605  -26.9823  -41.6790 C.3       10 UNK        -0.0983 
     18 CA         18.2431  -27.4201  -41.5509 C.3       3 UNK         0.0876 
     19 N          19.1141  -26.5638  -42.3527 N.am      3 UNK        -0.4424 
     20 C          20.4177  -26.7674  -42.5769 C.2       2 UNK         0.4918 
     21 O          21.0565  -27.7063  -42.1023 O.2       2 UNK        -0.4875 
     22 CA         21.0954  -25.7743  -43.5418 C.3       2 UNK         0.0481 
     23 CB         22.6213  -25.9682  -43.6222 C.3       2 UNK        -0.1831 
     24 N          20.5237  -25.8938  -44.8860 N.am      2 UNK        -0.4498 
     25 C          19.3459  -25.3835  -45.2702 C.2       1 UNK         0.5027 
     26 O          18.6381  -24.6823  -44.5398 O.2       1 UNK        -0.4969 
     27 C          18.7197  -27.4870  -40.0855 C.2       3 UNK         0.5005 
     28 O          18.9306  -26.4420  -39.4639 O.2       3 UNK        -0.5279 
     29 N          18.8730  -28.7197  -39.5809 N.am      4 UNK        -0.4463 
     30 CA         19.3490  -29.0861  -38.2434 C.3       4 UNK         0.0283 
     31 CB         18.3700  -28.5990  -37.1535 C.3       4 UNK        -0.1875 
     32 C          20.8100  -28.6720  -37.9722 C.2       4 UNK         0.4949 
     33 O          21.1621  -28.4140  -36.8197 O.2       4 UNK        -0.5039 
     34 N          21.6419  -28.6381  -39.0212 N.am      5 UNK        -0.4663 
     35 CA         23.0756  -28.3729  -38.9437 C.3       5 UNK         0.0242 
     36 CB         23.3654  -26.9645  -39.4864 C.3       5 UNK        -0.1982 
     37 C          23.8213  -29.4308  -39.7614 C.2       5 UNK         0.5017 
     38 O          23.3240  -29.8692  -40.8021 O.2       5 UNK        -0.5012 
     39 N          25.0276  -29.7904  -39.3019 N.am      6 UNK        -0.4439 
     40 CA         25.8946  -30.8196  -39.8916 C.3       6 UNK         0.0297 
     41 CB         27.1288  -31.0138  -38.9962 C.3       6 UNK        -0.2006 
     42 C          26.3254  -30.5526  -41.3466 C.2       6 UNK         0.4892 
     43 O          26.6937  -31.4986  -42.0429 O.2       6 UNK        -0.5089 
     44 N          26.2424  -29.2881  -41.7856 N.am      7 UNK        -0.4243 
     45 CA         26.4818  -28.8427  -43.1600 C.3       7 UNK         0.0196 
     46 CB         26.3826  -27.3095  -43.2145 C.3       7 UNK        -0.2007 
     47 C          25.5384  -29.4800  -44.1981 C.2       7 UNK         0.5020 
     48 O          25.9442  -29.6278  -45.3514 O.2       7 UNK        -0.5147 
     49 N          24.3210  -29.8551  -43.7803 N.am      8 UNK        -0.4734 
     50 CA         23.3656  -30.6024  -44.6021 C.3       8 UNK         0.0238 
     51 CB         22.0967  -29.7656  -44.8232 C.3       8 UNK        -0.1912 
     52 C          23.0017  -31.9487  -43.9651 C.2       8 UNK         0.5038 
     53 O          22.8698  -32.9342  -44.6921 O.2       8 UNK        -0.5046 
     54 N          22.8242  -31.9706  -42.6385 N.am      9 UNK        -0.4200 
     55 CA         22.3090  -33.1258  -41.8885 C.3       9 UNK         0.0839 
     56 C          23.3959  -34.1427  -41.4396 C.2       9 UNK         0.5513 
     57 N          24.6786  -33.9119  -41.6911 N.am      9 UNK        -0.7519 
     58 O          23.0657  -35.1740  -40.8599 O.2       9 UNK        -0.4960 
     59 C59        21.4052  -32.6896  -40.7007 C.3       10 UNK        -0.0876 
     60 S60        20.1871  -31.4003  -41.1393 S.3       10 UNK        -0.2414 
     61 C61        18.9609  -32.3416  -42.0931 C.3       10 UNK         0.0169 
     62 H62        16.4597  -22.8847  -48.1132 H         1 UNK         0.0903 
     63 H63        17.5775  -21.6060  -47.6344 H         1 UNK         0.0903 
     64 H64        17.6630  -22.2914  -49.2595 H         1 UNK         0.0903 
     65 H65        17.0196  -24.8467  -47.1914 H         1 UNK         0.3096 
     66 H66        19.7126  -25.8972  -47.3273 H         1 UNK         0.1121 
     67 H67        17.3922  -27.1598  -45.7734 H         1 UNK         0.0849 
     68 H68        17.4351  -27.2140  -47.5159 H         1 UNK         0.0849 
     69 H69        17.0966  -29.7310  -47.0155 H         1 UNK         0.0865 
     70 H70        18.4397  -30.8303  -46.8825 H         1 UNK         0.0865 
     71 H71        19.2940  -31.5705  -44.6844 H         1 UNK         0.1346 
     72 H72        16.7221  -31.0052  -41.3011 H         1 UNK         0.1412 
     73 H73        15.9581  -28.8889  -44.9532 H         1 UNK         0.1426 
     74 H74        14.3162  -29.8837  -42.0700 H         1 UNK         0.0716 
     75 H75        14.5428  -28.4879  -43.0967 H         1 UNK         0.0716 
     76 H76        16.6088  -26.0100  -41.2065 H         1 UNK         0.0695 
     77 H77        16.5011  -26.8455  -42.7302 H         1 UNK         0.0695 
     78 H78        18.3434  -28.4153  -41.9858 H         1 UNK         0.0983 
     79 H79        18.6795  -25.7717  -42.8124 H         1 UNK         0.3095 
     80 H80        20.9106  -24.7662  -43.1649 H         1 UNK         0.0454 
     81 H81        22.8913  -26.9750  -43.9406 H         1 UNK         0.0851 
     82 H82        23.0829  -25.8013  -42.6493 H         1 UNK         0.0851 
     83 H83        23.0764  -25.2628  -44.3173 H         1 UNK         0.0851 
     84 H84        21.0081  -26.5111  -45.5222 H         1 UNK         0.2976 
     85 H85        18.7138  -29.5033  -40.2008 H         1 UNK         0.3116 
     86 H86        19.3442  -30.1768  -38.2178 H         1 UNK         0.0646 
     87 H87        18.3760  -27.5127  -37.0595 H         1 UNK         0.0847 
     88 H88        18.6344  -29.0092  -36.1782 H         1 UNK         0.0847 
     89 H89        17.3483  -28.9118  -37.3684 H         1 UNK         0.0847 
     90 H90        21.3027  -28.8866  -39.9445 H         1 UNK         0.3040 
     91 H91        23.4174  -28.4329  -37.9080 H         1 UNK         0.1015 
     92 H92        22.8188  -26.2054  -38.9265 H         1 UNK         0.0786 
     93 H93        23.0807  -26.8743  -40.5342 H         1 UNK         0.0786 
     94 H94        24.4264  -26.7233  -39.4124 H         1 UNK         0.0786 
     95 H95        25.3667  -29.3585  -38.4537 H         1 UNK         0.3172 
     96 H96        25.3277  -31.7525  -39.8934 H         1 UNK         0.0595 
     97 H97        27.7248  -30.1030  -38.9259 H         1 UNK         0.0839 
     98 H98        27.7779  -31.7972  -39.3906 H         1 UNK         0.0839 
     99 H99        26.8462  -31.3116  -37.9863 H         1 UNK         0.0839 
    100 H100       25.9313  -28.5861  -41.1311 H         1 UNK         0.2998 
    101 H101       27.5004  -29.1325  -43.4263 H         1 UNK         0.0822 
    102 H102       27.1224  -26.8400  -42.5659 H         1 UNK         0.0787 
    103 H103       26.5611  -26.9415  -44.2260 H         1 UNK         0.0787 
    104 H104       25.3964  -26.9586  -42.9091 H         1 UNK         0.0787 
    105 H105       24.0701  -29.6989  -42.8104 H         1 UNK         0.3055 
    106 H106       23.7936  -30.8247  -45.5821 H         1 UNK         0.1106 
    107 H107       21.3798  -30.3082  -45.4402 H         1 UNK         0.0828 
    108 H108       21.5980  -29.5285  -43.8834 H         1 UNK         0.0828 
    109 H109       22.3196  -28.8318  -45.3375 H         1 UNK         0.0828 
    110 H110       22.9419  -31.1231  -42.0896 H         1 UNK         0.2931 
    111 H111       21.6693  -33.6939  -42.5654 H         1 UNK         0.0412 
    112 H112       24.9757  -33.0680  -42.1591 H         1 UNK         0.3472 
    113 H113       25.3651  -34.5893  -41.3993 H         1 UNK         0.3472 
    114 H114       20.8740  -33.5478  -40.2850 H         1 UNK         0.0970 
    115 H115       22.0197  -32.2921  -39.8908 H         1 UNK         0.0970 
    116 H116       18.3460  -32.9338  -41.4137 H         1 UNK         0.0612 
    117 H117       19.4615  -33.0466  -42.7571 H         1 UNK         0.0612 
@<TRIPOS>BOND
     1    1    2 1    
     2    1   62 1    
     3    1   63 1    
     4    1   64 1    
     5    2    3 2    
     6    2    4 am   BACKBONE|DICT|INTERRES
     7    4    5 1    
     8    4   65 1    
     9    5    6 1    
    10    5   25 1    
    11    5   66 1    
    12    6    7 1    
    13    6   67 1    
    14    6   68 1    
    15    7    8 1    
    16    8    9 1    
    17    8   69 1    
    18    8   70 1    
    19    9   10 ar   
    20    9   14 ar   
    21   10   11 ar   
    22   10   71 1    
    23   11   12 ar   
    24   11   61 1    
    25   12   13 ar   
    26   12   72 1    
    27   13   14 ar   
    28   13   15 1    
    29   14   73 1    
    30   15   16 1    
    31   15   74 1    
    32   15   75 1    
    33   16   17 1    
    34   17   18 1    
    35   17   76 1    
    36   17   77 1    
    37   18   19 1    
    38   18   27 1    
    39   18   78 1    
    40   19   20 am   BACKBONE|DICT|INTERRES
    41   19   79 1    
    42   20   21 2    
    43   20   22 1    
    44   22   23 1    
    45   22   24 1    
    46   22   80 1    
    47   23   81 1    
    48   23   82 1    
    49   23   83 1    
    50   24   25 am   BACKBONE|DICT|INTERRES
    51   24   84 1    
    52   25   26 2    
    53   27   28 2    
    54   27   29 am   BACKBONE|DICT|INTERRES
    55   29   30 1    
    56   29   85 1    
    57   30   31 1    
    58   30   32 1    
    59   30   86 1    
    60   31   87 1    
    61   31   88 1    
    62   31   89 1    
    63   32   33 2    
    64   32   34 am   BACKBONE|DICT|INTERRES
    65   34   35 1    
    66   34   90 1    
    67   35   36 1    
    68   35   37 1    
    69   35   91 1    
    70   36   92 1    
    71   36   93 1    
    72   36   94 1    
    73   37   38 2    
    74   37   39 am   BACKBONE|DICT|INTERRES
    75   39   40 1    
    76   39   95 1    
    77   40   41 1    
    78   40   42 1    
    79   40   96 1    
    80   41   97 1    
    81   41   98 1    
    82   41   99 1    
    83   42   43 2    
    84   42   44 am   BACKBONE|DICT|INTERRES
    85   44   45 1    
    86   44  100 1    
    87   45   46 1    
    88   45   47 1    
    89   45  101 1    
    90   46  102 1    
    91   46  103 1    
    92   46  104 1    
    93   47   48 2    
    94   47   49 am   BACKBONE|DICT|INTERRES
    95   49   50 1    
    96   49  105 1    
    97   50   51 1    
    98   50   52 1    
    99   50  106 1    
   100   51  107 1    
   101   51  108 1    
   102   51  109 1    
   103   52   53 2    
   104   52   54 am   BACKBONE|DICT|INTERRES
   105   54   55 1    
   106   54  110 1    
   107   55   56 1    
   108   55   59 1    
   109   55  111 1    
   110   56   57 am   BACKBONE|DICT|INTERRES
   111   56   58 2    
   112   57  112 1    
   113   57  113 1    
   114   59   60 1    
   115   59  114 1    
   116   59  115 1    
   117   60   61 1    
   118   61  116 1    
   119   61  117 1    
@<TRIPOS>SUBSTRUCTURE
     1 UNK         1 GROUP             0       ****    0 ROOT    
