@<TRIPOS>MOLECULE
3R8
117   119    1
SMALL
USER_CHARGES


@<TRIPOS>ATOM
      1 CA         17.2214  -23.1267  -38.3899 C.3       0 UNK        -0.2013 
      2 C          17.4523  -23.6946  -39.7823 C.2       0 UNK         0.4866 
      3 O          17.9925  -23.0010  -40.6445 O.2       0 UNK        -0.5176 
      4 N          17.0405  -24.9481  -40.0116 N.am      1 UNK        -0.4884 
      5 CA         17.2545  -25.6799  -41.2628 C.3       1 UNK         0.0853 
      6 C6         16.3241  -26.9171  -41.3402 C.3       10 UNK        -0.0849 
      7 S7         16.4152  -27.8196  -42.9277 S.3       10 UNK        -0.2776 
      8 C8         17.5082  -29.1848  -42.4187 C.3       10 UNK         0.0316 
      9 C9         17.9714  -30.0813  -43.5560 C.ar      10 UNK        -0.0863 
     10 C10        17.9842  -31.4638  -43.3626 C.ar      10 UNK        -0.1009 
     11 C11        18.5140  -32.3168  -44.3325 C.ar      10 UNK        -0.0712 
     12 C12        18.9846  -31.7798  -45.5337 C.ar      10 UNK        -0.0894 
     13 C13        18.9459  -30.3995  -45.7558 C.ar      10 UNK        -0.0745 
     14 C14        18.4584  -29.5518  -44.7563 C.ar      10 UNK        -0.0972 
     15 C15        19.4267  -29.8289  -47.0787 C.3       10 UNK         0.0209 
     16 S16        21.2116  -29.4838  -47.0341 S.3       10 UNK        -0.2568 
     17 C17        21.2900  -27.6863  -47.3798 C.3       10 UNK        -0.0983 
     18 CA         22.1797  -26.8661  -46.4019 C.3       3 UNK         0.0876 
     19 N          21.7068  -26.9065  -45.0203 N.am      3 UNK        -0.4424 
     20 C          20.8226  -26.0674  -44.4809 C.2       2 UNK         0.4918 
     21 O          20.1674  -25.2421  -45.1221 O.2       2 UNK        -0.4875 
     22 CA         20.6861  -26.1155  -42.9553 C.3       2 UNK         0.0481 
     23 CB         21.6146  -25.0724  -42.3024 C.3       2 UNK        -0.1831 
     24 N          19.3034  -25.8293  -42.5967 N.am      2 UNK        -0.4498 
     25 C          18.7452  -26.0569  -41.4042 C.2       1 UNK         0.5027 
     26 O          19.3379  -26.5801  -40.4545 O.2       1 UNK        -0.4969 
     27 C          23.6786  -27.2279  -46.3800 C.2       3 UNK         0.5005 
     28 O          24.4094  -26.7049  -45.5347 O.2       3 UNK        -0.5279 
     29 N          24.1162  -28.1333  -47.2672 N.am      4 UNK        -0.4463 
     30 CA         25.4208  -28.8007  -47.1939 C.3       4 UNK         0.0283 
     31 CB         25.6688  -29.5881  -48.4902 C.3       4 UNK        -0.1875 
     32 C          25.5276  -29.7274  -45.9661 C.2       4 UNK         0.4949 
     33 O          26.6151  -29.8717  -45.4078 O.2       4 UNK        -0.5039 
     34 N          24.3905  -30.3022  -45.5523 N.am      5 UNK        -0.4663 
     35 CA         24.2005  -30.9529  -44.2605 C.3       5 UNK         0.0242 
     36 CB         23.2655  -32.1588  -44.4478 C.3       5 UNK        -0.1982 
     37 C          23.5783  -29.9100  -43.3224 C.2       5 UNK         0.5017 
     38 O          22.5797  -29.2885  -43.6946 O.2       5 UNK        -0.5012 
     39 N          24.1739  -29.6988  -42.1455 N.am      6 UNK        -0.4439 
     40 CA         23.7644  -28.6573  -41.2070 C.3       6 UNK         0.0297 
     41 CB         24.2594  -27.2876  -41.7113 C.3       6 UNK        -0.2006 
     42 C          24.3594  -28.9403  -39.8196 C.2       6 UNK         0.4892 
     43 O          25.4142  -29.5729  -39.7506 O.2       6 UNK        -0.5089 
     44 N          23.7557  -28.4456  -38.7286 N.am      7 UNK        -0.4243 
     45 CA         22.3988  -27.8927  -38.6360 C.3       7 UNK         0.0196 
     46 CB         22.3254  -26.9416  -37.4317 C.3       7 UNK        -0.2007 
     47 C          21.4030  -29.0488  -38.4614 C.2       7 UNK         0.5020 
     48 O          21.7542  -30.0469  -37.8288 O.2       7 UNK        -0.5147 
     49 N          20.1921  -28.9101  -39.0199 N.am      8 UNK        -0.4734 
     50 CA         19.1029  -29.9018  -38.9750 C.3       8 UNK         0.0238 
     51 CB         18.5010  -29.9728  -37.5554 C.3       8 UNK        -0.1912 
     52 C          19.5199  -31.2881  -39.5187 C.2       8 UNK         0.5038 
     53 O          19.2219  -32.3117  -38.9015 O.2       8 UNK        -0.5046 
     54 N          20.2327  -31.2788  -40.6532 N.am      9 UNK        -0.4200 
     55 CA         20.8992  -32.4286  -41.2907 C.3       9 UNK         0.0839 
     56 C          22.2271  -32.8773  -40.6060 C.2       9 UNK         0.5513 
     57 N          22.6940  -32.2373  -39.5413 N.am      9 UNK        -0.7519 
     58 O          22.8716  -33.8144  -41.0676 O.2       9 UNK        -0.4960 
     59 C59        19.9478  -33.6322  -41.5871 C.3       10 UNK        -0.0876 
     60 S60        20.1488  -34.2965  -43.2785 S.3       10 UNK        -0.2414 
     61 C61        18.5822  -33.8151  -44.0770 C.3       10 UNK         0.0169 
     62 H62        16.6021  -22.2320  -38.4473 H         1 UNK         0.0903 
     63 H63        16.7244  -23.8415  -37.7343 H         1 UNK         0.0903 
     64 H64        18.1730  -22.8540  -37.9342 H         1 UNK         0.0903 
     65 H65        16.6298  -25.4785  -39.2563 H         1 UNK         0.3096 
     66 H66        16.9889  -25.0100  -42.0843 H         1 UNK         0.1121 
     67 H67        16.5215  -27.6000  -40.5115 H         1 UNK         0.0849 
     68 H68        15.2883  -26.5974  -41.2142 H         1 UNK         0.0849 
     69 H69        18.4008  -28.7856  -41.9397 H         1 UNK         0.0865 
     70 H70        16.9822  -29.7714  -41.6638 H         1 UNK         0.0865 
     71 H71        17.6084  -31.8751  -42.4370 H         1 UNK         0.1346 
     72 H72        19.3868  -32.4353  -46.2941 H         1 UNK         0.1412 
     73 H73        18.4626  -28.4817  -44.9127 H         1 UNK         0.1426 
     74 H74        18.8522  -28.9367  -47.3287 H         1 UNK         0.0716 
     75 H75        19.2309  -30.5407  -47.8820 H         1 UNK         0.0716 
     76 H76        21.6303  -27.5490  -48.4075 H         1 UNK         0.0695 
     77 H77        20.2848  -27.2648  -47.3593 H         1 UNK         0.0695 
     78 H78        22.1535  -25.8268  -46.7376 H         1 UNK         0.0983 
     79 H79        22.1614  -27.6064  -44.4361 H         1 UNK         0.3095 
     80 H80        20.9510  -27.1173  -42.6093 H         1 UNK         0.0454 
     81 H81        22.6252  -25.1241  -42.7067 H         1 UNK         0.0851 
     82 H82        21.2578  -24.0569  -42.4784 H         1 UNK         0.0851 
     83 H83        21.6833  -25.2182  -41.2246 H         1 UNK         0.0851 
     84 H84        18.7548  -25.4288  -43.3479 H         1 UNK         0.2976 
     85 H85        23.4425  -28.5207  -47.9141 H         1 UNK         0.3116 
     86 H86        26.1931  -28.0339  -47.1033 H         1 UNK         0.0646 
     87 H87        26.6443  -30.0759  -48.4678 H         1 UNK         0.0847 
     88 H88        25.6558  -28.9334  -49.3617 H         1 UNK         0.0847 
     89 H89        24.9196  -30.3663  -48.6419 H         1 UNK         0.0847 
     90 H90        23.5370  -30.0732  -46.0444 H         1 UNK         0.3040 
     91 H91        25.1556  -31.2996  -43.8596 H         1 UNK         0.1015 
     92 H92        23.6460  -32.8417  -45.2074 H         1 UNK         0.0786 
     93 H93        22.2600  -31.8555  -44.7460 H         1 UNK         0.0786 
     94 H94        23.1758  -32.7282  -43.5238 H         1 UNK         0.0786 
     95 H95        24.9753  -30.2448  -41.8520 H         1 UNK         0.3172 
     96 H96        22.6754  -28.6717  -41.1584 H         1 UNK         0.0595 
     97 H97        23.8760  -27.0608  -42.7051 H         1 UNK         0.0839 
     98 H98        25.3481  -27.2542  -41.7690 H         1 UNK         0.0839 
     99 H99        23.9473  -26.4839  -41.0441 H         1 UNK         0.0839 
    100 H100       24.1827  -28.6540  -37.8380 H         1 UNK         0.2998 
    101 H101       22.1458  -27.3150  -39.5260 H         1 UNK         0.0822 
    102 H102       23.0366  -26.1212  -37.5309 H         1 UNK         0.0787 
    103 H103       21.3316  -26.4994  -37.3456 H         1 UNK         0.0787 
    104 H104       22.5358  -27.4569  -36.4933 H         1 UNK         0.0787 
    105 H105       19.9743  -28.0415  -39.5095 H         1 UNK         0.3055 
    106 H106       18.3178  -29.5348  -39.6349 H         1 UNK         0.1106 
    107 H107       19.2134  -30.3713  -36.8322 H         1 UNK         0.0828 
    108 H108       18.1867  -28.9885  -37.2084 H         1 UNK         0.0828 
    109 H109       17.6220  -30.6183  -37.5342 H         1 UNK         0.0828 
    110 H110       20.4403  -30.3848  -41.0725 H         1 UNK         0.2931 
    111 H111       21.2154  -32.0113  -42.2470 H         1 UNK         0.0412 
    112 H112       23.5610  -32.5495  -39.1341 H         1 UNK         0.3472 
    113 H113       22.1751  -31.4927  -39.0892 H         1 UNK         0.3472 
    114 H114       18.9050  -33.3579  -41.4421 H         1 UNK         0.0970 
    115 H115       20.1081  -34.4454  -40.8765 H         1 UNK         0.0970 
    116 H116       17.7407  -34.1384  -43.4624 H         1 UNK         0.0612 
    117 H117       18.4923  -34.3542  -45.0212 H         1 UNK         0.0612 
@<TRIPOS>BOND
     1    1    2 1    
     2    1   62 1    
     3    1   63 1    
     4    1   64 1    
     5    2    3 2    
     6    2    4 am   BACKBONE|DICT|INTERRES
     7    4    5 1    
     8    4   65 1    
     9    5    6 1    
    10    5   25 1    
    11    5   66 1    
    12    6    7 1    
    13    6   67 1    
    14    6   68 1    
    15    7    8 1    
    16    8    9 1    
    17    8   69 1    
    18    8   70 1    
    19    9   10 ar   
    20    9   14 ar   
    21   10   11 ar   
    22   10   71 1    
    23   11   12 ar   
    24   11   61 1    
    25   12   13 ar   
    26   12   72 1    
    27   13   14 ar   
    28   13   15 1    
    29   14   73 1    
    30   15   16 1    
    31   15   74 1    
    32   15   75 1    
    33   16   17 1    
    34   17   18 1    
    35   17   76 1    
    36   17   77 1    
    37   18   19 1    
    38   18   27 1    
    39   18   78 1    
    40   19   20 am   BACKBONE|DICT|INTERRES
    41   19   79 1    
    42   20   21 2    
    43   20   22 1    
    44   22   23 1    
    45   22   24 1    
    46   22   80 1    
    47   23   81 1    
    48   23   82 1    
    49   23   83 1    
    50   24   25 am   BACKBONE|DICT|INTERRES
    51   24   84 1    
    52   25   26 2    
    53   27   28 2    
    54   27   29 am   BACKBONE|DICT|INTERRES
    55   29   30 1    
    56   29   85 1    
    57   30   31 1    
    58   30   32 1    
    59   30   86 1    
    60   31   87 1    
    61   31   88 1    
    62   31   89 1    
    63   32   33 2    
    64   32   34 am   BACKBONE|DICT|INTERRES
    65   34   35 1    
    66   34   90 1    
    67   35   36 1    
    68   35   37 1    
    69   35   91 1    
    70   36   92 1    
    71   36   93 1    
    72   36   94 1    
    73   37   38 2    
    74   37   39 am   BACKBONE|DICT|INTERRES
    75   39   40 1    
    76   39   95 1    
    77   40   41 1    
    78   40   42 1    
    79   40   96 1    
    80   41   97 1    
    81   41   98 1    
    82   41   99 1    
    83   42   43 2    
    84   42   44 am   BACKBONE|DICT|INTERRES
    85   44   45 1    
    86   44  100 1    
    87   45   46 1    
    88   45   47 1    
    89   45  101 1    
    90   46  102 1    
    91   46  103 1    
    92   46  104 1    
    93   47   48 2    
    94   47   49 am   BACKBONE|DICT|INTERRES
    95   49   50 1    
    96   49  105 1    
    97   50   51 1    
    98   50   52 1    
    99   50  106 1    
   100   51  107 1    
   101   51  108 1    
   102   51  109 1    
   103   52   53 2    
   104   52   54 am   BACKBONE|DICT|INTERRES
   105   54   55 1    
   106   54  110 1    
   107   55   56 1    
   108   55   59 1    
   109   55  111 1    
   110   56   57 am   BACKBONE|DICT|INTERRES
   111   56   58 2    
   112   57  112 1    
   113   57  113 1    
   114   59   60 1    
   115   59  114 1    
   116   59  115 1    
   117   60   61 1    
   118   61  116 1    
   119   61  117 1    
@<TRIPOS>SUBSTRUCTURE
     1 UNK         1 GROUP             0       ****    0 ROOT    
