@<TRIPOS>MOLECULE
3R8
117   119    1
SMALL
USER_CHARGES


@<TRIPOS>ATOM
      1 CA         13.9031  -28.3730  -47.7692 C.3       0 UNK        -0.2013 
      2 C          15.1045  -28.4526  -46.8391 C.2       0 UNK         0.4866 
      3 O          15.8069  -29.4640  -46.8311 O.2       0 UNK        -0.5176 
      4 N          15.3397  -27.3988  -46.0482 N.am      1 UNK        -0.4884 
      5 CA         16.4757  -27.2839  -45.1282 C.3       1 UNK         0.0853 
      6 C6         16.2678  -26.1479  -44.0955 C.3       10 UNK        -0.0849 
      7 S7         14.7925  -26.3483  -43.0383 S.3       10 UNK        -0.2776 
      8 C8         15.1066  -27.9225  -42.1638 C.3       10 UNK         0.0316 
      9 C9         16.5163  -28.0434  -41.5925 C.ar      10 UNK        -0.0863 
     10 C10        17.2907  -29.1696  -41.8838 C.ar      10 UNK        -0.1009 
     11 C11        18.5812  -29.3014  -41.3642 C.ar      10 UNK        -0.0712 
     12 C12        19.1010  -28.2924  -40.5480 C.ar      10 UNK        -0.0894 
     13 C13        18.3387  -27.1568  -40.2483 C.ar      10 UNK        -0.0745 
     14 C14        17.0432  -27.0476  -40.7642 C.ar      10 UNK        -0.0972 
     15 C15        18.8778  -26.0518  -39.3432 C.3       10 UNK         0.0209 
     16 S16        20.6005  -25.5634  -39.6944 S.3       10 UNK        -0.2568 
     17 C17        20.5259  -25.0322  -41.4419 C.3       10 UNK        -0.0983 
     18 CA         21.4356  -25.9062  -42.3494 C.3       3 UNK         0.0876 
     19 N          20.8246  -26.1468  -43.6669 N.am      3 UNK        -0.4424 
     20 C          21.1917  -27.0895  -44.5484 C.2       2 UNK         0.4918 
     21 O          22.1974  -27.7869  -44.4208 O.2       2 UNK        -0.4875 
     22 CA         20.2700  -27.2780  -45.7605 C.3       2 UNK         0.0481 
     23 CB         20.6975  -28.4405  -46.6776 C.3       2 UNK        -0.1831 
     24 N          18.9062  -27.4909  -45.2808 N.am      2 UNK        -0.4498 
     25 C          17.7975  -27.0533  -45.8877 C.2       1 UNK         0.5027 
     26 O          17.7957  -26.4431  -46.9606 O.2       1 UNK        -0.4969 
     27 C          22.9056  -25.4098  -42.3722 C.2       3 UNK         0.5005 
     28 O          23.4910  -25.2009  -41.3094 O.2       3 UNK        -0.5279 
     29 N          23.5139  -25.2836  -43.5617 N.am      4 UNK        -0.4463 
     30 CA         24.9700  -25.2479  -43.7398 C.3       4 UNK         0.0283 
     31 CB         25.3012  -24.9528  -45.2110 C.3       4 UNK        -0.1875 
     32 C          25.6335  -26.5658  -43.2864 C.2       4 UNK         0.4949 
     33 O          26.7413  -26.5356  -42.7513 O.2       4 UNK        -0.5039 
     34 N          24.9154  -27.6852  -43.4527 N.am      5 UNK        -0.4663 
     35 CA         25.2081  -28.9843  -42.8575 C.3       5 UNK         0.0242 
     36 CB         25.0070  -30.0734  -43.9278 C.3       5 UNK        -0.1982 
     37 C          24.2703  -29.1601  -41.6517 C.2       5 UNK         0.5017 
     38 O          23.3444  -29.9714  -41.6988 O.2       5 UNK        -0.5012 
     39 N          24.4936  -28.3483  -40.6080 N.am      6 UNK        -0.4439 
     40 CA         23.6883  -28.2836  -39.3843 C.3       6 UNK         0.0297 
     41 CB         24.2815  -27.2297  -38.4347 C.3       6 UNK        -0.2006 
     42 C          23.5725  -29.6511  -38.6891 C.2       6 UNK         0.4892 
     43 O          24.5769  -30.1690  -38.1974 O.2       6 UNK        -0.5089 
     44 N          22.3534  -30.2104  -38.7108 N.am      7 UNK        -0.4243 
     45 CA         21.9740  -31.5508  -38.2433 C.3       7 UNK         0.0196 
     46 CB         22.1396  -31.6661  -36.7126 C.3       7 UNK        -0.2007 
     47 C          22.6690  -32.7025  -39.0040 C.2       7 UNK         0.5020 
     48 O          22.7559  -33.8109  -38.4734 O.2       7 UNK        -0.5147 
     49 N          23.1385  -32.4379  -40.2305 N.am      8 UNK        -0.4734 
     50 CA         23.8758  -33.3799  -41.0759 C.3       8 UNK         0.0238 
     51 CB         25.3851  -33.0984  -40.9416 C.3       8 UNK        -0.1912 
     52 C          23.3944  -33.3291  -42.5370 C.2       8 UNK         0.5038 
     53 O          24.1547  -33.6944  -43.4355 O.2       8 UNK        -0.5046 
     54 N          22.1515  -32.8751  -42.7514 N.am      9 UNK        -0.4200 
     55 CA         21.4807  -32.7918  -44.0573 C.3       9 UNK         0.0839 
     56 C          21.3692  -34.1691  -44.7686 C.2       9 UNK         0.5513 
     57 N          21.5439  -34.2054  -46.0824 N.am      9 UNK        -0.7519 
     58 O          21.0772  -35.1892  -44.1472 O.2       9 UNK        -0.4960 
     59 C59        20.0753  -32.1492  -43.9327 C.3       10 UNK        -0.0876 
     60 S60        20.1225  -30.4219  -43.3461 S.3       10 UNK        -0.2414 
     61 C61        19.3961  -30.5442  -41.6848 C.3       10 UNK         0.0169 
     62 H62        14.2258  -28.4606  -48.8064 H         1 UNK         0.0903 
     63 H63        13.2101  -29.1869  -47.5577 H         1 UNK         0.0903 
     64 H64        13.3641  -27.4320  -47.6602 H         1 UNK         0.0903 
     65 H65        14.7379  -26.5893  -46.1007 H         1 UNK         0.3096 
     66 H66        16.5679  -28.2331  -44.5973 H         1 UNK         0.1121 
     67 H67        17.1379  -26.0503  -43.4437 H         1 UNK         0.0849 
     68 H68        16.1775  -25.1869  -44.6061 H         1 UNK         0.0849 
     69 H69        14.3886  -28.0188  -41.3484 H         1 UNK         0.0865 
     70 H70        14.8948  -28.7449  -42.8490 H         1 UNK         0.0865 
     71 H71        16.8915  -29.9524  -42.5147 H         1 UNK         0.1346 
     72 H72        20.0986  -28.3884  -40.1461 H         1 UNK         0.1412 
     73 H73        16.4408  -26.1803  -40.5292 H         1 UNK         0.1426 
     74 H74        18.8170  -26.3911  -38.3086 H         1 UNK         0.0716 
     75 H75        18.2524  -25.1602  -39.4113 H         1 UNK         0.0716 
     76 H76        19.4868  -25.0902  -41.7691 H         1 UNK         0.0695 
     77 H77        20.7912  -23.9752  -41.5070 H         1 UNK         0.0695 
     78 H78        21.4948  -26.8995  -41.8974 H         1 UNK         0.0983 
     79 H79        20.0071  -25.5941  -43.8794 H         1 UNK         0.3095 
     80 H80        20.3201  -26.3506  -46.3348 H         1 UNK         0.0454 
     81 H81        21.7107  -28.2910  -47.0523 H         1 UNK         0.0851 
     82 H82        20.0411  -28.5246  -47.5436 H         1 UNK         0.0851 
     83 H83        20.6819  -29.3956  -46.1519 H         1 UNK         0.0851 
     84 H84        18.8318  -27.9773  -44.3959 H         1 UNK         0.2976 
     85 H85        22.9625  -25.4661  -44.3872 H         1 UNK         0.3116 
     86 H86        25.3706  -24.4391  -43.1250 H         1 UNK         0.0646 
     87 H87        24.9167  -25.7267  -45.8767 H         1 UNK         0.0847 
     88 H88        24.8841  -23.9970  -45.5286 H         1 UNK         0.0847 
     89 H89        26.3802  -24.9001  -45.3628 H         1 UNK         0.0847 
     90 H90        23.9890  -27.6121  -43.8687 H         1 UNK         0.3040 
     91 H91        26.2400  -29.0323  -42.5029 H         1 UNK         0.1015 
     92 H92        25.2356  -31.0608  -43.5272 H         1 UNK         0.0786 
     93 H93        25.6616  -29.9121  -44.7842 H         1 UNK         0.0786 
     94 H94        23.9789  -30.0986  -44.2934 H         1 UNK         0.0786 
     95 H95        25.2634  -27.6972  -40.6708 H         1 UNK         0.3172 
     96 H96        22.6908  -27.9469  -39.6733 H         1 UNK         0.0595 
     97 H97        25.3057  -27.4722  -38.1487 H         1 UNK         0.0839 
     98 H98        23.6946  -27.1580  -37.5181 H         1 UNK         0.0839 
     99 H99        24.2842  -26.2399  -38.8917 H         1 UNK         0.0839 
    100 H100       21.6155  -29.6923  -39.1637 H         1 UNK         0.2998 
    101 H101       20.9105  -31.6544  -38.4634 H         1 UNK         0.0822 
    102 H102       21.7127  -32.5982  -36.3405 H         1 UNK         0.0787 
    103 H103       21.6323  -30.8515  -36.1957 H         1 UNK         0.0787 
    104 H104       23.1890  -31.6501  -36.4165 H         1 UNK         0.0787 
    105 H105       23.0521  -31.4953  -40.6083 H         1 UNK         0.3055 
    106 H106       23.6894  -34.4032  -40.7427 H         1 UNK         0.1106 
    107 H107       25.7113  -33.1835  -39.9049 H         1 UNK         0.0828 
    108 H108       25.9752  -33.8075  -41.5234 H         1 UNK         0.0828 
    109 H109       25.6377  -32.0962  -41.2882 H         1 UNK         0.0828 
    110 H110       21.6058  -32.5905  -41.9539 H         1 UNK         0.2931 
    111 H111       22.0967  -32.1400  -44.6807 H         1 UNK         0.0412 
    112 H112       21.4584  -35.0868  -46.5647 H         1 UNK         0.3472 
    113 H113       21.7740  -33.3716  -46.6008 H         1 UNK         0.3472 
    114 H114       19.5842  -32.1315  -44.9077 H         1 UNK         0.0970 
    115 H115       19.4326  -32.7552  -43.2922 H         1 UNK         0.0970 
    116 H116       18.7481  -31.4181  -41.6100 H         1 UNK         0.0612 
    117 H117       20.1956  -30.6871  -40.9569 H         1 UNK         0.0612 
@<TRIPOS>BOND
     1    1    2 1    
     2    1   62 1    
     3    1   63 1    
     4    1   64 1    
     5    2    3 2    
     6    2    4 am   BACKBONE|DICT|INTERRES
     7    4    5 1    
     8    4   65 1    
     9    5    6 1    
    10    5   25 1    
    11    5   66 1    
    12    6    7 1    
    13    6   67 1    
    14    6   68 1    
    15    7    8 1    
    16    8    9 1    
    17    8   69 1    
    18    8   70 1    
    19    9   10 ar   
    20    9   14 ar   
    21   10   11 ar   
    22   10   71 1    
    23   11   12 ar   
    24   11   61 1    
    25   12   13 ar   
    26   12   72 1    
    27   13   14 ar   
    28   13   15 1    
    29   14   73 1    
    30   15   16 1    
    31   15   74 1    
    32   15   75 1    
    33   16   17 1    
    34   17   18 1    
    35   17   76 1    
    36   17   77 1    
    37   18   19 1    
    38   18   27 1    
    39   18   78 1    
    40   19   20 am   BACKBONE|DICT|INTERRES
    41   19   79 1    
    42   20   21 2    
    43   20   22 1    
    44   22   23 1    
    45   22   24 1    
    46   22   80 1    
    47   23   81 1    
    48   23   82 1    
    49   23   83 1    
    50   24   25 am   BACKBONE|DICT|INTERRES
    51   24   84 1    
    52   25   26 2    
    53   27   28 2    
    54   27   29 am   BACKBONE|DICT|INTERRES
    55   29   30 1    
    56   29   85 1    
    57   30   31 1    
    58   30   32 1    
    59   30   86 1    
    60   31   87 1    
    61   31   88 1    
    62   31   89 1    
    63   32   33 2    
    64   32   34 am   BACKBONE|DICT|INTERRES
    65   34   35 1    
    66   34   90 1    
    67   35   36 1    
    68   35   37 1    
    69   35   91 1    
    70   36   92 1    
    71   36   93 1    
    72   36   94 1    
    73   37   38 2    
    74   37   39 am   BACKBONE|DICT|INTERRES
    75   39   40 1    
    76   39   95 1    
    77   40   41 1    
    78   40   42 1    
    79   40   96 1    
    80   41   97 1    
    81   41   98 1    
    82   41   99 1    
    83   42   43 2    
    84   42   44 am   BACKBONE|DICT|INTERRES
    85   44   45 1    
    86   44  100 1    
    87   45   46 1    
    88   45   47 1    
    89   45  101 1    
    90   46  102 1    
    91   46  103 1    
    92   46  104 1    
    93   47   48 2    
    94   47   49 am   BACKBONE|DICT|INTERRES
    95   49   50 1    
    96   49  105 1    
    97   50   51 1    
    98   50   52 1    
    99   50  106 1    
   100   51  107 1    
   101   51  108 1    
   102   51  109 1    
   103   52   53 2    
   104   52   54 am   BACKBONE|DICT|INTERRES
   105   54   55 1    
   106   54  110 1    
   107   55   56 1    
   108   55   59 1    
   109   55  111 1    
   110   56   57 am   BACKBONE|DICT|INTERRES
   111   56   58 2    
   112   57  112 1    
   113   57  113 1    
   114   59   60 1    
   115   59  114 1    
   116   59  115 1    
   117   60   61 1    
   118   61  116 1    
   119   61  117 1    
@<TRIPOS>SUBSTRUCTURE
     1 UNK         1 GROUP             0       ****    0 ROOT    
