@<TRIPOS>MOLECULE
3R8
117   119    1
SMALL
USER_CHARGES


@<TRIPOS>ATOM
      1 CA         16.9572  -25.2269  -49.8406 C.3       0 UNK        -0.2013 
      2 C          17.9090  -25.9814  -48.9246 C.2       0 UNK         0.4866 
      3 O          19.1246  -25.8988  -49.1023 O.2       0 UNK        -0.5176 
      4 N          17.3663  -26.7181  -47.9461 N.am      1 UNK        -0.4884 
      5 CA         18.1258  -27.4892  -46.9521 C.3       1 UNK         0.0853 
      6 C6         17.2420  -28.5514  -46.2523 C.3       10 UNK        -0.0849 
      7 S7         15.7397  -27.8639  -45.4650 S.3       10 UNK        -0.2776 
      8 C8         15.1714  -29.2777  -44.4691 C.3       10 UNK         0.0316 
      9 C9         16.0699  -29.5164  -43.2648 C.ar      10 UNK        -0.0863 
     10 C10        17.0406  -30.5213  -43.2973 C.ar      10 UNK        -0.1009 
     11 C11        17.8821  -30.7320  -42.2017 C.ar      10 UNK        -0.0712 
     12 C12        17.7190  -29.9541  -41.0520 C.ar      10 UNK        -0.0894 
     13 C13        16.7447  -28.9521  -41.0019 C.ar      10 UNK        -0.0745 
     14 C14        15.9269  -28.7340  -42.1150 C.ar      10 UNK        -0.0972 
     15 C15        16.5535  -28.1259  -39.7364 C.3       10 UNK         0.0209 
     16 S16        18.0569  -27.2214  -39.2468 S.3       10 UNK        -0.2568 
     17 C17        18.2526  -26.0189  -40.6052 C.3       10 UNK        -0.0983 
     18 CA         19.4495  -26.3298  -41.5543 C.3       3 UNK         0.0876 
     19 N          19.2118  -25.8547  -42.9275 N.am      3 UNK        -0.4424 
     20 C          18.9363  -24.5993  -43.3104 C.2       2 UNK         0.4918 
     21 O          18.7961  -23.6635  -42.5232 O.2       2 UNK        -0.4875 
     22 CA         18.8246  -24.3059  -44.8207 C.3       2 UNK         0.0481 
     23 CB         20.1629  -23.7663  -45.3634 C.3       2 UNK        -0.1831 
     24 N          18.3207  -25.3980  -45.6675 N.am      2 UNK        -0.4498 
     25 C          18.8626  -26.5986  -45.9276 C.2       1 UNK         0.5027 
     26 O          19.8917  -27.0154  -45.3938 O.2       1 UNK        -0.4969 
     27 C          20.8193  -25.8564  -40.9919 C.2       3 UNK         0.5005 
     28 O          21.0791  -25.9984  -39.7958 O.2       3 UNK        -0.5279 
     29 N          21.6857  -25.3036  -41.8571 N.am      4 UNK        -0.4463 
     30 CA         22.9511  -24.6560  -41.4947 C.3       4 UNK         0.0283 
     31 CB         23.4387  -23.8133  -42.6852 C.3       4 UNK        -0.1875 
     32 C          24.0554  -25.6258  -41.0401 C.2       4 UNK         0.4949 
     33 O          24.9362  -25.2177  -40.2830 O.2       4 UNK        -0.5039 
     34 N          23.9978  -26.8773  -41.5095 N.am      5 UNK        -0.4663 
     35 CA         24.9613  -27.9374  -41.2037 C.3       5 UNK         0.0242 
     36 CB         25.9564  -28.0785  -42.3716 C.3       5 UNK        -0.1982 
     37 C          24.2250  -29.2474  -40.8903 C.2       5 UNK         0.5017 
     38 O          24.6770  -30.3173  -41.3007 O.2       5 UNK        -0.5012 
     39 N          23.0935  -29.1367  -40.1778 N.am      6 UNK        -0.4439 
     40 CA         22.1159  -30.1971  -39.8937 C.3       6 UNK         0.0297 
     41 CB         20.9893  -29.6081  -39.0336 C.3       6 UNK        -0.2006 
     42 C          22.6568  -31.4821  -39.2386 C.2       6 UNK         0.4892 
     43 O          22.0032  -32.5200  -39.3445 O.2       6 UNK        -0.5089 
     44 N          23.8294  -31.4055  -38.5927 N.am      7 UNK        -0.4243 
     45 CA         24.5564  -32.5513  -38.0371 C.3       7 UNK         0.0196 
     46 CB         25.7557  -32.0426  -37.2211 C.3       7 UNK        -0.2007 
     47 C          25.0213  -33.5586  -39.1074 C.2       7 UNK         0.5020 
     48 O          25.1201  -34.7485  -38.8061 O.2       7 UNK        -0.5147 
     49 N          25.2821  -33.0718  -40.3276 N.am      8 UNK        -0.4734 
     50 CA         25.5794  -33.8848  -41.5090 C.3       8 UNK         0.0238 
     51 CB         26.9044  -33.4149  -42.1335 C.3       8 UNK        -0.1912 
     52 C          24.4331  -33.7845  -42.5258 C.2       8 UNK         0.5038 
     53 O          23.9860  -34.8106  -43.0395 O.2       8 UNK        -0.5046 
     54 N          23.9687  -32.5522  -42.7688 N.am      9 UNK        -0.4200 
     55 CA         22.9009  -32.1688  -43.6977 C.3       9 UNK         0.0839 
     56 C          23.1978  -32.5092  -45.1904 C.2       9 UNK         0.5513 
     57 N          22.1930  -32.4838  -46.0555 N.am      9 UNK        -0.7519 
     58 O          24.3378  -32.7448  -45.5868 O.2       9 UNK        -0.4960 
     59 C59        21.4982  -32.6213  -43.1929 C.3       10 UNK        -0.0876 
     60 S60        20.2440  -31.3304  -43.4816 S.3       10 UNK        -0.2414 
     61 C61        18.9709  -31.7920  -42.2681 C.3       10 UNK         0.0169 
     62 H62        17.0965  -25.5481  -50.8726 H         1 UNK         0.0903 
     63 H63        15.9140  -25.3933  -49.5718 H         1 UNK         0.0903 
     64 H64        17.1546  -24.1564  -49.7873 H         1 UNK         0.0903 
     65 H65        16.3608  -26.7579  -47.8440 H         1 UNK         0.3096 
     66 H66        18.9090  -28.0276  -47.4916 H         1 UNK         0.1121 
     67 H67        16.9265  -29.2993  -46.9816 H         1 UNK         0.0849 
     68 H68        17.8315  -29.0942  -45.5119 H         1 UNK         0.0849 
     69 H69        14.1528  -29.0835  -44.1291 H         1 UNK         0.0865 
     70 H70        15.1159  -30.1692  -45.0962 H         1 UNK         0.0865 
     71 H71        17.1614  -31.1273  -44.1850 H         1 UNK         0.1346 
     72 H72        18.3525  -30.1217  -40.1934 H         1 UNK         0.1412 
     73 H73        15.1733  -27.9585  -42.0883 H         1 UNK         0.1426 
     74 H74        15.7325  -27.4159  -39.8495 H         1 UNK         0.0716 
     75 H75        16.2687  -28.7944  -38.9228 H         1 UNK         0.0716 
     76 H76        18.3441  -25.0199  -40.1748 H         1 UNK         0.0695 
     77 H77        17.3209  -26.0046  -41.1730 H         1 UNK         0.0695 
     78 H78        19.5287  -27.4144  -41.6470 H         1 UNK         0.0983 
     79 H79        19.3652  -26.5341  -43.6689 H         1 UNK         0.3095 
     80 H80        18.0889  -23.5058  -44.9193 H         1 UNK         0.0454 
     81 H81        20.4940  -22.8968  -44.7936 H         1 UNK         0.0851 
     82 H82        20.0699  -23.4531  -46.4034 H         1 UNK         0.0851 
     83 H83        20.9580  -24.5107  -45.3100 H         1 UNK         0.0851 
     84 H84        17.4474  -25.2002  -46.1365 H         1 UNK         0.2976 
     85 H85        21.4074  -25.2441  -42.8258 H         1 UNK         0.3116 
     86 H86        22.7519  -23.9790  -40.6607 H         1 UNK         0.0646 
     87 H87        22.7060  -23.0555  -42.9638 H         1 UNK         0.0847 
     88 H88        24.3638  -23.2895  -42.4393 H         1 UNK         0.0847 
     89 H89        23.6381  -24.4292  -43.5634 H         1 UNK         0.0847 
     90 H90        23.2318  -27.1273  -42.1199 H         1 UNK         0.3040 
     91 H91        25.5255  -27.6863  -40.3028 H         1 UNK         0.1015 
     92 H92        25.4555  -28.3785  -43.2927 H         1 UNK         0.0786 
     93 H93        26.7167  -28.8294  -42.1525 H         1 UNK         0.0786 
     94 H94        26.4769  -27.1401  -42.5632 H         1 UNK         0.0786 
     95 H95        22.8349  -28.2083  -39.8709 H         1 UNK         0.3172 
     96 H96        21.6889  -30.4936  -40.8532 H         1 UNK         0.0595 
     97 H97        21.3662  -29.2066  -38.0923 H         1 UNK         0.0839 
     98 H98        20.2417  -30.3633  -38.7874 H         1 UNK         0.0839 
     99 H99        20.4770  -28.8041  -39.5592 H         1 UNK         0.0839 
    100 H100       24.2887  -30.5078  -38.5493 H         1 UNK         0.2998 
    101 H101       23.8796  -33.0797  -37.3622 H         1 UNK         0.0822 
    102 H102       25.4356  -31.3919  -36.4071 H         1 UNK         0.0787 
    103 H103       26.3026  -32.8737  -36.7733 H         1 UNK         0.0787 
    104 H104       26.4597  -31.4862  -37.8414 H         1 UNK         0.0787 
    105 H105       25.1453  -32.0781  -40.4842 H         1 UNK         0.3055 
    106 H106       25.6854  -34.9376  -41.2373 H         1 UNK         0.1106 
    107 H107       27.7347  -33.5460  -41.4395 H         1 UNK         0.0828 
    108 H108       27.1381  -33.9893  -43.0310 H         1 UNK         0.0828 
    109 H109       26.8705  -32.3624  -42.4183 H         1 UNK         0.0828 
    110 H110       24.4026  -31.7668  -42.2904 H         1 UNK         0.2931 
    111 H111       22.9403  -31.0793  -43.6598 H         1 UNK         0.0412 
    112 H112       22.3709  -32.6821  -47.0278 H         1 UNK         0.3472 
    113 H113       21.2607  -32.2520  -45.7465 H         1 UNK         0.3472 
    114 H114       21.1856  -33.5623  -43.6492 H         1 UNK         0.0970 
    115 H115       21.5293  -32.8139  -42.1192 H         1 UNK         0.0970 
    116 H116       18.5338  -32.7519  -42.5463 H         1 UNK         0.0612 
    117 H117       19.4350  -31.9275  -41.2896 H         1 UNK         0.0612 
@<TRIPOS>BOND
     1    1    2 1    
     2    1   62 1    
     3    1   63 1    
     4    1   64 1    
     5    2    3 2    
     6    2    4 am   BACKBONE|DICT|INTERRES
     7    4    5 1    
     8    4   65 1    
     9    5    6 1    
    10    5   25 1    
    11    5   66 1    
    12    6    7 1    
    13    6   67 1    
    14    6   68 1    
    15    7    8 1    
    16    8    9 1    
    17    8   69 1    
    18    8   70 1    
    19    9   10 ar   
    20    9   14 ar   
    21   10   11 ar   
    22   10   71 1    
    23   11   12 ar   
    24   11   61 1    
    25   12   13 ar   
    26   12   72 1    
    27   13   14 ar   
    28   13   15 1    
    29   14   73 1    
    30   15   16 1    
    31   15   74 1    
    32   15   75 1    
    33   16   17 1    
    34   17   18 1    
    35   17   76 1    
    36   17   77 1    
    37   18   19 1    
    38   18   27 1    
    39   18   78 1    
    40   19   20 am   BACKBONE|DICT|INTERRES
    41   19   79 1    
    42   20   21 2    
    43   20   22 1    
    44   22   23 1    
    45   22   24 1    
    46   22   80 1    
    47   23   81 1    
    48   23   82 1    
    49   23   83 1    
    50   24   25 am   BACKBONE|DICT|INTERRES
    51   24   84 1    
    52   25   26 2    
    53   27   28 2    
    54   27   29 am   BACKBONE|DICT|INTERRES
    55   29   30 1    
    56   29   85 1    
    57   30   31 1    
    58   30   32 1    
    59   30   86 1    
    60   31   87 1    
    61   31   88 1    
    62   31   89 1    
    63   32   33 2    
    64   32   34 am   BACKBONE|DICT|INTERRES
    65   34   35 1    
    66   34   90 1    
    67   35   36 1    
    68   35   37 1    
    69   35   91 1    
    70   36   92 1    
    71   36   93 1    
    72   36   94 1    
    73   37   38 2    
    74   37   39 am   BACKBONE|DICT|INTERRES
    75   39   40 1    
    76   39   95 1    
    77   40   41 1    
    78   40   42 1    
    79   40   96 1    
    80   41   97 1    
    81   41   98 1    
    82   41   99 1    
    83   42   43 2    
    84   42   44 am   BACKBONE|DICT|INTERRES
    85   44   45 1    
    86   44  100 1    
    87   45   46 1    
    88   45   47 1    
    89   45  101 1    
    90   46  102 1    
    91   46  103 1    
    92   46  104 1    
    93   47   48 2    
    94   47   49 am   BACKBONE|DICT|INTERRES
    95   49   50 1    
    96   49  105 1    
    97   50   51 1    
    98   50   52 1    
    99   50  106 1    
   100   51  107 1    
   101   51  108 1    
   102   51  109 1    
   103   52   53 2    
   104   52   54 am   BACKBONE|DICT|INTERRES
   105   54   55 1    
   106   54  110 1    
   107   55   56 1    
   108   55   59 1    
   109   55  111 1    
   110   56   57 am   BACKBONE|DICT|INTERRES
   111   56   58 2    
   112   57  112 1    
   113   57  113 1    
   114   59   60 1    
   115   59  114 1    
   116   59  115 1    
   117   60   61 1    
   118   61  116 1    
   119   61  117 1    
@<TRIPOS>SUBSTRUCTURE
     1 UNK         1 GROUP             0       ****    0 ROOT    
