@<TRIPOS>MOLECULE
3R8
117   119    1
SMALL
USER_CHARGES


@<TRIPOS>ATOM
      1 CA         13.4486  -23.9054  -43.8542 C.3       0 UNK        -0.2013 
      2 C          14.7666  -24.6610  -43.9295 C.2       0 UNK         0.4866 
      3 O          15.5775  -24.5633  -43.0075 O.2       0 UNK        -0.5176 
      4 N          14.9865  -25.4023  -45.0251 N.am      1 UNK        -0.4884 
      5 CA         16.1570  -26.2385  -45.3441 C.3       1 UNK         0.0853 
      6 C6         16.4378  -27.3630  -44.3116 C.3       10 UNK        -0.0849 
      7 S7         15.0967  -28.6006  -44.2437 S.3       10 UNK        -0.2776 
      8 C8         15.6414  -29.8328  -45.4745 C.3       10 UNK         0.0316 
      9 C9         16.9093  -30.5560  -45.0422 C.ar      10 UNK        -0.0863 
     10 C10        16.8428  -31.6218  -44.1409 C.ar      10 UNK        -0.1009 
     11 C11        18.0076  -32.2773  -43.7314 C.ar      10 UNK        -0.0712 
     12 C12        19.2468  -31.8471  -44.2194 C.ar      10 UNK        -0.0894 
     13 C13        19.3302  -30.7801  -45.1208 C.ar      10 UNK        -0.0745 
     14 C14        18.1509  -30.1597  -45.5470 C.ar      10 UNK        -0.0972 
     15 C15        20.6904  -30.3476  -45.6669 C.3       10 UNK         0.0209 
     16 S16        20.8646  -28.5436  -45.9029 S.3       10 UNK        -0.2568 
     17 C17        21.3389  -27.9722  -44.2395 C.3       10 UNK        -0.0983 
     18 CA         21.6372  -26.4496  -44.2459 C.3       3 UNK         0.0876 
     19 N          20.4117  -25.6553  -44.3639 N.am      3 UNK        -0.4424 
     20 C          20.3636  -24.3883  -44.7953 C.2       2 UNK         0.4918 
     21 O          21.3491  -23.7815  -45.2193 O.2       2 UNK        -0.4875 
     22 CA         18.9997  -23.6658  -44.7214 C.3       2 UNK         0.0481 
     23 CB         18.8409  -22.5940  -45.8206 C.3       2 UNK        -0.1831 
     24 N          17.8331  -24.5592  -44.6940 N.am      2 UNK        -0.4498 
     25 C          17.4326  -25.4217  -45.6391 C.2       1 UNK         0.5027 
     26 O          18.0202  -25.5922  -46.7075 O.2       1 UNK        -0.4969 
     27 C          22.4170  -26.0260  -42.9856 C.2       3 UNK         0.5005 
     28 O          21.8053  -25.6827  -41.9696 O.2       3 UNK        -0.5279 
     29 N          23.7536  -26.0800  -43.0692 N.am      4 UNK        -0.4463 
     30 CA         24.6691  -25.8799  -41.9418 C.3       4 UNK         0.0283 
     31 CB         26.0988  -25.7159  -42.4826 C.3       4 UNK        -0.1875 
     32 C          24.6044  -27.0658  -40.9675 C.2       4 UNK         0.4949 
     33 O          24.2511  -28.1681  -41.3851 O.2       4 UNK        -0.5039 
     34 N          24.9879  -26.8420  -39.7039 N.am      5 UNK        -0.4663 
     35 CA         24.8845  -27.8051  -38.5948 C.3       5 UNK         0.0242 
     36 CB         25.4518  -27.1631  -37.3183 C.3       5 UNK        -0.1982 
     37 C          25.5362  -29.1826  -38.8336 C.2       5 UNK         0.5017 
     38 O          25.0673  -30.1727  -38.2727 O.2       5 UNK        -0.5012 
     39 N          26.5842  -29.2257  -39.6672 N.am      6 UNK        -0.4439 
     40 CA         27.2637  -30.4530  -40.0895 C.3       6 UNK         0.0297 
     41 CB         28.6495  -30.0890  -40.6474 C.3       6 UNK        -0.2006 
     42 C          26.4730  -31.2782  -41.1253 C.2       6 UNK         0.4892 
     43 O          26.7183  -32.4802  -41.2344 O.2       6 UNK        -0.5089 
     44 N          25.5709  -30.6318  -41.8764 N.am      7 UNK        -0.4243 
     45 CA         24.7698  -31.2378  -42.9434 C.3       7 UNK         0.0196 
     46 CB         24.8857  -30.3644  -44.2043 C.3       7 UNK        -0.2007 
     47 C          23.2925  -31.3948  -42.5524 C.2       7 UNK         0.5020 
     48 O          22.6212  -32.2673  -43.1037 O.2       7 UNK        -0.5147 
     49 N          22.8005  -30.5449  -41.6410 N.am      8 UNK        -0.4734 
     50 CA         21.4162  -30.4615  -41.1694 C.3       8 UNK         0.0238 
     51 CB         21.2301  -29.1329  -40.4141 C.3       8 UNK        -0.1912 
     52 C          20.9726  -31.6759  -40.3300 C.2       8 UNK         0.5038 
     53 O          20.7129  -31.5439  -39.1317 O.2       8 UNK        -0.5046 
     54 N          20.8567  -32.8241  -41.0025 N.am      9 UNK        -0.4200 
     55 CA         20.2970  -34.0906  -40.5130 C.3       9 UNK         0.0839 
     56 C          21.2049  -34.8041  -39.4662 C.2       9 UNK         0.5513 
     57 N          20.7042  -35.8266  -38.7843 N.am      9 UNK        -0.7519 
     58 O          22.3780  -34.4782  -39.2948 O.2       9 UNK        -0.4960 
     59 C59        18.7995  -33.9798  -40.0712 C.3       10 UNK        -0.0876 
     60 S60        17.7267  -32.8640  -41.0544 S.3       10 UNK        -0.2414 
     61 C61        17.9227  -33.4510  -42.7659 C.3       10 UNK         0.0169 
     62 H62        13.6344  -22.8345  -43.7760 H         1 UNK         0.0903 
     63 H63        12.8264  -24.0788  -44.7320 H         1 UNK         0.0903 
     64 H64        12.8877  -24.2191  -42.9743 H         1 UNK         0.0903 
     65 H65        14.2740  -25.4053  -45.7426 H         1 UNK         0.3096 
     66 H66        15.9082  -26.7270  -46.2880 H         1 UNK         0.1121 
     67 H67        16.5632  -26.9500  -43.3101 H         1 UNK         0.0849 
     68 H68        17.3814  -27.8617  -44.5264 H         1 UNK         0.0849 
     69 H69        14.8414  -30.5599  -45.6220 H         1 UNK         0.0865 
     70 H70        15.7854  -29.3449  -46.4397 H         1 UNK         0.0865 
     71 H71        15.8842  -31.9380  -43.7520 H         1 UNK         0.1346 
     72 H72        20.1485  -32.3539  -43.9068 H         1 UNK         0.1412 
     73 H73        18.1993  -29.3504  -46.2626 H         1 UNK         0.1426 
     74 H74        20.8358  -30.8340  -46.6320 H         1 UNK         0.0716 
     75 H75        21.4969  -30.6994  -45.0229 H         1 UNK         0.0716 
     76 H76        22.2177  -28.5420  -43.9318 H         1 UNK         0.0695 
     77 H77        20.5468  -28.2189  -43.5301 H         1 UNK         0.0695 
     78 H78        22.2687  -26.2277  -45.1098 H         1 UNK         0.0983 
     79 H79        19.5710  -26.0687  -43.9929 H         1 UNK         0.3095 
     80 H80        18.9935  -23.1485  -43.7612 H         1 UNK         0.0454 
     81 H81        17.8826  -22.0812  -45.7399 H         1 UNK         0.0851 
     82 H82        18.9081  -23.0254  -46.8197 H         1 UNK         0.0851 
     83 H83        19.6189  -21.8336  -45.7435 H         1 UNK         0.0851 
     84 H84        17.2331  -24.4868  -43.8738 H         1 UNK         0.2976 
     85 H85        24.1728  -26.3993  -43.9304 H         1 UNK         0.3116 
     86 H86        24.3791  -24.9701  -41.4117 H         1 UNK         0.0646 
     87 H87        26.4382  -26.6095  -43.0086 H         1 UNK         0.0847 
     88 H88        26.8062  -25.5261  -41.6743 H         1 UNK         0.0847 
     89 H89        26.1682  -24.8743  -43.1721 H         1 UNK         0.0847 
     90 H90        25.2920  -25.9109  -39.4556 H         1 UNK         0.3040 
     91 H91        23.8202  -27.9894  -38.4349 H         1 UNK         0.1015 
     92 H92        26.5068  -26.9093  -37.4292 H         1 UNK         0.0786 
     93 H93        25.3677  -27.8415  -36.4678 H         1 UNK         0.0786 
     94 H94        24.9118  -26.2530  -37.0562 H         1 UNK         0.0786 
     95 H95        26.9007  -28.3580  -40.0752 H         1 UNK         0.3172 
     96 H96        27.4089  -31.0845  -39.2103 H         1 UNK         0.0595 
     97 H97        28.5765  -29.4492  -41.5279 H         1 UNK         0.0839 
     98 H98        29.1989  -30.9846  -40.9416 H         1 UNK         0.0839 
     99 H99        29.2548  -29.5711  -39.9032 H         1 UNK         0.0839 
    100 H100       25.3822  -29.6529  -41.6813 H         1 UNK         0.2998 
    101 H101       25.1479  -32.2334  -43.1849 H         1 UNK         0.0822 
    102 H102       25.9162  -30.3157  -44.5562 H         1 UNK         0.0787 
    103 H103       24.2835  -30.7684  -45.0195 H         1 UNK         0.0787 
    104 H104       24.5472  -29.3439  -44.0214 H         1 UNK         0.0787 
    105 H105       23.4165  -29.8068  -41.3114 H         1 UNK         0.3055 
    106 H106       20.7661  -30.4299  -42.0465 H         1 UNK         0.1106 
    107 H107       20.2004  -29.0161  -40.0740 H         1 UNK         0.0828 
    108 H108       21.8742  -29.0766  -39.5362 H         1 UNK         0.0828 
    109 H109       21.4569  -28.2781  -41.0500 H         1 UNK         0.0828 
    110 H110       21.2424  -32.8412  -41.9416 H         1 UNK         0.2931 
    111 H111       20.3345  -34.7505  -41.3791 H         1 UNK         0.0412 
    112 H112       19.7559  -36.1385  -38.9219 H         1 UNK         0.3472 
    113 H113       21.2940  -36.3031  -38.1194 H         1 UNK         0.3472 
    114 H114       18.7480  -33.6251  -39.0401 H         1 UNK         0.0970 
    115 H115       18.3357  -34.9672  -40.0694 H         1 UNK         0.0970 
    116 H116       17.0713  -34.0830  -43.0224 H         1 UNK         0.0612 
    117 H117       18.8053  -34.0800  -42.8689 H         1 UNK         0.0612 
@<TRIPOS>BOND
     1    1    2 1    
     2    1   62 1    
     3    1   63 1    
     4    1   64 1    
     5    2    3 2    
     6    2    4 am   BACKBONE|DICT|INTERRES
     7    4    5 1    
     8    4   65 1    
     9    5    6 1    
    10    5   25 1    
    11    5   66 1    
    12    6    7 1    
    13    6   67 1    
    14    6   68 1    
    15    7    8 1    
    16    8    9 1    
    17    8   69 1    
    18    8   70 1    
    19    9   10 ar   
    20    9   14 ar   
    21   10   11 ar   
    22   10   71 1    
    23   11   12 ar   
    24   11   61 1    
    25   12   13 ar   
    26   12   72 1    
    27   13   14 ar   
    28   13   15 1    
    29   14   73 1    
    30   15   16 1    
    31   15   74 1    
    32   15   75 1    
    33   16   17 1    
    34   17   18 1    
    35   17   76 1    
    36   17   77 1    
    37   18   19 1    
    38   18   27 1    
    39   18   78 1    
    40   19   20 am   BACKBONE|DICT|INTERRES
    41   19   79 1    
    42   20   21 2    
    43   20   22 1    
    44   22   23 1    
    45   22   24 1    
    46   22   80 1    
    47   23   81 1    
    48   23   82 1    
    49   23   83 1    
    50   24   25 am   BACKBONE|DICT|INTERRES
    51   24   84 1    
    52   25   26 2    
    53   27   28 2    
    54   27   29 am   BACKBONE|DICT|INTERRES
    55   29   30 1    
    56   29   85 1    
    57   30   31 1    
    58   30   32 1    
    59   30   86 1    
    60   31   87 1    
    61   31   88 1    
    62   31   89 1    
    63   32   33 2    
    64   32   34 am   BACKBONE|DICT|INTERRES
    65   34   35 1    
    66   34   90 1    
    67   35   36 1    
    68   35   37 1    
    69   35   91 1    
    70   36   92 1    
    71   36   93 1    
    72   36   94 1    
    73   37   38 2    
    74   37   39 am   BACKBONE|DICT|INTERRES
    75   39   40 1    
    76   39   95 1    
    77   40   41 1    
    78   40   42 1    
    79   40   96 1    
    80   41   97 1    
    81   41   98 1    
    82   41   99 1    
    83   42   43 2    
    84   42   44 am   BACKBONE|DICT|INTERRES
    85   44   45 1    
    86   44  100 1    
    87   45   46 1    
    88   45   47 1    
    89   45  101 1    
    90   46  102 1    
    91   46  103 1    
    92   46  104 1    
    93   47   48 2    
    94   47   49 am   BACKBONE|DICT|INTERRES
    95   49   50 1    
    96   49  105 1    
    97   50   51 1    
    98   50   52 1    
    99   50  106 1    
   100   51  107 1    
   101   51  108 1    
   102   51  109 1    
   103   52   53 2    
   104   52   54 am   BACKBONE|DICT|INTERRES
   105   54   55 1    
   106   54  110 1    
   107   55   56 1    
   108   55   59 1    
   109   55  111 1    
   110   56   57 am   BACKBONE|DICT|INTERRES
   111   56   58 2    
   112   57  112 1    
   113   57  113 1    
   114   59   60 1    
   115   59  114 1    
   116   59  115 1    
   117   60   61 1    
   118   61  116 1    
   119   61  117 1    
@<TRIPOS>SUBSTRUCTURE
     1 UNK         1 GROUP             0       ****    0 ROOT    
