@<TRIPOS>MOLECULE
3R8
117   119    1
SMALL
USER_CHARGES


@<TRIPOS>ATOM
      1 CA         13.8588  -24.4665  -48.8222 C.3       0 UNK        -0.2013 
      2 C          14.8636  -25.5852  -48.5901 C.2       0 UNK         0.4866 
      3 O          15.5277  -26.0172  -49.5331 O.2       0 UNK        -0.5176 
      4 N          14.9753  -26.0635  -47.3444 N.am      1 UNK        -0.4884 
      5 CA         15.9408  -27.0858  -46.9294 C.3       1 UNK         0.0853 
      6 C6         15.5351  -27.7145  -45.5723 C.3       10 UNK        -0.0849 
      7 S7         16.2839  -29.3579  -45.3065 S.3       10 UNK        -0.2776 
      8 C8         15.7031  -29.7501  -43.6259 C.3       10 UNK         0.0316 
      9 C9         16.6511  -29.2298  -42.5533 C.ar      10 UNK        -0.0863 
     10 C10        17.6470  -30.0643  -42.0337 C.ar      10 UNK        -0.1009 
     11 C11        18.4901  -29.6124  -41.0140 C.ar      10 UNK        -0.0712 
     12 C12        18.3379  -28.3154  -40.5193 C.ar      10 UNK        -0.0894 
     13 C13        17.3652  -27.4625  -41.0479 C.ar      10 UNK        -0.0745 
     14 C14        16.5159  -27.9293  -42.0559 C.ar      10 UNK        -0.0972 
     15 C15        17.2382  -26.0370  -40.5296 C.3       10 UNK         0.0209 
     16 S16        18.7647  -25.0757  -40.7909 S.3       10 UNK        -0.2568 
     17 C17        18.8886  -25.0437  -42.6120 C.3       10 UNK        -0.0983 
     18 CA         19.8410  -26.1198  -43.1964 C.3       3 UNK         0.0876 
     19 N          19.6651  -26.2131  -44.6447 N.am      3 UNK        -0.4424 
     20 C          20.1505  -27.1726  -45.4401 C.2       2 UNK         0.4918 
     21 O          20.7965  -28.1439  -45.0437 O.2       2 UNK        -0.4875 
     22 CA         19.7901  -27.0404  -46.9319 C.3       2 UNK         0.0481 
     23 CB         20.6279  -27.9663  -47.8318 C.3       2 UNK        -0.1831 
     24 N          18.3713  -27.3354  -47.1329 N.am      2 UNK        -0.4498 
     25 C          17.3645  -26.4961  -46.8596 C.2       1 UNK         0.5027 
     26 O          17.5300  -25.3247  -46.5038 O.2       1 UNK        -0.4969 
     27 C          21.3178  -25.8561  -42.8323 C.2       3 UNK         0.5005 
     28 O          21.9850  -25.0650  -43.5056 O.2       3 UNK        -0.5279 
     29 N          21.7855  -26.5057  -41.7628 N.am      4 UNK        -0.4463 
     30 CA         23.1307  -26.4232  -41.2018 C.3       4 UNK         0.0283 
     31 CB         24.1373  -27.1494  -42.1230 C.3       4 UNK        -0.1875 
     32 C          23.0833  -27.0387  -39.7926 C.2       4 UNK         0.4949 
     33 O          21.9948  -27.2137  -39.2370 O.2       4 UNK        -0.5039 
     34 N          24.2546  -27.3952  -39.2481 N.am      5 UNK        -0.4663 
     35 CA         24.3742  -28.3302  -38.1247 C.3       5 UNK         0.0242 
     36 CB         25.8191  -28.3103  -37.6014 C.3       5 UNK        -0.1982 
     37 C          23.9907  -29.7456  -38.5912 C.2       5 UNK         0.5017 
     38 O          24.2717  -30.0825  -39.7417 O.2       5 UNK        -0.5012 
     39 N          23.3792  -30.5418  -37.7026 N.am      6 UNK        -0.4439 
     40 CA         22.7033  -31.8176  -37.9948 C.3       6 UNK         0.0297 
     41 CB         22.2608  -32.4688  -36.6743 C.3       6 UNK        -0.2006 
     42 C          23.4781  -32.8365  -38.8544 C.2       6 UNK         0.4892 
     43 O          22.8606  -33.5411  -39.6534 O.2       6 UNK        -0.5089 
     44 N          24.8051  -32.8923  -38.6864 N.am      7 UNK        -0.4243 
     45 CA         25.7007  -33.7670  -39.4479 C.3       7 UNK         0.0196 
     46 CB         26.9963  -33.9636  -38.6428 C.3       7 UNK        -0.2007 
     47 C          26.0268  -33.2508  -40.8639 C.2       7 UNK         0.5020 
     48 O          26.5271  -34.0299  -41.6759 O.2       7 UNK        -0.5147 
     49 N          25.7817  -31.9621  -41.1330 N.am      8 UNK        -0.4734 
     50 CA         26.1682  -31.2662  -42.3631 C.3       8 UNK         0.0238 
     51 CB         26.9786  -30.0165  -41.9729 C.3       8 UNK        -0.1912 
     52 C          24.9706  -30.8720  -43.2452 C.2       8 UNK         0.5038 
     53 O          25.2011  -30.3529  -44.3387 O.2       8 UNK        -0.5046 
     54 N          23.7343  -31.0898  -42.7727 N.am      9 UNK        -0.4200 
     55 CA         22.4870  -30.7568  -43.4841 C.3       9 UNK         0.0839 
     56 C          22.3518  -31.4528  -44.8653 C.2       9 UNK         0.5513 
     57 N          21.7346  -30.7815  -45.8258 N.am      9 UNK        -0.7519 
     58 O          22.7492  -32.6012  -45.0535 O.2       9 UNK        -0.4960 
     59 C59        21.2278  -31.0468  -42.6292 C.3       10 UNK        -0.0876 
     60 S60        21.2057  -30.0998  -41.0788 S.3       10 UNK        -0.2414 
     61 C61        19.5621  -30.5172  -40.4289 C.3       10 UNK         0.0169 
     62 H62        13.1182  -24.7742  -49.5599 H         1 UNK         0.0903 
     63 H63        13.3328  -24.1935  -47.9075 H         1 UNK         0.0903 
     64 H64        14.3667  -23.5789  -49.1987 H         1 UNK         0.0903 
     65 H65        14.4311  -25.6448  -46.6033 H         1 UNK         0.3096 
     66 H66        15.9294  -27.8675  -47.6932 H         1 UNK         0.1121 
     67 H67        15.7844  -27.0505  -44.7432 H         1 UNK         0.0849 
     68 H68        14.4528  -27.8505  -45.5351 H         1 UNK         0.0849 
     69 H69        14.6993  -29.3508  -43.4724 H         1 UNK         0.0865 
     70 H70        15.6075  -30.8334  -43.5373 H         1 UNK         0.0865 
     71 H71        17.7588  -31.0700  -42.4156 H         1 UNK         0.1346 
     72 H72        18.9942  -27.9611  -39.7351 H         1 UNK         0.1412 
     73 H73        15.7464  -27.2807  -42.4501 H         1 UNK         0.1426 
     74 H74        16.4030  -25.5181  -41.0026 H         1 UNK         0.0716 
     75 H75        17.0179  -26.0661  -39.4616 H         1 UNK         0.0716 
     76 H76        19.2068  -24.0449  -42.9169 H         1 UNK         0.0695 
     77 H77        17.8856  -25.1715  -43.0231 H         1 UNK         0.0695 
     78 H78        19.5605  -27.0947  -42.7926 H         1 UNK         0.0983 
     79 H79        19.1126  -25.4840  -45.0791 H         1 UNK         0.3095 
     80 H80        19.9934  -26.0111  -47.2355 H         1 UNK         0.0454 
     81 H81        20.4323  -27.7728  -48.8865 H         1 UNK         0.0851 
     82 H82        20.4156  -29.0185  -47.6425 H         1 UNK         0.0851 
     83 H83        21.6952  -27.8115  -47.6678 H         1 UNK         0.0851 
     84 H84        18.1458  -28.2947  -47.3564 H         1 UNK         0.2976 
     85 H85        21.1596  -27.0821  -41.2106 H         1 UNK         0.3116 
     86 H86        23.4087  -25.3721  -41.1053 H         1 UNK         0.0646 
     87 H87        24.0801  -26.7930  -43.1512 H         1 UNK         0.0847 
     88 H88        25.1654  -26.9941  -41.7964 H         1 UNK         0.0847 
     89 H89        23.9540  -28.2243  -42.1362 H         1 UNK         0.0847 
     90 H90        25.0959  -27.2337  -39.7811 H         1 UNK         0.3040 
     91 H91        23.6964  -28.0146  -37.3283 H         1 UNK         0.1015 
     92 H92        26.5298  -28.6335  -38.3637 H         1 UNK         0.0786 
     93 H93        25.9342  -28.9765  -36.7454 H         1 UNK         0.0786 
     94 H94        26.1087  -27.3115  -37.2742 H         1 UNK         0.0786 
     95 H95        23.2352  -30.1780  -36.7714 H         1 UNK         0.3172 
     96 H96        21.8011  -31.5647  -38.5531 H         1 UNK         0.0595 
     97 H97        23.1119  -32.6927  -36.0299 H         1 UNK         0.0839 
     98 H98        21.7355  -33.4076  -36.8573 H         1 UNK         0.0839 
     99 H99        21.5783  -31.8243  -36.1202 H         1 UNK         0.0839 
    100 H100       25.2310  -32.2646  -38.0200 H         1 UNK         0.2998 
    101 H101       25.2213  -34.7419  -39.5618 H         1 UNK         0.0822 
    102 H102       26.7935  -34.3954  -37.6626 H         1 UNK         0.0787 
    103 H103       27.6782  -34.6417  -39.1581 H         1 UNK         0.0787 
    104 H104       27.5254  -33.0214  -38.4935 H         1 UNK         0.0787 
    105 H105       25.3082  -31.3867  -40.4371 H         1 UNK         0.3055 
    106 H106       26.8076  -31.9055  -42.9758 H         1 UNK         0.1106 
    107 H107       27.8673  -30.2841  -41.4013 H         1 UNK         0.0828 
    108 H108       27.3155  -29.4722  -42.8561 H         1 UNK         0.0828 
    109 H109       26.3881  -29.3264  -41.3694 H         1 UNK         0.0828 
    110 H110       23.6318  -31.4855  -41.8496 H         1 UNK         0.2931 
    111 H111       22.5255  -29.6804  -43.6626 H         1 UNK         0.0412 
    112 H112       21.3921  -29.8417  -45.6436 H         1 UNK         0.3472 
    113 H113       21.6113  -31.2061  -46.7309 H         1 UNK         0.3472 
    114 H114       20.3251  -30.7895  -43.1874 H         1 UNK         0.0970 
    115 H115       21.1580  -32.1106  -42.3939 H         1 UNK         0.0970 
    116 H116       19.3403  -31.5680  -40.6214 H         1 UNK         0.0612 
    117 H117       19.5780  -30.4021  -39.3441 H         1 UNK         0.0612 
@<TRIPOS>BOND
     1    1    2 1    
     2    1   62 1    
     3    1   63 1    
     4    1   64 1    
     5    2    3 2    
     6    2    4 am   BACKBONE|DICT|INTERRES
     7    4    5 1    
     8    4   65 1    
     9    5    6 1    
    10    5   25 1    
    11    5   66 1    
    12    6    7 1    
    13    6   67 1    
    14    6   68 1    
    15    7    8 1    
    16    8    9 1    
    17    8   69 1    
    18    8   70 1    
    19    9   10 ar   
    20    9   14 ar   
    21   10   11 ar   
    22   10   71 1    
    23   11   12 ar   
    24   11   61 1    
    25   12   13 ar   
    26   12   72 1    
    27   13   14 ar   
    28   13   15 1    
    29   14   73 1    
    30   15   16 1    
    31   15   74 1    
    32   15   75 1    
    33   16   17 1    
    34   17   18 1    
    35   17   76 1    
    36   17   77 1    
    37   18   19 1    
    38   18   27 1    
    39   18   78 1    
    40   19   20 am   BACKBONE|DICT|INTERRES
    41   19   79 1    
    42   20   21 2    
    43   20   22 1    
    44   22   23 1    
    45   22   24 1    
    46   22   80 1    
    47   23   81 1    
    48   23   82 1    
    49   23   83 1    
    50   24   25 am   BACKBONE|DICT|INTERRES
    51   24   84 1    
    52   25   26 2    
    53   27   28 2    
    54   27   29 am   BACKBONE|DICT|INTERRES
    55   29   30 1    
    56   29   85 1    
    57   30   31 1    
    58   30   32 1    
    59   30   86 1    
    60   31   87 1    
    61   31   88 1    
    62   31   89 1    
    63   32   33 2    
    64   32   34 am   BACKBONE|DICT|INTERRES
    65   34   35 1    
    66   34   90 1    
    67   35   36 1    
    68   35   37 1    
    69   35   91 1    
    70   36   92 1    
    71   36   93 1    
    72   36   94 1    
    73   37   38 2    
    74   37   39 am   BACKBONE|DICT|INTERRES
    75   39   40 1    
    76   39   95 1    
    77   40   41 1    
    78   40   42 1    
    79   40   96 1    
    80   41   97 1    
    81   41   98 1    
    82   41   99 1    
    83   42   43 2    
    84   42   44 am   BACKBONE|DICT|INTERRES
    85   44   45 1    
    86   44  100 1    
    87   45   46 1    
    88   45   47 1    
    89   45  101 1    
    90   46  102 1    
    91   46  103 1    
    92   46  104 1    
    93   47   48 2    
    94   47   49 am   BACKBONE|DICT|INTERRES
    95   49   50 1    
    96   49  105 1    
    97   50   51 1    
    98   50   52 1    
    99   50  106 1    
   100   51  107 1    
   101   51  108 1    
   102   51  109 1    
   103   52   53 2    
   104   52   54 am   BACKBONE|DICT|INTERRES
   105   54   55 1    
   106   54  110 1    
   107   55   56 1    
   108   55   59 1    
   109   55  111 1    
   110   56   57 am   BACKBONE|DICT|INTERRES
   111   56   58 2    
   112   57  112 1    
   113   57  113 1    
   114   59   60 1    
   115   59  114 1    
   116   59  115 1    
   117   60   61 1    
   118   61  116 1    
   119   61  117 1    
@<TRIPOS>SUBSTRUCTURE
     1 UNK         1 GROUP             0       ****    0 ROOT    
