@<TRIPOS>MOLECULE
3R8
117   119    1
SMALL
USER_CHARGES


@<TRIPOS>ATOM
      1 CA         18.3108  -23.0158  -49.1277 C.3       0 UNK        -0.2013 
      2 C          19.0870  -23.4673  -47.8995 C.2       0 UNK         0.4866 
      3 O          19.7527  -22.6513  -47.2607 O.2       0 UNK        -0.5176 
      4 N          19.0156  -24.7624  -47.5701 N.am      1 UNK        -0.4884 
      5 CA         19.6311  -25.3627  -46.3829 C.3       1 UNK         0.0853 
      6 C6         19.7729  -26.9054  -46.5116 C.3       10 UNK        -0.0849 
      7 S7         18.2818  -27.7863  -47.1105 S.3       10 UNK        -0.2776 
      8 C8         17.4241  -28.2699  -45.5662 C.3       10 UNK         0.0316 
      9 C9         18.0677  -29.3782  -44.7267 C.ar      10 UNK        -0.0863 
     10 C10        19.2825  -29.9936  -45.0617 C.ar      10 UNK        -0.1009 
     11 C11        19.8413  -30.9709  -44.2339 C.ar      10 UNK        -0.0712 
     12 C12        19.1678  -31.3517  -43.0708 C.ar      10 UNK        -0.0894 
     13 C13        17.9359  -30.7852  -42.7434 C.ar      10 UNK        -0.0745 
     14 C14        17.3996  -29.7912  -43.5673 C.ar      10 UNK        -0.0972 
     15 C15        17.1854  -31.2654  -41.5075 C.3       10 UNK         0.0209 
     16 S16        18.0281  -30.8003  -39.9608 S.3       10 UNK        -0.2568 
     17 C17        17.8398  -28.9893  -39.9914 C.3       10 UNK        -0.0983 
     18 CA         19.1140  -28.2877  -40.5222 C.3       3 UNK         0.0876 
     19 N          18.7839  -27.0229  -41.1830 N.am      3 UNK        -0.4424 
     20 C          19.6508  -26.2781  -41.8762 C.2       2 UNK         0.4918 
     21 O          20.8536  -26.5323  -41.9845 O.2       2 UNK        -0.4875 
     22 CA         19.0781  -25.0595  -42.6048 C.3       2 UNK         0.0481 
     23 CB         19.5024  -23.7469  -41.9284 C.3       2 UNK        -0.1831 
     24 N          19.6051  -25.1087  -43.9618 N.am      2 UNK        -0.4498 
     25 C          18.8925  -24.9765  -45.0845 C.2       1 UNK         0.5027 
     26 O          17.7078  -24.6313  -45.1140 O.2       1 UNK        -0.4969 
     27 C          20.1649  -28.0943  -39.4114 C.2       3 UNK         0.5005 
     28 O          20.0637  -27.1335  -38.6439 O.2       3 UNK        -0.5279 
     29 N          21.1688  -28.9820  -39.3735 N.am      4 UNK        -0.4463 
     30 CA         22.3502  -29.0027  -38.4982 C.3       4 UNK         0.0283 
     31 CB         21.9685  -29.0311  -37.0057 C.3       4 UNK        -0.1875 
     32 C          23.3702  -27.8893  -38.7993 C.2       4 UNK         0.4949 
     33 O          24.5713  -28.1482  -38.7301 O.2       4 UNK        -0.5039 
     34 N          22.8888  -26.6872  -39.1405 N.am      5 UNK        -0.4663 
     35 CA         23.6914  -25.5298  -39.5350 C.3       5 UNK         0.0242 
     36 CB         22.7990  -24.2800  -39.5812 C.3       5 UNK        -0.1982 
     37 C          24.4164  -25.7450  -40.8730 C.2       5 UNK         0.5017 
     38 O          25.6175  -25.4837  -40.9512 O.2       5 UNK        -0.5012 
     39 N          23.6876  -26.2325  -41.8884 N.am      6 UNK        -0.4439 
     40 CA         24.2552  -26.6429  -43.1744 C.3       6 UNK         0.0297 
     41 CB         23.1664  -26.6533  -44.2623 C.3       6 UNK        -0.2006 
     42 C          24.9335  -28.0153  -43.0552 C.2       6 UNK         0.4892 
     43 O          26.1063  -28.1459  -43.4069 O.2       6 UNK        -0.5089 
     44 N          24.1842  -28.9971  -42.5399 N.am      7 UNK        -0.4243 
     45 CA         24.5972  -30.3744  -42.2883 C.3       7 UNK         0.0196 
     46 CB         24.9104  -31.1080  -43.6111 C.3       7 UNK        -0.2007 
     47 C          23.4705  -31.0851  -41.5291 C.2       7 UNK         0.5020 
     48 O          22.3524  -30.5661  -41.4530 O.2       7 UNK        -0.5147 
     49 N          23.7711  -32.2800  -41.0143 N.am      8 UNK        -0.4734 
     50 CA         22.8083  -33.1878  -40.3940 C.3       8 UNK         0.0238 
     51 CB         23.3813  -33.6863  -39.0540 C.3       8 UNK        -0.1912 
     52 C          22.5199  -34.3343  -41.3766 C.2       8 UNK         0.5038 
     53 O          23.0946  -35.4165  -41.2440 O.2       8 UNK        -0.5046 
     54 N          21.6742  -34.0501  -42.3756 N.am      9 UNK        -0.4200 
     55 CA         21.1932  -34.9977  -43.3952 C.3       9 UNK         0.0839 
     56 C          20.4574  -36.2161  -42.7698 C.2       9 UNK         0.5513 
     57 N          20.6594  -37.4090  -43.3118 N.am      9 UNK        -0.7519 
     58 O          19.6720  -36.0777  -41.8341 O.2       9 UNK        -0.4960 
     59 C59        20.2693  -34.3053  -44.4363 C.3       10 UNK        -0.0876 
     60 S60        21.1141  -33.1135  -45.5356 S.3       10 UNK        -0.2414 
     61 C61        21.1986  -31.5711  -44.5698 C.3       10 UNK         0.0169 
     62 H62        17.7809  -23.8419  -49.6016 H         1 UNK         0.0903 
     63 H63        17.5784  -22.2581  -48.8504 H         1 UNK         0.0903 
     64 H64        18.9890  -22.5822  -49.8622 H         1 UNK         0.0903 
     65 H65        18.4305  -25.3883  -48.1066 H         1 UNK         0.3096 
     66 H66        20.6391  -24.9481  -46.3012 H         1 UNK         0.1121 
     67 H67        20.1161  -27.3496  -45.5757 H         1 UNK         0.0849 
     68 H68        20.5671  -27.1195  -47.2286 H         1 UNK         0.0849 
     69 H69        17.2880  -27.3872  -44.9416 H         1 UNK         0.0865 
     70 H70        16.4207  -28.5970  -45.8428 H         1 UNK         0.0865 
     71 H71        19.8154  -29.7113  -45.9576 H         1 UNK         0.1346 
     72 H72        19.5935  -32.0934  -42.4119 H         1 UNK         0.1412 
     73 H73        16.4522  -29.3383  -43.3071 H         1 UNK         0.1426 
     74 H74        17.1002  -32.3524  -41.5453 H         1 UNK         0.0716 
     75 H75        16.1638  -30.8822  -41.4949 H         1 UNK         0.0716 
     76 H76        17.5727  -28.6390  -38.9922 H         1 UNK         0.0695 
     77 H77        16.9801  -28.7515  -40.6199 H         1 UNK         0.0695 
     78 H78        19.5608  -28.9116  -41.3005 H         1 UNK         0.0983 
     79 H79        17.8244  -26.7194  -41.1129 H         1 UNK         0.3095 
     80 H80        17.9879  -25.1265  -42.6091 H         1 UNK         0.0454 
     81 H81        20.5813  -23.5985  -41.9753 H         1 UNK         0.0851 
     82 H82        19.2110  -23.7329  -40.8774 H         1 UNK         0.0851 
     83 H83        19.0308  -22.8896  -42.4086 H         1 UNK         0.0851 
     84 H84        20.5572  -25.4445  -44.0149 H         1 UNK         0.2976 
     85 H85        21.2091  -29.6791  -40.1133 H         1 UNK         0.3116 
     86 H86        22.8515  -29.9468  -38.7168 H         1 UNK         0.0646 
     87 H87        21.5055  -28.0991  -36.6811 H         1 UNK         0.0847 
     88 H88        22.8521  -29.1828  -36.3846 H         1 UNK         0.0847 
     89 H89        21.2761  -29.8444  -36.7887 H         1 UNK         0.0847 
     90 H90        21.8796  -26.5735  -39.1263 H         1 UNK         0.3040 
     91 H91        24.4549  -25.3751  -38.7692 H         1 UNK         0.1015 
     92 H92        21.9681  -24.4069  -40.2739 H         1 UNK         0.0786 
     93 H93        23.3651  -23.4043  -39.9018 H         1 UNK         0.0786 
     94 H94        22.3825  -24.0555  -38.5992 H         1 UNK         0.0786 
     95 H95        22.6914  -26.3930  -41.7518 H         1 UNK         0.3172 
     96 H96        25.0130  -25.9148  -43.4723 H         1 UNK         0.0595 
     97 H97        22.3669  -27.3602  -44.0381 H         1 UNK         0.0839 
     98 H98        23.5872  -26.9372  -45.2279 H         1 UNK         0.0839 
     99 H99        22.7232  -25.6652  -44.3821 H         1 UNK         0.0839 
    100 H100       23.2306  -28.8047  -42.2577 H         1 UNK         0.2998 
    101 H101       25.4838  -30.3605  -41.6512 H         1 UNK         0.0822 
    102 H102       25.7881  -30.6901  -44.1034 H         1 UNK         0.0787 
    103 H103       25.1197  -32.1655  -43.4460 H         1 UNK         0.0787 
    104 H104       24.0795  -31.0464  -44.3131 H         1 UNK         0.0787 
    105 H105       24.7013  -32.6507  -41.1538 H         1 UNK         0.3055 
    106 H106       21.8648  -32.6785  -40.1818 H         1 UNK         0.1106 
    107 H107       22.6990  -34.3912  -38.5771 H         1 UNK         0.0828 
    108 H108       24.3386  -34.1932  -39.1811 H         1 UNK         0.0828 
    109 H109       23.5312  -32.8602  -38.3586 H         1 UNK         0.0828 
    110 H110       21.2866  -33.1219  -42.4199 H         1 UNK         0.2931 
    111 H111       22.0761  -35.3706  -43.9185 H         1 UNK         0.0412 
    112 H112       20.1776  -38.2090  -42.9311 H         1 UNK         0.3472 
    113 H113       21.2938  -37.5292  -44.0866 H         1 UNK         0.3472 
    114 H114       19.8454  -35.0592  -45.1030 H         1 UNK         0.0970 
    115 H115       19.4056  -33.8448  -43.9589 H         1 UNK         0.0970 
    116 H116       21.7640  -31.7510  -43.6621 H         1 UNK         0.0612 
    117 H117       21.7833  -30.8465  -45.1384 H         1 UNK         0.0612 
@<TRIPOS>BOND
     1    1    2 1    
     2    1   62 1    
     3    1   63 1    
     4    1   64 1    
     5    2    3 2    
     6    2    4 am   BACKBONE|DICT|INTERRES
     7    4    5 1    
     8    4   65 1    
     9    5    6 1    
    10    5   25 1    
    11    5   66 1    
    12    6    7 1    
    13    6   67 1    
    14    6   68 1    
    15    7    8 1    
    16    8    9 1    
    17    8   69 1    
    18    8   70 1    
    19    9   10 ar   
    20    9   14 ar   
    21   10   11 ar   
    22   10   71 1    
    23   11   12 ar   
    24   11   61 1    
    25   12   13 ar   
    26   12   72 1    
    27   13   14 ar   
    28   13   15 1    
    29   14   73 1    
    30   15   16 1    
    31   15   74 1    
    32   15   75 1    
    33   16   17 1    
    34   17   18 1    
    35   17   76 1    
    36   17   77 1    
    37   18   19 1    
    38   18   27 1    
    39   18   78 1    
    40   19   20 am   BACKBONE|DICT|INTERRES
    41   19   79 1    
    42   20   21 2    
    43   20   22 1    
    44   22   23 1    
    45   22   24 1    
    46   22   80 1    
    47   23   81 1    
    48   23   82 1    
    49   23   83 1    
    50   24   25 am   BACKBONE|DICT|INTERRES
    51   24   84 1    
    52   25   26 2    
    53   27   28 2    
    54   27   29 am   BACKBONE|DICT|INTERRES
    55   29   30 1    
    56   29   85 1    
    57   30   31 1    
    58   30   32 1    
    59   30   86 1    
    60   31   87 1    
    61   31   88 1    
    62   31   89 1    
    63   32   33 2    
    64   32   34 am   BACKBONE|DICT|INTERRES
    65   34   35 1    
    66   34   90 1    
    67   35   36 1    
    68   35   37 1    
    69   35   91 1    
    70   36   92 1    
    71   36   93 1    
    72   36   94 1    
    73   37   38 2    
    74   37   39 am   BACKBONE|DICT|INTERRES
    75   39   40 1    
    76   39   95 1    
    77   40   41 1    
    78   40   42 1    
    79   40   96 1    
    80   41   97 1    
    81   41   98 1    
    82   41   99 1    
    83   42   43 2    
    84   42   44 am   BACKBONE|DICT|INTERRES
    85   44   45 1    
    86   44  100 1    
    87   45   46 1    
    88   45   47 1    
    89   45  101 1    
    90   46  102 1    
    91   46  103 1    
    92   46  104 1    
    93   47   48 2    
    94   47   49 am   BACKBONE|DICT|INTERRES
    95   49   50 1    
    96   49  105 1    
    97   50   51 1    
    98   50   52 1    
    99   50  106 1    
   100   51  107 1    
   101   51  108 1    
   102   51  109 1    
   103   52   53 2    
   104   52   54 am   BACKBONE|DICT|INTERRES
   105   54   55 1    
   106   54  110 1    
   107   55   56 1    
   108   55   59 1    
   109   55  111 1    
   110   56   57 am   BACKBONE|DICT|INTERRES
   111   56   58 2    
   112   57  112 1    
   113   57  113 1    
   114   59   60 1    
   115   59  114 1    
   116   59  115 1    
   117   60   61 1    
   118   61  116 1    
   119   61  117 1    
@<TRIPOS>SUBSTRUCTURE
     1 UNK         1 GROUP             0       ****    0 ROOT    
