@<TRIPOS>MOLECULE
3R8
117   119    1
SMALL
USER_CHARGES


@<TRIPOS>ATOM
      1 CA         15.5853  -23.3701  -43.6561 C.3       0 UNK        -0.2013 
      2 C          16.4258  -23.8372  -42.4712 C.2       0 UNK         0.4866 
      3 O          16.1960  -23.3806  -41.3527 O.2       0 UNK        -0.5176 
      4 N          17.4055  -24.7301  -42.6533 N.am      1 UNK        -0.4884 
      5 CA         17.8726  -25.3098  -43.9155 C.3       1 UNK         0.0853 
      6 C6         17.4709  -26.8028  -44.0725 C.3       10 UNK        -0.0849 
      7 S7         15.6750  -27.1220  -43.9612 S.3       10 UNK        -0.2776 
      8 C8         15.3922  -28.3566  -45.2780 C.3       10 UNK         0.0316 
      9 C9         16.3472  -29.5430  -45.1972 C.ar      10 UNK        -0.0863 
     10 C10        16.3993  -30.3422  -44.0481 C.ar      10 UNK        -0.1009 
     11 C11        17.3240  -31.3874  -43.9554 C.ar      10 UNK        -0.0712 
     12 C12        18.1609  -31.6648  -45.0372 C.ar      10 UNK        -0.0894 
     13 C13        18.1461  -30.8487  -46.1707 C.ar      10 UNK        -0.0745 
     14 C14        17.2210  -29.8055  -46.2582 C.ar      10 UNK        -0.0972 
     15 C15        19.2311  -31.0111  -47.2249 C.3       10 UNK         0.0209 
     16 S16        20.5885  -29.8046  -46.9867 S.3       10 UNK        -0.2568 
     17 C17        20.8845  -29.8903  -45.1821 C.3       10 UNK        -0.0983 
     18 CA         21.8426  -28.8130  -44.6271 C.3       3 UNK         0.0876 
     19 N          21.4660  -27.4699  -45.0720 N.am      3 UNK        -0.4424 
     20 C          22.1553  -26.3474  -44.8322 C.2       2 UNK         0.4918 
     21 O          23.2374  -26.3169  -44.2473 O.2       2 UNK        -0.4875 
     22 CA         21.4814  -25.0327  -45.2679 C.3       2 UNK         0.0481 
     23 CB         21.8296  -24.7078  -46.7286 C.3       2 UNK        -0.1831 
     24 N          20.0205  -25.0523  -45.0968 N.am      2 UNK        -0.4498 
     25 C          19.4069  -25.1931  -43.9123 C.2       1 UNK         0.5027 
     26 O          20.0162  -25.2989  -42.8434 O.2       1 UNK        -0.4969 
     27 C          21.8711  -28.9114  -43.0868 C.2       3 UNK         0.5005 
     28 O          22.7922  -29.5071  -42.5314 O.2       3 UNK        -0.5279 
     29 N          20.8685  -28.3122  -42.4258 N.am      4 UNK        -0.4463 
     30 CA         20.7342  -28.2783  -40.9684 C.3       4 UNK         0.0283 
     31 CB         19.3125  -27.8458  -40.5761 C.3       4 UNK        -0.1875 
     32 C          21.7864  -27.3731  -40.3147 C.2       4 UNK         0.4949 
     33 O          22.3240  -27.7385  -39.2709 O.2       4 UNK        -0.5039 
     34 N          22.1117  -26.2461  -40.9653 N.am      5 UNK        -0.4663 
     35 CA         23.2131  -25.3559  -40.5812 C.3       5 UNK         0.0242 
     36 CB         23.1632  -24.0780  -41.4334 C.3       5 UNK        -0.1982 
     37 C          24.5921  -26.0358  -40.6851 C.2       5 UNK         0.5017 
     38 O          25.4548  -25.7871  -39.8430 O.2       5 UNK        -0.5012 
     39 N          24.7543  -26.9140  -41.6848 N.am      6 UNK        -0.4439 
     40 CA         25.9164  -27.7896  -41.8645 C.3       6 UNK         0.0297 
     41 CB         25.9983  -28.2035  -43.3440 C.3       6 UNK        -0.2006 
     42 C          25.9033  -29.0365  -40.9527 C.2       6 UNK         0.4892 
     43 O          26.8914  -29.7717  -40.9468 O.2       6 UNK        -0.5089 
     44 N          24.8012  -29.2614  -40.2188 N.am      7 UNK        -0.4243 
     45 CA         24.5163  -30.3993  -39.3346 C.3       7 UNK         0.0196 
     46 CB         25.4881  -30.4267  -38.1357 C.3       7 UNK        -0.2007 
     47 C          24.4304  -31.7520  -40.0714 C.2       7 UNK         0.5020 
     48 O          24.7222  -32.7927  -39.4798 O.2       7 UNK        -0.5147 
     49 N          24.0099  -31.7288  -41.3431 N.am      8 UNK        -0.4734 
     50 CA         23.8813  -32.9118  -42.1991 C.3       8 UNK         0.0238 
     51 CB         23.9557  -32.4768  -43.6715 C.3       8 UNK        -0.1912 
     52 C          22.6012  -33.7248  -41.9345 C.2       8 UNK         0.5038 
     53 O          22.5366  -34.8810  -42.3543 O.2       8 UNK        -0.5046 
     54 N          21.6146  -33.1250  -41.2529 N.am      9 UNK        -0.4200 
     55 CA         20.3476  -33.7710  -40.8629 C.3       9 UNK         0.0839 
     56 C          20.4868  -34.8485  -39.7468 C.2       9 UNK         0.5513 
     57 N          21.6158  -34.9544  -39.0550 N.am      9 UNK        -0.7519 
     58 O          19.5493  -35.6049  -39.5069 O.2       9 UNK        -0.4960 
     59 C59        19.2476  -32.7406  -40.4872 C.3       10 UNK        -0.0876 
     60 S60        18.9689  -31.4885  -41.7807 S.3       10 UNK        -0.2414 
     61 C61        17.5165  -32.1520  -42.6567 C.3       10 UNK         0.0169 
     62 H62        16.1716  -22.7274  -44.3121 H         1 UNK         0.0903 
     63 H63        15.2071  -24.2128  -44.2331 H         1 UNK         0.0903 
     64 H64        14.7244  -22.7979  -43.3108 H         1 UNK         0.0903 
     65 H65        17.9971  -24.9646  -41.8670 H         1 UNK         0.3096 
     66 H66        17.4973  -24.7429  -44.7686 H         1 UNK         0.1121 
     67 H67        17.9466  -27.4171  -43.3058 H         1 UNK         0.0849 
     68 H68        17.8349  -27.1804  -45.0296 H         1 UNK         0.0849 
     69 H69        15.4718  -27.8586  -46.2456 H         1 UNK         0.0865 
     70 H70        14.3665  -28.7209  -45.2068 H         1 UNK         0.0865 
     71 H71        15.7587  -30.1134  -43.2073 H         1 UNK         0.1346 
     72 H72        18.9024  -32.4473  -44.9481 H         1 UNK         0.1412 
     73 H73        17.2243  -29.1648  -47.1297 H         1 UNK         0.1426 
     74 H74        18.8052  -30.8818  -48.2209 H         1 UNK         0.0716 
     75 H75        19.6437  -32.0208  -47.1956 H         1 UNK         0.0716 
     76 H76        21.2385  -30.8931  -44.9388 H         1 UNK         0.0695 
     77 H77        19.9275  -29.7699  -44.6756 H         1 UNK         0.0695 
     78 H78        22.8503  -29.0170  -44.9951 H         1 UNK         0.0983 
     79 H79        20.6107  -27.4062  -45.6031 H         1 UNK         0.3095 
     80 H80        21.8793  -24.2340  -44.6385 H         1 UNK         0.0454 
     81 H81        21.4378  -25.4575  -47.4172 H         1 UNK         0.0851 
     82 H82        22.9105  -24.6689  -46.8713 H         1 UNK         0.0851 
     83 H83        21.4318  -23.7373  -47.0256 H         1 UNK         0.0851 
     84 H84        19.4653  -24.9702  -45.9371 H         1 UNK         0.2976 
     85 H85        20.1789  -27.8033  -42.9558 H         1 UNK         0.3116 
     86 H86        20.8917  -29.2925  -40.5948 H         1 UNK         0.0646 
     87 H87        18.5606  -28.5025  -41.0140 H         1 UNK         0.0847 
     88 H88        19.0927  -26.8258  -40.8892 H         1 UNK         0.0847 
     89 H89        19.1826  -27.8859  -39.4939 H         1 UNK         0.0847 
     90 H90        21.5700  -25.9863  -41.7842 H         1 UNK         0.3040 
     91 H91        23.0639  -25.0761  -39.5360 H         1 UNK         0.1015 
     92 H92        23.9354  -23.3731  -41.1225 H         1 UNK         0.0786 
     93 H93        22.2024  -23.5723  -41.3345 H         1 UNK         0.0786 
     94 H94        23.3223  -24.2888  -42.4908 H         1 UNK         0.0786 
     95 H95        24.0106  -27.0018  -42.3686 H         1 UNK         0.3172 
     96 H96        26.8173  -27.2220  -41.6229 H         1 UNK         0.0595 
     97 H97        25.1388  -28.8027  -43.6445 H         1 UNK         0.0839 
     98 H98        26.8918  -28.7992  -43.5354 H         1 UNK         0.0839 
     99 H99        26.0439  -27.3328  -43.9986 H         1 UNK         0.0839 
    100 H100       24.0440  -28.5948  -40.3037 H         1 UNK         0.2998 
    101 H101       23.5167  -30.2203  -38.9364 H         1 UNK         0.0822 
    102 H102       25.5158  -29.4632  -37.6268 H         1 UNK         0.0787 
    103 H103       25.1814  -31.1711  -37.3999 H         1 UNK         0.0787 
    104 H104       26.5045  -30.6746  -38.4429 H         1 UNK         0.0787 
    105 H105       23.7272  -30.8377  -41.7525 H         1 UNK         0.3055 
    106 H106       24.7269  -33.5747  -42.0012 H         1 UNK         0.1106 
    107 H107       23.9217  -33.3401  -44.3374 H         1 UNK         0.0828 
    108 H108       24.8822  -31.9417  -43.8809 H         1 UNK         0.0828 
    109 H109       23.1254  -31.8257  -43.9401 H         1 UNK         0.0828 
    110 H110       21.7424  -32.1674  -40.9635 H         1 UNK         0.2931 
    111 H111       19.9884  -34.3067  -41.7439 H         1 UNK         0.0412 
    112 H112       22.3963  -34.3451  -39.2469 H         1 UNK         0.3472 
    113 H113       21.6906  -35.6588  -38.3378 H         1 UNK         0.3472 
    114 H114       18.3019  -33.2436  -40.2754 H         1 UNK         0.0970 
    115 H115       19.5200  -32.2167  -39.5692 H         1 UNK         0.0970 
    116 H116       16.6340  -32.0720  -42.0202 H         1 UNK         0.0612 
    117 H117       17.6643  -33.2122  -42.8680 H         1 UNK         0.0612 
@<TRIPOS>BOND
     1    1    2 1    
     2    1   62 1    
     3    1   63 1    
     4    1   64 1    
     5    2    3 2    
     6    2    4 am   BACKBONE|DICT|INTERRES
     7    4    5 1    
     8    4   65 1    
     9    5    6 1    
    10    5   25 1    
    11    5   66 1    
    12    6    7 1    
    13    6   67 1    
    14    6   68 1    
    15    7    8 1    
    16    8    9 1    
    17    8   69 1    
    18    8   70 1    
    19    9   10 ar   
    20    9   14 ar   
    21   10   11 ar   
    22   10   71 1    
    23   11   12 ar   
    24   11   61 1    
    25   12   13 ar   
    26   12   72 1    
    27   13   14 ar   
    28   13   15 1    
    29   14   73 1    
    30   15   16 1    
    31   15   74 1    
    32   15   75 1    
    33   16   17 1    
    34   17   18 1    
    35   17   76 1    
    36   17   77 1    
    37   18   19 1    
    38   18   27 1    
    39   18   78 1    
    40   19   20 am   BACKBONE|DICT|INTERRES
    41   19   79 1    
    42   20   21 2    
    43   20   22 1    
    44   22   23 1    
    45   22   24 1    
    46   22   80 1    
    47   23   81 1    
    48   23   82 1    
    49   23   83 1    
    50   24   25 am   BACKBONE|DICT|INTERRES
    51   24   84 1    
    52   25   26 2    
    53   27   28 2    
    54   27   29 am   BACKBONE|DICT|INTERRES
    55   29   30 1    
    56   29   85 1    
    57   30   31 1    
    58   30   32 1    
    59   30   86 1    
    60   31   87 1    
    61   31   88 1    
    62   31   89 1    
    63   32   33 2    
    64   32   34 am   BACKBONE|DICT|INTERRES
    65   34   35 1    
    66   34   90 1    
    67   35   36 1    
    68   35   37 1    
    69   35   91 1    
    70   36   92 1    
    71   36   93 1    
    72   36   94 1    
    73   37   38 2    
    74   37   39 am   BACKBONE|DICT|INTERRES
    75   39   40 1    
    76   39   95 1    
    77   40   41 1    
    78   40   42 1    
    79   40   96 1    
    80   41   97 1    
    81   41   98 1    
    82   41   99 1    
    83   42   43 2    
    84   42   44 am   BACKBONE|DICT|INTERRES
    85   44   45 1    
    86   44  100 1    
    87   45   46 1    
    88   45   47 1    
    89   45  101 1    
    90   46  102 1    
    91   46  103 1    
    92   46  104 1    
    93   47   48 2    
    94   47   49 am   BACKBONE|DICT|INTERRES
    95   49   50 1    
    96   49  105 1    
    97   50   51 1    
    98   50   52 1    
    99   50  106 1    
   100   51  107 1    
   101   51  108 1    
   102   51  109 1    
   103   52   53 2    
   104   52   54 am   BACKBONE|DICT|INTERRES
   105   54   55 1    
   106   54  110 1    
   107   55   56 1    
   108   55   59 1    
   109   55  111 1    
   110   56   57 am   BACKBONE|DICT|INTERRES
   111   56   58 2    
   112   57  112 1    
   113   57  113 1    
   114   59   60 1    
   115   59  114 1    
   116   59  115 1    
   117   60   61 1    
   118   61  116 1    
   119   61  117 1    
@<TRIPOS>SUBSTRUCTURE
     1 UNK         1 GROUP             0       ****    0 ROOT    
