@<TRIPOS>MOLECULE
3R8
117   119    1
SMALL
USER_CHARGES


@<TRIPOS>ATOM
      1 CA         18.6503  -24.8064  -39.0898 C.3       0 UNK        -0.2013 
      2 C          18.2300  -24.5705  -40.5327 C.2       0 UNK         0.4866 
      3 O          17.8207  -23.4609  -40.8767 O.2       0 UNK        -0.5176 
      4 N          18.3273  -25.6030  -41.3800 N.am      1 UNK        -0.4884 
      5 CA         18.0684  -25.5206  -42.8219 C.3       1 UNK         0.0853 
      6 C6         17.8916  -26.9192  -43.4680 C.3       10 UNK        -0.0849 
      7 S7         16.5983  -27.9355  -42.6777 S.3       10 UNK        -0.2776 
      8 C8         16.3622  -29.2540  -43.9191 C.3       10 UNK         0.0316 
      9 C9         17.6571  -29.9950  -44.2292 C.ar      10 UNK        -0.0863 
     10 C10        18.2373  -30.8285  -43.2680 C.ar      10 UNK        -0.1009 
     11 C11        19.4598  -31.4565  -43.5216 C.ar      10 UNK        -0.0712 
     12 C12        20.0781  -31.2883  -44.7628 C.ar      10 UNK        -0.0894 
     13 C13        19.5103  -30.4580  -45.7317 C.ar      10 UNK        -0.0745 
     14 C14        18.2956  -29.8180  -45.4621 C.ar      10 UNK        -0.0972 
     15 C15        20.2419  -30.2122  -47.0457 C.3       10 UNK         0.0209 
     16 S16        21.8361  -29.3581  -46.7915 S.3       10 UNK        -0.2568 
     17 C17        21.2987  -27.8954  -45.8463 C.3       10 UNK        -0.0983 
     18 CA         22.2055  -26.6567  -46.0508 C.3       3 UNK         0.0876 
     19 N          21.5149  -25.4446  -45.6321 N.am      3 UNK        -0.4424 
     20 C          20.6607  -24.7320  -46.3690 C.2       2 UNK         0.4918 
     21 O          20.4158  -24.9651  -47.5538 O.2       2 UNK        -0.4875 
     22 CA         19.9051  -23.6147  -45.6232 C.3       2 UNK         0.0481 
     23 CB         19.1900  -22.6440  -46.5808 C.3       2 UNK        -0.1831 
     24 N          18.9201  -24.1984  -44.7074 N.am      2 UNK        -0.4498 
     25 C          19.2137  -24.7676  -43.5299 C.2       1 UNK         0.5027 
     26 O          20.3472  -24.7648  -43.0391 O.2       1 UNK        -0.4969 
     27 C          23.5060  -26.7530  -45.2367 C.2       3 UNK         0.5005 
     28 O          23.5500  -26.2796  -44.0972 O.2       3 UNK        -0.5279 
     29 N          24.5363  -27.3849  -45.8156 N.am      4 UNK        -0.4463 
     30 CA         25.8644  -27.5556  -45.2116 C.3       4 UNK         0.0283 
     31 CB         26.8221  -28.1545  -46.2542 C.3       4 UNK        -0.1875 
     32 C          25.8707  -28.4081  -43.9288 C.2       4 UNK         0.4949 
     33 O          26.7474  -28.2209  -43.0856 O.2       4 UNK        -0.5039 
     34 N          24.8902  -29.3106  -43.7982 N.am      5 UNK        -0.4663 
     35 CA         24.6851  -30.1691  -42.6285 C.3       5 UNK         0.0242 
     36 CB         24.2574  -31.5618  -43.1183 C.3       5 UNK        -0.1982 
     37 C          23.6694  -29.5833  -41.6258 C.2       5 UNK         0.5017 
     38 O          23.2439  -30.3056  -40.7185 O.2       5 UNK        -0.5012 
     39 N          23.2896  -28.3055  -41.8075 N.am      6 UNK        -0.4439 
     40 CA         22.2922  -27.5532  -41.0369 C.3       6 UNK         0.0297 
     41 CB         22.8306  -27.2371  -39.6225 C.3       6 UNK        -0.2006 
     42 C          20.9267  -28.2660  -41.0516 C.2       6 UNK         0.4892 
     43 O          20.5513  -28.8015  -42.0906 O.2       6 UNK        -0.5089 
     44 N          20.2245  -28.2876  -39.9116 N.am      7 UNK        -0.4243 
     45 CA         19.0595  -29.1497  -39.6799 C.3       7 UNK         0.0196 
     46 CB         18.0055  -28.3745  -38.8684 C.3       7 UNK        -0.2007 
     47 C          19.4458  -30.4587  -38.9602 C.2       7 UNK         0.5020 
     48 O          18.5608  -31.2619  -38.6651 O.2       7 UNK        -0.5147 
     49 N          20.7385  -30.6456  -38.6534 N.am      8 UNK        -0.4734 
     50 CA         21.2501  -31.7698  -37.8685 C.3       8 UNK         0.0238 
     51 CB         22.6191  -31.3973  -37.2748 C.3       8 UNK        -0.1912 
     52 C          21.3447  -33.0721  -38.6751 C.2       8 UNK         0.5038 
     53 O          20.9780  -34.1248  -38.1516 O.2       8 UNK        -0.5046 
     54 N          21.8469  -32.9779  -39.9154 N.am      9 UNK        -0.4200 
     55 CA         22.0956  -34.1134  -40.8268 C.3       9 UNK         0.0839 
     56 C          23.2077  -35.0896  -40.3261 C.2       9 UNK         0.5513 
     57 N          24.1159  -34.6609  -39.4570 N.am      9 UNK        -0.7519 
     58 O          23.2753  -36.2403  -40.7510 O.2       9 UNK        -0.4960 
     59 C59        20.7944  -34.8522  -41.2802 C.3       10 UNK        -0.0876 
     60 S60        19.5577  -33.9372  -42.2845 S.3       10 UNK        -0.2414 
     61 C61        20.1692  -32.2319  -42.4267 C.3       10 UNK         0.0169 
     62 H62        19.1652  -23.9291  -38.6988 H         1 UNK         0.0903 
     63 H63        17.7752  -24.9931  -38.4678 H         1 UNK         0.0903 
     64 H64        19.3270  -25.6546  -39.0002 H         1 UNK         0.0903 
     65 H65        18.6666  -26.4970  -41.0559 H         1 UNK         0.3096 
     66 H66        17.1463  -24.9529  -42.9668 H         1 UNK         0.1121 
     67 H67        17.6388  -26.8165  -44.5250 H         1 UNK         0.0849 
     68 H68        18.8277  -27.4787  -43.4386 H         1 UNK         0.0849 
     69 H69        15.6222  -29.9634  -43.5461 H         1 UNK         0.0865 
     70 H70        15.9370  -28.8198  -44.8253 H         1 UNK         0.0865 
     71 H71        17.7628  -30.9479  -42.3040 H         1 UNK         0.1346 
     72 H72        21.0311  -31.7598  -44.9587 H         1 UNK         0.1412 
     73 H73        17.8608  -29.1604  -46.2023 H         1 UNK         0.1426 
     74 H74        19.6283  -29.6222  -47.7283 H         1 UNK         0.0716 
     75 H75        20.4242  -31.1668  -47.5411 H         1 UNK         0.0716 
     76 H76        20.2840  -27.6576  -46.1698 H         1 UNK         0.0695 
     77 H77        21.2148  -28.1599  -44.7894 H         1 UNK         0.0695 
     78 H78        22.4653  -26.5574  -47.1074 H         1 UNK         0.0983 
     79 H79        21.6540  -25.1975  -44.6561 H         1 UNK         0.3095 
     80 H80        20.6344  -23.0393  -45.0488 H         1 UNK         0.0454 
     81 H81        19.8981  -22.1916  -47.2762 H         1 UNK         0.0851 
     82 H82        18.4259  -23.1462  -47.1755 H         1 UNK         0.0851 
     83 H83        18.7098  -21.8313  -46.0357 H         1 UNK         0.0851 
     84 H84        17.9746  -24.2636  -45.0575 H         1 UNK         0.2976 
     85 H85        24.4072  -27.7734  -46.7399 H         1 UNK         0.3116 
     86 H86        26.2327  -26.5635  -44.9415 H         1 UNK         0.0646 
     87 H87        27.8260  -28.2679  -45.8422 H         1 UNK         0.0847 
     88 H88        26.9068  -27.5140  -47.1323 H         1 UNK         0.0847 
     89 H89        26.4940  -29.1404  -46.5858 H         1 UNK         0.0847 
     90 H90        24.2082  -29.3857  -44.5403 H         1 UNK         0.3040 
     91 H91        25.6267  -30.2824  -42.0866 H         1 UNK         0.1015 
     92 H92        23.2798  -31.5378  -43.6000 H         1 UNK         0.0786 
     93 H93        24.2084  -32.2635  -42.2865 H         1 UNK         0.0786 
     94 H94        24.9733  -31.9679  -43.8332 H         1 UNK         0.0786 
     95 H95        23.6583  -27.8125  -42.6132 H         1 UNK         0.3172 
     96 H96        22.1482  -26.6076  -41.5620 H         1 UNK         0.0595 
     97 H97        22.1742  -26.5497  -39.0877 H         1 UNK         0.0839 
     98 H98        22.9480  -28.1351  -39.0148 H         1 UNK         0.0839 
     99 H99        23.8062  -26.7538  -39.6792 H         1 UNK         0.0839 
    100 H100       20.6109  -27.8266  -39.1000 H         1 UNK         0.2998 
    101 H101       18.6048  -29.4334  -40.6309 H         1 UNK         0.0822 
    102 H102       17.1500  -29.0071  -38.6274 H         1 UNK         0.0787 
    103 H103       18.4093  -28.0014  -37.9266 H         1 UNK         0.0787 
    104 H104       17.6131  -27.5296  -39.4314 H         1 UNK         0.0787 
    105 H105       21.4211  -29.9872  -39.0011 H         1 UNK         0.3055 
    106 H106       20.5624  -31.9504  -37.0386 H         1 UNK         0.1106 
    107 H107       22.5431  -30.5297  -36.6191 H         1 UNK         0.0828 
    108 H108       23.0217  -32.2170  -36.6779 H         1 UNK         0.0828 
    109 H109       23.3513  -31.1672  -38.0498 H         1 UNK         0.0828 
    110 H110       22.1676  -32.0702  -40.2348 H         1 UNK         0.2931 
    111 H111       22.5423  -33.6903  -41.7228 H         1 UNK         0.0412 
    112 H112       24.0899  -33.7150  -39.1124 H         1 UNK         0.3472 
    113 H113       24.8374  -35.2926  -39.1462 H         1 UNK         0.3472 
    114 H114       20.2787  -35.2671  -40.4135 H         1 UNK         0.0970 
    115 H115       21.0584  -35.7187  -41.8887 H         1 UNK         0.0970 
    116 H116       20.0318  -31.7173  -41.4772 H         1 UNK         0.0612 
    117 H117       21.2367  -32.2225  -42.6337 H         1 UNK         0.0612 
@<TRIPOS>BOND
     1    1    2 1    
     2    1   62 1    
     3    1   63 1    
     4    1   64 1    
     5    2    3 2    
     6    2    4 am   BACKBONE|DICT|INTERRES
     7    4    5 1    
     8    4   65 1    
     9    5    6 1    
    10    5   25 1    
    11    5   66 1    
    12    6    7 1    
    13    6   67 1    
    14    6   68 1    
    15    7    8 1    
    16    8    9 1    
    17    8   69 1    
    18    8   70 1    
    19    9   10 ar   
    20    9   14 ar   
    21   10   11 ar   
    22   10   71 1    
    23   11   12 ar   
    24   11   61 1    
    25   12   13 ar   
    26   12   72 1    
    27   13   14 ar   
    28   13   15 1    
    29   14   73 1    
    30   15   16 1    
    31   15   74 1    
    32   15   75 1    
    33   16   17 1    
    34   17   18 1    
    35   17   76 1    
    36   17   77 1    
    37   18   19 1    
    38   18   27 1    
    39   18   78 1    
    40   19   20 am   BACKBONE|DICT|INTERRES
    41   19   79 1    
    42   20   21 2    
    43   20   22 1    
    44   22   23 1    
    45   22   24 1    
    46   22   80 1    
    47   23   81 1    
    48   23   82 1    
    49   23   83 1    
    50   24   25 am   BACKBONE|DICT|INTERRES
    51   24   84 1    
    52   25   26 2    
    53   27   28 2    
    54   27   29 am   BACKBONE|DICT|INTERRES
    55   29   30 1    
    56   29   85 1    
    57   30   31 1    
    58   30   32 1    
    59   30   86 1    
    60   31   87 1    
    61   31   88 1    
    62   31   89 1    
    63   32   33 2    
    64   32   34 am   BACKBONE|DICT|INTERRES
    65   34   35 1    
    66   34   90 1    
    67   35   36 1    
    68   35   37 1    
    69   35   91 1    
    70   36   92 1    
    71   36   93 1    
    72   36   94 1    
    73   37   38 2    
    74   37   39 am   BACKBONE|DICT|INTERRES
    75   39   40 1    
    76   39   95 1    
    77   40   41 1    
    78   40   42 1    
    79   40   96 1    
    80   41   97 1    
    81   41   98 1    
    82   41   99 1    
    83   42   43 2    
    84   42   44 am   BACKBONE|DICT|INTERRES
    85   44   45 1    
    86   44  100 1    
    87   45   46 1    
    88   45   47 1    
    89   45  101 1    
    90   46  102 1    
    91   46  103 1    
    92   46  104 1    
    93   47   48 2    
    94   47   49 am   BACKBONE|DICT|INTERRES
    95   49   50 1    
    96   49  105 1    
    97   50   51 1    
    98   50   52 1    
    99   50  106 1    
   100   51  107 1    
   101   51  108 1    
   102   51  109 1    
   103   52   53 2    
   104   52   54 am   BACKBONE|DICT|INTERRES
   105   54   55 1    
   106   54  110 1    
   107   55   56 1    
   108   55   59 1    
   109   55  111 1    
   110   56   57 am   BACKBONE|DICT|INTERRES
   111   56   58 2    
   112   57  112 1    
   113   57  113 1    
   114   59   60 1    
   115   59  114 1    
   116   59  115 1    
   117   60   61 1    
   118   61  116 1    
   119   61  117 1    
@<TRIPOS>SUBSTRUCTURE
     1 UNK         1 GROUP             0       ****    0 ROOT    
