@<TRIPOS>MOLECULE
3R8
117   119    1
SMALL
USER_CHARGES


@<TRIPOS>ATOM
      1 CA         15.6586  -25.2351  -45.4415 C.3       0 UNK        -0.2013 
      2 C          17.0288  -24.8994  -46.0112 C.2       0 UNK         0.4866 
      3 O          17.3854  -23.7234  -46.0838 O.2       0 UNK        -0.5176 
      4 N          17.7947  -25.9173  -46.4305 N.am      1 UNK        -0.4884 
      5 CA         19.1209  -25.7639  -47.0429 C.3       1 UNK         0.0853 
      6 C6         19.5567  -27.0435  -47.8089 C.3       10 UNK        -0.0849 
      7 S7         20.0230  -28.4674  -46.7563 S.3       10 UNK        -0.2776 
      8 C8         18.5198  -29.4911  -46.7349 C.3       10 UNK         0.0316 
      9 C9         18.1525  -29.8569  -45.3051 C.ar      10 UNK        -0.0863 
     10 C10        18.7432  -30.9608  -44.6838 C.ar      10 UNK        -0.1009 
     11 C11        18.4058  -31.3055  -43.3688 C.ar      10 UNK        -0.0712 
     12 C12        17.4920  -30.5121  -42.6673 C.ar      10 UNK        -0.0894 
     13 C13        16.9210  -29.3860  -43.2668 C.ar      10 UNK        -0.0745 
     14 C14        17.2357  -29.0812  -44.5932 C.ar      10 UNK        -0.0972 
     15 C15        15.9769  -28.4820  -42.4871 C.3       10 UNK         0.0209 
     16 S16        16.6779  -26.8120  -42.2780 S.3       10 UNK        -0.2568 
     17 C17        17.7724  -27.0042  -40.8289 C.3       10 UNK        -0.0983 
     18 CA         19.1609  -27.6349  -41.1384 C.3       3 UNK         0.0876 
     19 N          19.8577  -27.0179  -42.2753 N.am      3 UNK        -0.4424 
     20 C          20.3428  -25.7684  -42.3387 C.2       2 UNK         0.4918 
     21 O          20.3060  -24.9578  -41.4150 O.2       2 UNK        -0.4875 
     22 CA         20.9696  -25.3504  -43.6728 C.3       2 UNK         0.0481 
     23 CB         22.3386  -26.0322  -43.8645 C.3       2 UNK        -0.1831 
     24 N          20.0579  -25.6643  -44.7719 N.am      2 UNK        -0.4498 
     25 C          20.1987  -25.2774  -46.0475 C.2       1 UNK         0.5027 
     26 O          21.1223  -24.5715  -46.4563 O.2       1 UNK        -0.4969 
     27 C          20.0675  -27.7054  -39.8893 C.2       3 UNK         0.5005 
     28 O          19.8181  -27.0184  -38.8973 O.2       3 UNK        -0.5279 
     29 N          21.1331  -28.5133  -39.9870 N.am      4 UNK        -0.4463 
     30 CA         22.1789  -28.7664  -38.9839 C.3       4 UNK         0.0283 
     31 CB         21.5987  -29.2402  -37.6354 C.3       4 UNK        -0.1875 
     32 C          23.2102  -27.6364  -38.8178 C.2       4 UNK         0.4949 
     33 O          24.1768  -27.8220  -38.0785 O.2       4 UNK        -0.5039 
     34 N          23.0528  -26.5240  -39.5501 N.am      5 UNK        -0.4663 
     35 CA         24.0733  -25.4752  -39.6815 C.3       5 UNK         0.0242 
     36 CB         23.4158  -24.1823  -40.1903 C.3       5 UNK        -0.1982 
     37 C          25.2407  -25.8920  -40.6000 C.2       5 UNK         0.5017 
     38 O          26.3075  -25.2809  -40.5355 O.2       5 UNK        -0.5012 
     39 N          25.0179  -26.9228  -41.4251 N.am      6 UNK        -0.4439 
     40 CA         25.9957  -27.5605  -42.3004 C.3       6 UNK         0.0297 
     41 CB         26.2382  -26.7277  -43.5755 C.3       6 UNK        -0.2006 
     42 C          25.5040  -28.9804  -42.5990 C.2       6 UNK         0.4892 
     43 O          26.0826  -29.9421  -42.0936 O.2       6 UNK        -0.5089 
     44 N          24.4144  -29.0832  -43.3735 N.am      7 UNK        -0.4243 
     45 CA         23.7082  -30.3333  -43.6540 C.3       7 UNK         0.0196 
     46 CB         22.8116  -30.1517  -44.8904 C.3       7 UNK        -0.2007 
     47 C          22.8779  -30.7501  -42.4319 C.2       7 UNK         0.5020 
     48 O          21.8658  -30.1075  -42.1438 O.2       7 UNK        -0.5147 
     49 N          23.3390  -31.7865  -41.7232 N.am      8 UNK        -0.4734 
     50 CA         22.6970  -32.3330  -40.5218 C.3       8 UNK         0.0238 
     51 CB         23.7724  -32.5578  -39.4447 C.3       8 UNK        -0.1912 
     52 C          21.9158  -33.6306  -40.7899 C.2       8 UNK         0.5038 
     53 O          21.2322  -34.1042  -39.8820 O.2       8 UNK        -0.5046 
     54 N          22.0124  -34.1725  -42.0141 N.am      9 UNK        -0.4200 
     55 CA         21.3244  -35.3914  -42.4822 C.3       9 UNK         0.0839 
     56 C          21.7760  -36.7056  -41.7706 C.2       9 UNK         0.5513 
     57 N          22.9375  -36.7418  -41.1281 N.am      9 UNK        -0.7519 
     58 O          21.0852  -37.7200  -41.8275 O.2       9 UNK        -0.4960 
     59 C59        19.7752  -35.2289  -42.5307 C.3       10 UNK        -0.0876 
     60 S60        19.2247  -33.9664  -43.7290 S.3       10 UNK        -0.2414 
     61 C61        19.0581  -32.4923  -42.6683 C.3       10 UNK         0.0169 
     62 H62        15.4600  -26.3057  -45.4430 H         1 UNK         0.0903 
     63 H63        15.5821  -24.8768  -44.4153 H         1 UNK         0.0903 
     64 H64        14.8807  -24.7478  -46.0285 H         1 UNK         0.0903 
     65 H65        17.4519  -26.8628  -46.3667 H         1 UNK         0.3096 
     66 H66        19.0279  -24.9699  -47.7880 H         1 UNK         0.1121 
     67 H67        18.7809  -27.3438  -48.5148 H         1 UNK         0.0849 
     68 H68        20.4240  -26.8090  -48.4290 H         1 UNK         0.0849 
     69 H69        17.6886  -28.9762  -47.2179 H         1 UNK         0.0865 
     70 H70        18.6956  -30.3953  -47.3198 H         1 UNK         0.0865 
     71 H71        19.4707  -31.5490  -45.2260 H         1 UNK         0.1346 
     72 H72        17.2448  -30.7556  -41.6429 H         1 UNK         0.1412 
     73 H73        16.7781  -28.2220  -45.0578 H         1 UNK         0.1426 
     74 H74        15.7305  -28.9061  -41.5125 H         1 UNK         0.0716 
     75 H75        15.0363  -28.4009  -43.0336 H         1 UNK         0.0716 
     76 H76        17.2493  -27.5910  -40.0718 H         1 UNK         0.0695 
     77 H77        17.8986  -26.0084  -40.4001 H         1 UNK         0.0695 
     78 H78        18.9881  -28.6704  -41.4262 H         1 UNK         0.0983 
     79 H79        19.9802  -27.6228  -43.0749 H         1 UNK         0.3095 
     80 H80        21.1154  -24.2684  -43.6498 H         1 UNK         0.0454 
     81 H81        22.8554  -25.6577  -44.7477 H         1 UNK         0.0851 
     82 H82        22.2359  -27.1112  -43.9712 H         1 UNK         0.0851 
     83 H83        22.9907  -25.8403  -43.0140 H         1 UNK         0.0851 
     84 H84        19.2272  -26.1865  -44.5294 H         1 UNK         0.2976 
     85 H85        21.2653  -29.0276  -40.8603 H         1 UNK         0.3116 
     86 H86        22.7566  -29.5973  -39.3865 H         1 UNK         0.0646 
     87 H87        21.0736  -28.4412  -37.1120 H         1 UNK         0.0847 
     88 H88        22.3915  -29.5886  -36.9724 H         1 UNK         0.0847 
     89 H89        20.9046  -30.0695  -37.7704 H         1 UNK         0.0847 
     90 H90        22.1970  -26.4082  -40.0751 H         1 UNK         0.3040 
     91 H91        24.4940  -25.2749  -38.6933 H         1 UNK         0.1015 
     92 H92        23.0100  -24.2971  -41.1949 H         1 UNK         0.0786 
     93 H93        24.1389  -23.3662  -40.2250 H         1 UNK         0.0786 
     94 H94        22.6030  -23.8659  -39.5361 H         1 UNK         0.0786 
     95 H95        24.1260  -27.3902  -41.3505 H         1 UNK         0.3172 
     96 H96        26.9417  -27.6488  -41.7614 H         1 UNK         0.0595 
     97 H97        25.3165  -26.5156  -44.1167 H         1 UNK         0.0839 
     98 H98        26.9082  -27.2498  -44.2599 H         1 UNK         0.0839 
     99 H99        26.7057  -25.7722  -43.3373 H         1 UNK         0.0839 
    100 H100       24.0084  -28.2441  -43.7565 H         1 UNK         0.2998 
    101 H101       24.4408  -31.1114  -43.8794 H         1 UNK         0.0822 
    102 H102       22.0435  -29.3951  -44.7294 H         1 UNK         0.0787 
    103 H103       23.3914  -29.8597  -45.7661 H         1 UNK         0.0787 
    104 H104       22.2968  -31.0811  -45.1376 H         1 UNK         0.0787 
    105 H105       24.2159  -32.2083  -41.9987 H         1 UNK         0.3055 
    106 H106       21.9661  -31.6231  -40.1301 H         1 UNK         0.1106 
    107 H107       23.3286  -32.9202  -38.5163 H         1 UNK         0.0828 
    108 H108       24.5145  -33.2921  -39.7599 H         1 UNK         0.0828 
    109 H109       24.2976  -31.6319  -39.2093 H         1 UNK         0.0828 
    110 H110       22.5964  -33.7116  -42.6949 H         1 UNK         0.2931 
    111 H111       21.6592  -35.5260  -43.5114 H         1 UNK         0.0412 
    112 H112       23.5242  -35.9244  -41.0837 H         1 UNK         0.3472 
    113 H113       23.2277  -37.5975  -40.6808 H         1 UNK         0.3472 
    114 H114       19.3049  -36.1632  -42.8422 H         1 UNK         0.0970 
    115 H115       19.3686  -35.0149  -41.5415 H         1 UNK         0.0970 
    116 H116       18.4910  -32.7649  -41.7770 H         1 UNK         0.0612 
    117 H117       20.0435  -32.1764  -42.3321 H         1 UNK         0.0612 
@<TRIPOS>BOND
     1    1    2 1    
     2    1   62 1    
     3    1   63 1    
     4    1   64 1    
     5    2    3 2    
     6    2    4 am   BACKBONE|DICT|INTERRES
     7    4    5 1    
     8    4   65 1    
     9    5    6 1    
    10    5   25 1    
    11    5   66 1    
    12    6    7 1    
    13    6   67 1    
    14    6   68 1    
    15    7    8 1    
    16    8    9 1    
    17    8   69 1    
    18    8   70 1    
    19    9   10 ar   
    20    9   14 ar   
    21   10   11 ar   
    22   10   71 1    
    23   11   12 ar   
    24   11   61 1    
    25   12   13 ar   
    26   12   72 1    
    27   13   14 ar   
    28   13   15 1    
    29   14   73 1    
    30   15   16 1    
    31   15   74 1    
    32   15   75 1    
    33   16   17 1    
    34   17   18 1    
    35   17   76 1    
    36   17   77 1    
    37   18   19 1    
    38   18   27 1    
    39   18   78 1    
    40   19   20 am   BACKBONE|DICT|INTERRES
    41   19   79 1    
    42   20   21 2    
    43   20   22 1    
    44   22   23 1    
    45   22   24 1    
    46   22   80 1    
    47   23   81 1    
    48   23   82 1    
    49   23   83 1    
    50   24   25 am   BACKBONE|DICT|INTERRES
    51   24   84 1    
    52   25   26 2    
    53   27   28 2    
    54   27   29 am   BACKBONE|DICT|INTERRES
    55   29   30 1    
    56   29   85 1    
    57   30   31 1    
    58   30   32 1    
    59   30   86 1    
    60   31   87 1    
    61   31   88 1    
    62   31   89 1    
    63   32   33 2    
    64   32   34 am   BACKBONE|DICT|INTERRES
    65   34   35 1    
    66   34   90 1    
    67   35   36 1    
    68   35   37 1    
    69   35   91 1    
    70   36   92 1    
    71   36   93 1    
    72   36   94 1    
    73   37   38 2    
    74   37   39 am   BACKBONE|DICT|INTERRES
    75   39   40 1    
    76   39   95 1    
    77   40   41 1    
    78   40   42 1    
    79   40   96 1    
    80   41   97 1    
    81   41   98 1    
    82   41   99 1    
    83   42   43 2    
    84   42   44 am   BACKBONE|DICT|INTERRES
    85   44   45 1    
    86   44  100 1    
    87   45   46 1    
    88   45   47 1    
    89   45  101 1    
    90   46  102 1    
    91   46  103 1    
    92   46  104 1    
    93   47   48 2    
    94   47   49 am   BACKBONE|DICT|INTERRES
    95   49   50 1    
    96   49  105 1    
    97   50   51 1    
    98   50   52 1    
    99   50  106 1    
   100   51  107 1    
   101   51  108 1    
   102   51  109 1    
   103   52   53 2    
   104   52   54 am   BACKBONE|DICT|INTERRES
   105   54   55 1    
   106   54  110 1    
   107   55   56 1    
   108   55   59 1    
   109   55  111 1    
   110   56   57 am   BACKBONE|DICT|INTERRES
   111   56   58 2    
   112   57  112 1    
   113   57  113 1    
   114   59   60 1    
   115   59  114 1    
   116   59  115 1    
   117   60   61 1    
   118   61  116 1    
   119   61  117 1    
@<TRIPOS>SUBSTRUCTURE
     1 UNK         1 GROUP             0       ****    0 ROOT    
