@<TRIPOS>MOLECULE
3R8
117   119    1
SMALL
USER_CHARGES


@<TRIPOS>ATOM
      1 CA         19.3763  -23.7297  -50.2526 C.3       0 UNK        -0.2013 
      2 C          19.9957  -24.2183  -48.9516 C.2       0 UNK         0.4866 
      3 O          20.8278  -23.5212  -48.3700 O.2       0 UNK        -0.5176 
      4 N          19.6033  -25.4140  -48.4938 N.am      1 UNK        -0.4884 
      5 CA         20.0413  -26.0068  -47.2264 C.3       1 UNK         0.0853 
      6 C6         19.7535  -27.5277  -47.1981 C.3       10 UNK        -0.0849 
      7 S7         20.8681  -28.4384  -46.0790 S.3       10 UNK        -0.2776 
      8 C8         20.1033  -30.0924  -46.1146 C.3       10 UNK         0.0316 
      9 C9         19.2560  -30.3390  -44.8764 C.ar      10 UNK        -0.0863 
     10 C10        19.7436  -31.1305  -43.8319 C.ar      10 UNK        -0.1009 
     11 C11        18.9683  -31.3555  -42.6901 C.ar      10 UNK        -0.0712 
     12 C12        17.7054  -30.7663  -42.5859 C.ar      10 UNK        -0.0894 
     13 C13        17.2188  -29.9555  -43.6157 C.ar      10 UNK        -0.0745 
     14 C14        17.9855  -29.7688  -44.7686 C.ar      10 UNK        -0.0972 
     15 C15        15.8949  -29.2248  -43.4644 C.3       10 UNK         0.0209 
     16 S16        16.1601  -27.4300  -43.2851 S.3       10 UNK        -0.2568 
     17 C17        17.1106  -27.3422  -41.7270 C.3       10 UNK        -0.0983 
     18 CA         18.6608  -27.3287  -41.9224 C.3       3 UNK         0.0876 
     19 N          19.1352  -26.3271  -42.8871 N.am      3 UNK        -0.4424 
     20 C          19.0094  -24.9958  -42.7914 C.2       2 UNK         0.4918 
     21 O          18.3848  -24.4220  -41.8978 O.2       2 UNK        -0.4875 
     22 CA         19.7179  -24.1425  -43.8611 C.3       2 UNK         0.0481 
     23 CB         20.9204  -23.4061  -43.2475 C.3       2 UNK        -0.1831 
     24 N          20.1706  -24.9031  -45.0318 N.am      2 UNK        -0.4498 
     25 C          19.3739  -25.2740  -46.0433 C.2       1 UNK         0.5027 
     26 O          18.1597  -25.0583  -46.0740 O.2       1 UNK        -0.4969 
     27 C          19.4369  -27.2352  -40.5849 C.2       3 UNK         0.5005 
     28 O          20.5085  -26.6224  -40.5402 O.2       3 UNK        -0.5279 
     29 N          18.8973  -27.8581  -39.5248 N.am      4 UNK        -0.4463 
     30 CA         19.3303  -27.8513  -38.1183 C.3       4 UNK         0.0283 
     31 CB         19.2196  -26.4374  -37.5130 C.3       4 UNK        -0.1875 
     32 C          20.7175  -28.4626  -37.8469 C.2       4 UNK         0.4949 
     33 O          20.8158  -29.4119  -37.0698 O.2       4 UNK        -0.5039 
     34 N          21.7527  -27.8923  -38.4671 N.am      5 UNK        -0.4663 
     35 CA         23.1556  -28.2898  -38.3526 C.3       5 UNK         0.0242 
     36 CB         23.8736  -27.3117  -37.4050 C.3       5 UNK        -0.1982 
     37 C          23.8587  -28.3618  -39.7207 C.2       5 UNK         0.5017 
     38 O          25.0572  -28.6456  -39.7576 O.2       5 UNK        -0.5012 
     39 N          23.1369  -28.0804  -40.8143 N.am      6 UNK        -0.4439 
     40 CA         23.6541  -28.1190  -42.1804 C.3       6 UNK         0.0297 
     41 CB         22.7515  -27.2558  -43.0750 C.3       6 UNK        -0.2006 
     42 C          23.7112  -29.5537  -42.7261 C.2       6 UNK         0.4892 
     43 O          22.7912  -30.3364  -42.4850 O.2       6 UNK        -0.5089 
     44 N          24.7595  -29.8378  -43.5123 N.am      7 UNK        -0.4243 
     45 CA         24.9631  -31.0519  -44.3114 C.3       7 UNK         0.0196 
     46 CB         24.0689  -30.9940  -45.5705 C.3       7 UNK        -0.2007 
     47 C          24.8056  -32.3491  -43.4915 C.2       7 UNK         0.5020 
     48 O          25.6130  -32.5929  -42.5943 O.2       7 UNK        -0.5147 
     49 N          23.7773  -33.1491  -43.8072 N.am      8 UNK        -0.4734 
     50 CA         23.4783  -34.4562  -43.2128 C.3       8 UNK         0.0238 
     51 CB         22.2718  -35.0698  -43.9427 C.3       8 UNK        -0.1912 
     52 C          23.2322  -34.4480  -41.6930 C.2       8 UNK         0.5038 
     53 O          23.4692  -35.4741  -41.0539 O.2       8 UNK        -0.5046 
     54 N          22.7732  -33.3154  -41.1481 N.am      9 UNK        -0.4200 
     55 CA         22.5891  -33.0858  -39.7064 C.3       9 UNK         0.0839 
     56 C          23.6886  -32.1782  -39.0868 C.2       9 UNK         0.5513 
     57 N          24.7375  -31.8080  -39.8120 N.am      9 UNK        -0.7519 
     58 O          23.6159  -31.8393  -37.9092 O.2       9 UNK        -0.4960 
     59 C59        21.1373  -32.6482  -39.3540 C.3       10 UNK        -0.0876 
     60 S60        20.4695  -31.2840  -40.3680 S.3       10 UNK        -0.2414 
     61 C61        19.4957  -32.2377  -41.5721 C.3       10 UNK         0.0169 
     62 H62        18.8460  -22.7923  -50.0863 H         1 UNK         0.0903 
     63 H63        20.1538  -23.5542  -50.9957 H         1 UNK         0.0903 
     64 H64        18.6701  -24.4503  -50.6648 H         1 UNK         0.0903 
     65 H65        18.8897  -25.9249  -48.9943 H         1 UNK         0.3096 
     66 H66        21.1226  -25.8600  -47.1650 H         1 UNK         0.1121 
     67 H67        19.9052  -27.9516  -48.1925 H         1 UNK         0.0849 
     68 H68        18.7112  -27.7291  -46.9469 H         1 UNK         0.0849 
     69 H69        19.4935  -30.2122  -47.0114 H         1 UNK         0.0865 
     70 H70        20.8873  -30.8454  -46.1914 H         1 UNK         0.0865 
     71 H71        20.7307  -31.5670  -43.8998 H         1 UNK         0.1346 
     72 H72        17.1150  -30.9195  -41.6929 H         1 UNK         0.1412 
     73 H73        17.6036  -29.1429  -45.5622 H         1 UNK         0.1426 
     74 H74        15.3329  -29.5982  -42.6069 H         1 UNK         0.0716 
     75 H75        15.2765  -29.4085  -44.3440 H         1 UNK         0.0716 
     76 H76        16.8004  -28.1836  -41.1062 H         1 UNK         0.0695 
     77 H77        16.7871  -26.4458  -41.1954 H         1 UNK         0.0695 
     78 H78        18.9605  -28.2867  -42.3450 H         1 UNK         0.0983 
     79 H79        19.6687  -26.6905  -43.6618 H         1 UNK         0.3095 
     80 H80        19.0033  -23.3873  -44.1955 H         1 UNK         0.0454 
     81 H81        21.6714  -24.0991  -42.8687 H         1 UNK         0.0851 
     82 H82        20.6079  -22.7811  -42.4097 H         1 UNK         0.0851 
     83 H83        21.4004  -22.7510  -43.9746 H         1 UNK         0.0851 
     84 H84        21.1574  -25.1132  -45.0819 H         1 UNK         0.2976 
     85 H85        18.0532  -28.3880  -39.6899 H         1 UNK         0.3116 
     86 H86        18.6108  -28.4807  -37.5918 H         1 UNK         0.0646 
     87 H87        19.8769  -25.7239  -38.0109 H         1 UNK         0.0847 
     88 H88        19.4899  -26.4434  -36.4562 H         1 UNK         0.0847 
     89 H89        18.2010  -26.0560  -37.5836 H         1 UNK         0.0847 
     90 H90        21.5330  -27.1419  -39.1196 H         1 UNK         0.3040 
     91 H91        23.2174  -29.2907  -37.9240 H         1 UNK         0.1015 
     92 H92        23.8597  -26.2929  -37.7940 H         1 UNK         0.0786 
     93 H93        24.9174  -27.5951  -37.2636 H         1 UNK         0.0786 
     94 H94        23.4070  -27.3016  -36.4198 H         1 UNK         0.0786 
     95 H95        22.1510  -27.8733  -40.7147 H         1 UNK         0.3172 
     96 H96        24.6582  -27.6892  -42.1874 H         1 UNK         0.0595 
     97 H97        23.1360  -27.2126  -44.0948 H         1 UNK         0.0839 
     98 H98        22.6886  -26.2336  -42.7041 H         1 UNK         0.0839 
     99 H99        21.7398  -27.6599  -43.1256 H         1 UNK         0.0839 
    100 H100       25.4773  -29.1336  -43.6110 H         1 UNK         0.2998 
    101 H101       26.0019  -31.0336  -44.6449 H         1 UNK         0.0822 
    102 H102       24.2263  -31.8600  -46.2150 H         1 UNK         0.0787 
    103 H103       23.0115  -30.9491  -45.3124 H         1 UNK         0.0787 
    104 H104       24.2931  -30.1099  -46.1676 H         1 UNK         0.0787 
    105 H105       23.1612  -32.8417  -44.5451 H         1 UNK         0.3055 
    106 H106       24.3464  -35.0958  -43.3869 H         1 UNK         0.1106 
    107 H107       22.0328  -36.0564  -43.5427 H         1 UNK         0.0828 
    108 H108       21.3791  -34.4518  -43.8380 H         1 UNK         0.0828 
    109 H109       22.4716  -35.1960  -45.0069 H         1 UNK         0.0828 
    110 H110       22.6434  -32.4984  -41.7344 H         1 UNK         0.2931 
    111 H111       22.7341  -34.0331  -39.1845 H         1 UNK         0.0412 
    112 H112       24.8507  -32.1165  -40.7705 H         1 UNK         0.3472 
    113 H113       25.4286  -31.2012  -39.3998 H         1 UNK         0.3472 
    114 H114       21.0629  -32.3575  -38.3044 H         1 UNK         0.0970 
    115 H115       20.4755  -33.5099  -39.4511 H         1 UNK         0.0970 
    116 H116       20.1111  -33.0331  -41.9942 H         1 UNK         0.0612 
    117 H117       18.6686  -32.7291  -41.0574 H         1 UNK         0.0612 
@<TRIPOS>BOND
     1    1    2 1    
     2    1   62 1    
     3    1   63 1    
     4    1   64 1    
     5    2    3 2    
     6    2    4 am   BACKBONE|DICT|INTERRES
     7    4    5 1    
     8    4   65 1    
     9    5    6 1    
    10    5   25 1    
    11    5   66 1    
    12    6    7 1    
    13    6   67 1    
    14    6   68 1    
    15    7    8 1    
    16    8    9 1    
    17    8   69 1    
    18    8   70 1    
    19    9   10 ar   
    20    9   14 ar   
    21   10   11 ar   
    22   10   71 1    
    23   11   12 ar   
    24   11   61 1    
    25   12   13 ar   
    26   12   72 1    
    27   13   14 ar   
    28   13   15 1    
    29   14   73 1    
    30   15   16 1    
    31   15   74 1    
    32   15   75 1    
    33   16   17 1    
    34   17   18 1    
    35   17   76 1    
    36   17   77 1    
    37   18   19 1    
    38   18   27 1    
    39   18   78 1    
    40   19   20 am   BACKBONE|DICT|INTERRES
    41   19   79 1    
    42   20   21 2    
    43   20   22 1    
    44   22   23 1    
    45   22   24 1    
    46   22   80 1    
    47   23   81 1    
    48   23   82 1    
    49   23   83 1    
    50   24   25 am   BACKBONE|DICT|INTERRES
    51   24   84 1    
    52   25   26 2    
    53   27   28 2    
    54   27   29 am   BACKBONE|DICT|INTERRES
    55   29   30 1    
    56   29   85 1    
    57   30   31 1    
    58   30   32 1    
    59   30   86 1    
    60   31   87 1    
    61   31   88 1    
    62   31   89 1    
    63   32   33 2    
    64   32   34 am   BACKBONE|DICT|INTERRES
    65   34   35 1    
    66   34   90 1    
    67   35   36 1    
    68   35   37 1    
    69   35   91 1    
    70   36   92 1    
    71   36   93 1    
    72   36   94 1    
    73   37   38 2    
    74   37   39 am   BACKBONE|DICT|INTERRES
    75   39   40 1    
    76   39   95 1    
    77   40   41 1    
    78   40   42 1    
    79   40   96 1    
    80   41   97 1    
    81   41   98 1    
    82   41   99 1    
    83   42   43 2    
    84   42   44 am   BACKBONE|DICT|INTERRES
    85   44   45 1    
    86   44  100 1    
    87   45   46 1    
    88   45   47 1    
    89   45  101 1    
    90   46  102 1    
    91   46  103 1    
    92   46  104 1    
    93   47   48 2    
    94   47   49 am   BACKBONE|DICT|INTERRES
    95   49   50 1    
    96   49  105 1    
    97   50   51 1    
    98   50   52 1    
    99   50  106 1    
   100   51  107 1    
   101   51  108 1    
   102   51  109 1    
   103   52   53 2    
   104   52   54 am   BACKBONE|DICT|INTERRES
   105   54   55 1    
   106   54  110 1    
   107   55   56 1    
   108   55   59 1    
   109   55  111 1    
   110   56   57 am   BACKBONE|DICT|INTERRES
   111   56   58 2    
   112   57  112 1    
   113   57  113 1    
   114   59   60 1    
   115   59  114 1    
   116   59  115 1    
   117   60   61 1    
   118   61  116 1    
   119   61  117 1    
@<TRIPOS>SUBSTRUCTURE
     1 UNK         1 GROUP             0       ****    0 ROOT    
