@<TRIPOS>MOLECULE
3R8
117   119    1
SMALL
USER_CHARGES


@<TRIPOS>ATOM
      1 CA         16.4618  -23.5894  -40.4735 C.3       0 UNK        -0.2013 
      2 C          16.6000  -23.8009  -41.9738 C.2       0 UNK         0.4866 
      3 O          15.7220  -23.3929  -42.7349 O.2       0 UNK        -0.5176 
      4 N          17.6968  -24.4296  -42.4034 N.am      1 UNK        -0.4884 
      5 CA         18.0227  -24.7275  -43.7969 C.3       1 UNK         0.0853 
      6 C6         17.1742  -25.8865  -44.3892 C.3       10 UNK        -0.0849 
      7 S7         17.2871  -27.4588  -43.4667 S.3       10 UNK        -0.2776 
      8 C8         16.0584  -28.4657  -44.3586 C.3       10 UNK         0.0316 
      9 C9         16.6531  -29.8137  -44.7260 C.ar      10 UNK        -0.0863 
     10 C10        16.3500  -30.9560  -43.9792 C.ar      10 UNK        -0.1009 
     11 C11        16.9469  -32.1852  -44.2799 C.ar      10 UNK        -0.0712 
     12 C12        17.8586  -32.2552  -45.3417 C.ar      10 UNK        -0.0894 
     13 C13        18.1907  -31.1134  -46.0761 C.ar      10 UNK        -0.0745 
     14 C14        17.5516  -29.9043  -45.7905 C.ar      10 UNK        -0.0972 
     15 C15        19.2972  -31.1750  -47.1223 C.3       10 UNK         0.0209 
     16 S16        20.6150  -29.9327  -46.8532 S.3       10 UNK        -0.2568 
     17 C17        20.9024  -30.0004  -45.0458 C.3       10 UNK        -0.0983 
     18 CA         21.8045  -28.8509  -44.5336 C.3       3 UNK         0.0876 
     19 N          21.3812  -27.5274  -45.0038 N.am      3 UNK        -0.4424 
     20 C          22.1315  -26.4217  -44.9060 C.2       2 UNK         0.4918 
     21 O          23.2609  -26.4022  -44.4179 O.2       2 UNK        -0.4875 
     22 CA         21.5091  -25.1079  -45.4093 C.3       2 UNK         0.0481 
     23 CB         21.7470  -24.9488  -46.9191 C.3       2 UNK        -0.1831 
     24 N          20.0773  -24.9656  -45.1185 N.am      2 UNK        -0.4498 
     25 C          19.5377  -24.9813  -43.8909 C.2       1 UNK         0.5027 
     26 O          20.1866  -25.1885  -42.8605 O.2       1 UNK        -0.4969 
     27 C          21.9027  -28.8777  -42.9962 C.2       3 UNK         0.5005 
     28 O          22.9057  -29.3493  -42.4626 O.2       3 UNK        -0.5279 
     29 N          20.8899  -28.3176  -42.3161 N.am      4 UNK        -0.4463 
     30 CA         20.8461  -28.1826  -40.8584 C.3       4 UNK         0.0283 
     31 CB         19.4507  -27.7146  -40.4173 C.3       4 UNK        -0.1875 
     32 C          21.9374  -27.2435  -40.3200 C.2       4 UNK         0.4949 
     33 O          22.5464  -27.5542  -39.2974 O.2       4 UNK        -0.5039 
     34 N          22.2084  -26.1449  -41.0401 N.am      5 UNK        -0.4663 
     35 CA         23.3043  -25.2109  -40.7573 C.3       5 UNK         0.0242 
     36 CB         23.1771  -23.9800  -41.6682 C.3       5 UNK        -0.1982 
     37 C          24.6974  -25.8532  -40.8981 C.2       5 UNK         0.5017 
     38 O          25.6009  -25.5092  -40.1361 O.2       5 UNK        -0.5012 
     39 N          24.8323  -26.8008  -41.8361 N.am      6 UNK        -0.4439 
     40 CA         26.0168  -27.6422  -42.0297 C.3       6 UNK         0.0297 
     41 CB         26.0475  -28.1275  -43.4896 C.3       6 UNK        -0.2006 
     42 C          26.0927  -28.8363  -41.0532 C.2       6 UNK         0.4892 
     43 O          27.0652  -29.5894  -41.1190 O.2       6 UNK        -0.5089 
     44 N          25.0848  -28.9949  -40.1802 N.am      7 UNK        -0.4243 
     45 CA         24.9059  -30.0657  -39.1922 C.3       7 UNK         0.0196 
     46 CB         26.0355  -30.0515  -38.1394 C.3       7 UNK        -0.2007 
     47 C          24.6775  -31.4555  -39.8198 C.2       7 UNK         0.5020 
     48 O          25.0371  -32.4663  -39.2128 O.2       7 UNK        -0.5147 
     49 N          24.0643  -31.4902  -41.0082 N.am      8 UNK        -0.4734 
     50 CA         23.6147  -32.7033  -41.6883 C.3       8 UNK         0.0238 
     51 CB         23.9349  -32.5693  -43.1878 C.3       8 UNK        -0.1912 
     52 C          22.1054  -32.9002  -41.4683 C.2       8 UNK         0.5038 
     53 O          21.4114  -31.9700  -41.0491 O.2       8 UNK        -0.5046 
     54 N          21.6214  -34.1062  -41.7910 N.am      9 UNK        -0.4200 
     55 CA         20.2181  -34.5301  -41.6612 C.3       9 UNK         0.0839 
     56 C          19.7450  -34.6728  -40.1818 C.2       9 UNK         0.5513 
     57 N          18.4468  -34.8019  -39.9447 N.am      9 UNK        -0.7519 
     58 O          20.5436  -34.7194  -39.2478 O.2       9 UNK        -0.4960 
     59 C59        19.2666  -33.6794  -42.5576 C.3       10 UNK        -0.0876 
     60 S60        17.9113  -34.6622  -43.2843 S.3       10 UNK        -0.2414 
     61 C61        16.5893  -33.4093  -43.4341 C.3       10 UNK         0.0169 
     62 H62        15.5539  -24.0696  -40.1097 H         1 UNK         0.0903 
     63 H63        17.3072  -24.0036  -39.9241 H         1 UNK         0.0903 
     64 H64        16.3990  -22.5252  -40.2482 H         1 UNK         0.0903 
     65 H65        18.4262  -24.7097  -41.7589 H         1 UNK         0.3096 
     66 H66        17.8255  -23.8244  -44.3792 H         1 UNK         0.1121 
     67 H67        17.4489  -26.0713  -45.4291 H         1 UNK         0.0849 
     68 H68        16.1256  -25.5857  -44.4150 H         1 UNK         0.0849 
     69 H69        15.1722  -28.5870  -43.7337 H         1 UNK         0.0865 
     70 H70        15.7258  -27.9587  -45.2656 H         1 UNK         0.0865 
     71 H71        15.6579  -30.8843  -43.1510 H         1 UNK         0.1346 
     72 H72        18.3410  -33.1928  -45.5788 H         1 UNK         0.1412 
     73 H73        17.8091  -29.0162  -46.3514 H         1 UNK         0.1426 
     74 H74        18.8633  -31.0245  -48.1116 H         1 UNK         0.0716 
     75 H75        19.7592  -32.1634  -47.1349 H         1 UNK         0.0716 
     76 H76        21.3432  -30.9693  -44.8050 H         1 UNK         0.0695 
     77 H77        19.9464  -29.9662  -44.5235 H         1 UNK         0.0695 
     78 H78        22.8103  -29.0256  -44.9229 H         1 UNK         0.0983 
     79 H79        20.4712  -27.4689  -45.4356 H         1 UNK         0.3095 
     80 H80        22.0233  -24.2898  -44.9010 H         1 UNK         0.0454 
     81 H81        21.2265  -25.7150  -47.4951 H         1 UNK         0.0851 
     82 H82        22.8088  -25.0291  -47.1568 H         1 UNK         0.0851 
     83 H83        21.4123  -23.9742  -47.2746 H         1 UNK         0.0851 
     84 H84        19.4763  -24.7911  -45.9114 H         1 UNK         0.2976 
     85 H85        20.1198  -27.9164  -42.8325 H         1 UNK         0.3116 
     86 H86        21.0221  -29.1722  -40.4307 H         1 UNK         0.0646 
     87 H87        18.6806  -28.4222  -40.7250 H         1 UNK         0.0847 
     88 H88        19.1970  -26.7409  -40.8361 H         1 UNK         0.0847 
     89 H89        19.3944  -27.6276  -39.3315 H         1 UNK         0.0847 
     90 H90        21.6113  -25.9263  -41.8343 H         1 UNK         0.3040 
     91 H91        23.1996  -24.8823  -39.7209 H         1 UNK         0.1015 
     92 H92        23.9508  -23.2453  -41.4415 H         1 UNK         0.0786 
     93 H93        22.2131  -23.4877  -41.5381 H         1 UNK         0.0786 
     94 H94        23.2775  -24.2449  -42.7208 H         1 UNK         0.0786 
     95 H95        24.0453  -26.9843  -42.4484 H         1 UNK         0.3172 
     96 H96        26.9067  -27.0326  -41.8608 H         1 UNK         0.0595 
     97 H97        25.2007  -28.7748  -43.7181 H         1 UNK         0.0839 
     98 H98        26.9553  -28.6958  -43.6957 H         1 UNK         0.0839 
     99 H99        26.0256  -27.2900  -44.1873 H         1 UNK         0.0839 
    100 H100       24.3213  -28.3301  -40.2213 H         1 UNK         0.2998 
    101 H101       23.9777  -29.8291  -38.6702 H         1 UNK         0.0822 
    102 H102       26.1628  -29.0587  -37.7079 H         1 UNK         0.0787 
    103 H103       25.8126  -30.7337  -37.3181 H         1 UNK         0.0787 
    104 H104       26.9911  -30.3592  -38.5646 H         1 UNK         0.0787 
    105 H105       23.7302  -30.6180  -41.4177 H         1 UNK         0.3055 
    106 H106       24.1388  -33.5761  -41.2923 H         1 UNK         0.1106 
    107 H107       23.4012  -31.7352  -43.6431 H         1 UNK         0.0828 
    108 H108       23.6582  -33.4709  -43.7353 H         1 UNK         0.0828 
    109 H109       25.0009  -32.4085  -43.3500 H         1 UNK         0.0828 
    110 H110       22.2621  -34.8209  -42.1042 H         1 UNK         0.2931 
    111 H111       20.2267  -35.5495  -42.0490 H         1 UNK         0.0412 
    112 H112       18.1244  -34.9150  -38.9962 H         1 UNK         0.3472 
    113 H113       17.7882  -34.8020  -40.7091 H         1 UNK         0.3472 
    114 H114       18.8692  -32.8234  -42.0081 H         1 UNK         0.0970 
    115 H115       19.8200  -33.2519  -43.3951 H         1 UNK         0.0970 
    116 H116       16.3043  -33.0974  -42.4280 H         1 UNK         0.0612 
    117 H117       15.7107  -33.8854  -43.8708 H         1 UNK         0.0612 
@<TRIPOS>BOND
     1    1    2 1    
     2    1   62 1    
     3    1   63 1    
     4    1   64 1    
     5    2    3 2    
     6    2    4 am   BACKBONE|DICT|INTERRES
     7    4    5 1    
     8    4   65 1    
     9    5    6 1    
    10    5   25 1    
    11    5   66 1    
    12    6    7 1    
    13    6   67 1    
    14    6   68 1    
    15    7    8 1    
    16    8    9 1    
    17    8   69 1    
    18    8   70 1    
    19    9   10 ar   
    20    9   14 ar   
    21   10   11 ar   
    22   10   71 1    
    23   11   12 ar   
    24   11   61 1    
    25   12   13 ar   
    26   12   72 1    
    27   13   14 ar   
    28   13   15 1    
    29   14   73 1    
    30   15   16 1    
    31   15   74 1    
    32   15   75 1    
    33   16   17 1    
    34   17   18 1    
    35   17   76 1    
    36   17   77 1    
    37   18   19 1    
    38   18   27 1    
    39   18   78 1    
    40   19   20 am   BACKBONE|DICT|INTERRES
    41   19   79 1    
    42   20   21 2    
    43   20   22 1    
    44   22   23 1    
    45   22   24 1    
    46   22   80 1    
    47   23   81 1    
    48   23   82 1    
    49   23   83 1    
    50   24   25 am   BACKBONE|DICT|INTERRES
    51   24   84 1    
    52   25   26 2    
    53   27   28 2    
    54   27   29 am   BACKBONE|DICT|INTERRES
    55   29   30 1    
    56   29   85 1    
    57   30   31 1    
    58   30   32 1    
    59   30   86 1    
    60   31   87 1    
    61   31   88 1    
    62   31   89 1    
    63   32   33 2    
    64   32   34 am   BACKBONE|DICT|INTERRES
    65   34   35 1    
    66   34   90 1    
    67   35   36 1    
    68   35   37 1    
    69   35   91 1    
    70   36   92 1    
    71   36   93 1    
    72   36   94 1    
    73   37   38 2    
    74   37   39 am   BACKBONE|DICT|INTERRES
    75   39   40 1    
    76   39   95 1    
    77   40   41 1    
    78   40   42 1    
    79   40   96 1    
    80   41   97 1    
    81   41   98 1    
    82   41   99 1    
    83   42   43 2    
    84   42   44 am   BACKBONE|DICT|INTERRES
    85   44   45 1    
    86   44  100 1    
    87   45   46 1    
    88   45   47 1    
    89   45  101 1    
    90   46  102 1    
    91   46  103 1    
    92   46  104 1    
    93   47   48 2    
    94   47   49 am   BACKBONE|DICT|INTERRES
    95   49   50 1    
    96   49  105 1    
    97   50   51 1    
    98   50   52 1    
    99   50  106 1    
   100   51  107 1    
   101   51  108 1    
   102   51  109 1    
   103   52   53 2    
   104   52   54 am   BACKBONE|DICT|INTERRES
   105   54   55 1    
   106   54  110 1    
   107   55   56 1    
   108   55   59 1    
   109   55  111 1    
   110   56   57 am   BACKBONE|DICT|INTERRES
   111   56   58 2    
   112   57  112 1    
   113   57  113 1    
   114   59   60 1    
   115   59  114 1    
   116   59  115 1    
   117   60   61 1    
   118   61  116 1    
   119   61  117 1    
@<TRIPOS>SUBSTRUCTURE
     1 UNK         1 GROUP             0       ****    0 ROOT    
