@<TRIPOS>MOLECULE
3R8
117   119    1
SMALL
USER_CHARGES


@<TRIPOS>ATOM
      1 CA         15.9696  -25.8014  -41.2074 C.3       0 UNK        -0.2013 
      2 C          15.9512  -25.5061  -42.6997 C.2       0 UNK         0.4866 
      3 O          15.3749  -24.5014  -43.1193 O.2       0 UNK        -0.5176 
      4 N          16.5686  -26.3792  -43.5034 N.am      1 UNK        -0.4884 
      5 CA         16.6948  -26.2388  -44.9592 C.3       1 UNK         0.0853 
      6 C6         16.9806  -27.6036  -45.6459 C.3       10 UNK        -0.0849 
      7 S7         15.8060  -28.9180  -45.1495 S.3       10 UNK        -0.2776 
      8 C8         16.8701  -30.3945  -44.9701 C.3       10 UNK         0.0316 
      9 C9         18.0648  -30.1645  -44.0522 C.ar      10 UNK        -0.0863 
     10 C10        17.8775  -29.8828  -42.6955 C.ar      10 UNK        -0.1009 
     11 C11        18.9738  -29.6163  -41.8692 C.ar      10 UNK        -0.0712 
     12 C12        20.2619  -29.6409  -42.4076 C.ar      10 UNK        -0.0894 
     13 C13        20.4663  -29.9288  -43.7603 C.ar      10 UNK        -0.0745 
     14 C14        19.3622  -30.2084  -44.5724 C.ar      10 UNK        -0.0972 
     15 C15        21.8838  -29.9143  -44.3282 C.3       10 UNK         0.0209 
     16 S16        22.0491  -29.0502  -45.9323 S.3       10 UNK        -0.2568 
     17 C17        21.1187  -27.5059  -45.6472 C.3       10 UNK        -0.0983 
     18 CA         21.8970  -26.2024  -45.9844 C.3       3 UNK         0.0876 
     19 N          20.9639  -25.1133  -46.2530 N.am      3 UNK        -0.4424 
     20 C          20.1835  -25.0023  -47.3297 C.2       2 UNK         0.4918 
     21 O          20.3176  -25.6770  -48.3519 O.2       2 UNK        -0.4875 
     22 CA         18.9729  -24.0618  -47.1818 C.3       2 UNK         0.0481 
     23 CB         18.5333  -23.4630  -48.5297 C.3       2 UNK        -0.1831 
     24 N          17.8548  -24.8106  -46.5952 N.am      2 UNK        -0.4498 
     25 C          17.7946  -25.2121  -45.3159 C.2       1 UNK         0.5027 
     26 O          18.5976  -24.8396  -44.4548 O.2       1 UNK        -0.4969 
     27 C          22.8226  -25.7690  -44.8299 C.2       3 UNK         0.5005 
     28 O          22.7185  -24.6400  -44.3378 O.2       3 UNK        -0.5279 
     29 N          23.6974  -26.6868  -44.4031 N.am      4 UNK        -0.4463 
     30 CA         24.4928  -26.5897  -43.1779 C.3       4 UNK         0.0283 
     31 CB         25.5592  -27.6992  -43.1989 C.3       4 UNK        -0.1875 
     32 C          23.6136  -26.7217  -41.9194 C.2       4 UNK         0.4949 
     33 O          22.4876  -27.2136  -41.9978 O.2       4 UNK        -0.5039 
     34 N          24.1618  -26.3207  -40.7653 N.am      5 UNK        -0.4663 
     35 CA         23.5047  -26.4564  -39.4580 C.3       5 UNK         0.0242 
     36 CB         24.2359  -25.5736  -38.4333 C.3       5 UNK        -0.1982 
     37 C          23.4264  -27.9119  -38.9550 C.2       5 UNK         0.5017 
     38 O          22.5671  -28.2158  -38.1268 O.2       5 UNK        -0.5012 
     39 N          24.3268  -28.7674  -39.4538 N.am      6 UNK        -0.4439 
     40 CA         24.4074  -30.1955  -39.1628 C.3       6 UNK         0.0297 
     41 CB         25.7472  -30.4942  -38.4583 C.3       6 UNK        -0.2006 
     42 C          24.1867  -30.9703  -40.4726 C.2       6 UNK         0.4892 
     43 O          23.1467  -30.7783  -41.1042 O.2       6 UNK        -0.5089 
     44 N          25.1461  -31.8253  -40.8587 N.am      7 UNK        -0.4243 
     45 CA         25.1367  -32.7106  -42.0294 C.3       7 UNK         0.0196 
     46 CB         25.1866  -31.9042  -43.3463 C.3       7 UNK        -0.2007 
     47 C          23.9804  -33.7247  -41.9671 C.2       7 UNK         0.5020 
     48 O          24.1607  -34.8039  -41.4025 O.2       7 UNK        -0.5147 
     49 N          22.8192  -33.3639  -42.5290 N.am      8 UNK        -0.4734 
     50 CA         21.5798  -34.1388  -42.4240 C.3       8 UNK         0.0238 
     51 CB         20.6024  -33.7056  -43.5276 C.3       8 UNK        -0.1912 
     52 C          20.9242  -34.0009  -41.0385 C.2       8 UNK         0.5038 
     53 O          20.3114  -34.9610  -40.5691 O.2       8 UNK        -0.5046 
     54 N          21.0722  -32.8262  -40.4127 N.am      9 UNK        -0.4200 
     55 CA         20.6671  -32.5614  -39.0273 C.3       9 UNK         0.0839 
     56 C          21.7502  -33.0259  -38.0155 C.2       9 UNK         0.5513 
     57 N          21.3694  -33.2341  -36.7625 N.am      9 UNK        -0.7519 
     58 O          22.9268  -33.1763  -38.3360 O.2       9 UNK        -0.4960 
     59 C59        20.2931  -31.0681  -38.8271 C.3       10 UNK        -0.0876 
     60 S60        18.5802  -30.7344  -39.3637 S.3       10 UNK        -0.2414 
     61 C61        18.7614  -29.2569  -40.4072 C.3       10 UNK         0.0169 
     62 H62        14.9520  -25.8435  -40.8200 H         1 UNK         0.0903 
     63 H63        16.4546  -26.7516  -40.9867 H         1 UNK         0.0903 
     64 H64        16.5051  -25.0149  -40.6763 H         1 UNK         0.0903 
     65 H65        17.0396  -27.1805  -43.1087 H         1 UNK         0.3096 
     66 H66        15.7479  -25.8540  -45.3451 H         1 UNK         0.1121 
     67 H67        16.9261  -27.5059  -46.7315 H         1 UNK         0.0849 
     68 H68        18.0001  -27.9206  -45.4291 H         1 UNK         0.0849 
     69 H69        16.2710  -31.2161  -44.5751 H         1 UNK         0.0865 
     70 H70        17.1994  -30.7093  -45.9616 H         1 UNK         0.0865 
     71 H71        16.8761  -29.8509  -42.2880 H         1 UNK         0.1346 
     72 H72        21.1067  -29.4140  -41.7724 H         1 UNK         0.1412 
     73 H73        19.5144  -30.4267  -45.6205 H         1 UNK         0.1426 
     74 H74        22.2143  -30.9447  -44.4574 H         1 UNK         0.0716 
     75 H75        22.5704  -29.4528  -43.6170 H         1 UNK         0.0716 
     76 H76        20.7349  -27.4593  -44.6263 H         1 UNK         0.0695 
     77 H77        20.2339  -27.5944  -46.2780 H         1 UNK         0.0695 
     78 H78        22.5135  -26.3515  -46.8735 H         1 UNK         0.0983 
     79 H79        20.8018  -24.5118  -45.4534 H         1 UNK         0.3095 
     80 H80        19.2441  -23.2380  -46.5180 H         1 UNK         0.0454 
     81 H81        18.2134  -24.2316  -49.2345 H         1 UNK         0.0851 
     82 H82        19.3528  -22.9150  -48.9964 H         1 UNK         0.0851 
     83 H83        17.7080  -22.7626  -48.4014 H         1 UNK         0.0851 
     84 H84        17.1710  -25.1663  -47.2481 H         1 UNK         0.2976 
     85 H85        23.6592  -27.5968  -44.8423 H         1 UNK         0.3116 
     86 H86        24.9873  -25.6162  -43.1607 H         1 UNK         0.0646 
     87 H87        25.1094  -28.6927  -43.1707 H         1 UNK         0.0847 
     88 H88        26.2292  -27.6210  -42.3420 H         1 UNK         0.0847 
     89 H89        26.1792  -27.6379  -44.0936 H         1 UNK         0.0847 
     90 H90        25.0866  -25.9131  -40.7729 H         1 UNK         0.3040 
     91 H91        22.4783  -26.0936  -39.5519 H         1 UNK         0.1015 
     92 H92        24.2301  -24.5260  -38.7352 H         1 UNK         0.0786 
     93 H93        25.2741  -25.8813  -38.3015 H         1 UNK         0.0786 
     94 H94        23.7536  -25.6293  -37.4562 H         1 UNK         0.0786 
     95 H95        24.9502  -28.4214  -40.1679 H         1 UNK         0.3172 
     96 H96        23.6010  -30.4912  -38.4894 H         1 UNK         0.0595 
     97 H97        26.6073  -30.2368  -39.0780 H         1 UNK         0.0839 
     98 H98        25.8252  -31.5481  -38.1869 H         1 UNK         0.0839 
     99 H99        25.8315  -29.9259  -37.5317 H         1 UNK         0.0839 
    100 H100       25.9420  -31.9339  -40.2460 H         1 UNK         0.2998 
    101 H101       26.0563  -33.2962  -41.9784 H         1 UNK         0.0822 
    102 H102       25.1364  -32.5647  -44.2131 H         1 UNK         0.0787 
    103 H103       24.3721  -31.1877  -43.4311 H         1 UNK         0.0787 
    104 H104       26.1190  -31.3449  -43.4231 H         1 UNK         0.0787 
    105 H105       22.7514  -32.4315  -42.9105 H         1 UNK         0.3055 
    106 H106       21.8180  -35.1944  -42.5750 H         1 UNK         0.1106 
    107 H107       19.7164  -34.3418  -43.5307 H         1 UNK         0.0828 
    108 H108       20.2601  -32.6819  -43.3817 H         1 UNK         0.0828 
    109 H109       21.0553  -33.7750  -44.5166 H         1 UNK         0.0828 
    110 H110       21.6559  -32.1170  -40.8426 H         1 UNK         0.2931 
    111 H111       19.7814  -33.1633  -38.8122 H         1 UNK         0.0412 
    112 H112       22.0558  -33.5284  -36.0852 H         1 UNK         0.3472 
    113 H113       20.4081  -33.1149  -36.4817 H         1 UNK         0.3472 
    114 H114       20.3494  -30.7795  -37.7756 H         1 UNK         0.0970 
    115 H115       20.9977  -30.4168  -39.3475 H         1 UNK         0.0970 
    116 H116       17.8552  -28.6581  -40.3119 H         1 UNK         0.0612 
    117 H117       19.5750  -28.6305  -40.0372 H         1 UNK         0.0612 
@<TRIPOS>BOND
     1    1    2 1    
     2    1   62 1    
     3    1   63 1    
     4    1   64 1    
     5    2    3 2    
     6    2    4 am   BACKBONE|DICT|INTERRES
     7    4    5 1    
     8    4   65 1    
     9    5    6 1    
    10    5   25 1    
    11    5   66 1    
    12    6    7 1    
    13    6   67 1    
    14    6   68 1    
    15    7    8 1    
    16    8    9 1    
    17    8   69 1    
    18    8   70 1    
    19    9   10 ar   
    20    9   14 ar   
    21   10   11 ar   
    22   10   71 1    
    23   11   12 ar   
    24   11   61 1    
    25   12   13 ar   
    26   12   72 1    
    27   13   14 ar   
    28   13   15 1    
    29   14   73 1    
    30   15   16 1    
    31   15   74 1    
    32   15   75 1    
    33   16   17 1    
    34   17   18 1    
    35   17   76 1    
    36   17   77 1    
    37   18   19 1    
    38   18   27 1    
    39   18   78 1    
    40   19   20 am   BACKBONE|DICT|INTERRES
    41   19   79 1    
    42   20   21 2    
    43   20   22 1    
    44   22   23 1    
    45   22   24 1    
    46   22   80 1    
    47   23   81 1    
    48   23   82 1    
    49   23   83 1    
    50   24   25 am   BACKBONE|DICT|INTERRES
    51   24   84 1    
    52   25   26 2    
    53   27   28 2    
    54   27   29 am   BACKBONE|DICT|INTERRES
    55   29   30 1    
    56   29   85 1    
    57   30   31 1    
    58   30   32 1    
    59   30   86 1    
    60   31   87 1    
    61   31   88 1    
    62   31   89 1    
    63   32   33 2    
    64   32   34 am   BACKBONE|DICT|INTERRES
    65   34   35 1    
    66   34   90 1    
    67   35   36 1    
    68   35   37 1    
    69   35   91 1    
    70   36   92 1    
    71   36   93 1    
    72   36   94 1    
    73   37   38 2    
    74   37   39 am   BACKBONE|DICT|INTERRES
    75   39   40 1    
    76   39   95 1    
    77   40   41 1    
    78   40   42 1    
    79   40   96 1    
    80   41   97 1    
    81   41   98 1    
    82   41   99 1    
    83   42   43 2    
    84   42   44 am   BACKBONE|DICT|INTERRES
    85   44   45 1    
    86   44  100 1    
    87   45   46 1    
    88   45   47 1    
    89   45  101 1    
    90   46  102 1    
    91   46  103 1    
    92   46  104 1    
    93   47   48 2    
    94   47   49 am   BACKBONE|DICT|INTERRES
    95   49   50 1    
    96   49  105 1    
    97   50   51 1    
    98   50   52 1    
    99   50  106 1    
   100   51  107 1    
   101   51  108 1    
   102   51  109 1    
   103   52   53 2    
   104   52   54 am   BACKBONE|DICT|INTERRES
   105   54   55 1    
   106   54  110 1    
   107   55   56 1    
   108   55   59 1    
   109   55  111 1    
   110   56   57 am   BACKBONE|DICT|INTERRES
   111   56   58 2    
   112   57  112 1    
   113   57  113 1    
   114   59   60 1    
   115   59  114 1    
   116   59  115 1    
   117   60   61 1    
   118   61  116 1    
   119   61  117 1    
@<TRIPOS>SUBSTRUCTURE
     1 UNK         1 GROUP             0       ****    0 ROOT    
