@<TRIPOS>MOLECULE
3R8
117   119    1
SMALL
USER_CHARGES


@<TRIPOS>ATOM
      1 CA         12.3213  -25.9944  -42.7556 C.3       0 UNK        -0.2013 
      2 C          13.6440  -25.8154  -43.4859 C.2       0 UNK         0.4866 
      3 O          14.1683  -24.7023  -43.5405 O.2       0 UNK        -0.5176 
      4 N          14.1824  -26.8997  -44.0560 N.am      1 UNK        -0.4884 
      5 CA         15.4870  -26.9363  -44.7234 C.3       1 UNK         0.0853 
      6 C6         15.6069  -28.1640  -45.6649 C.3       10 UNK        -0.0849 
      7 S7         15.3584  -29.7748  -44.8287 S.3       10 UNK        -0.2776 
      8 C8         16.6480  -30.8236  -45.5762 C.3       10 UNK         0.0316 
      9 C9         18.0593  -30.2920  -45.3564 C.ar      10 UNK        -0.0863 
     10 C10        18.6197  -30.2615  -44.0760 C.ar      10 UNK        -0.1009 
     11 C11        19.9257  -29.7940  -43.8756 C.ar      10 UNK        -0.0712 
     12 C12        20.6786  -29.3853  -44.9839 C.ar      10 UNK        -0.0894 
     13 C13        20.1309  -29.4188  -46.2711 C.ar      10 UNK        -0.0745 
     14 C14        18.8190  -29.8635  -46.4471 C.ar      10 UNK        -0.0972 
     15 C15        20.9554  -29.0244  -47.4885 C.3       10 UNK         0.0209 
     16 S16        20.8214  -27.2470  -47.8636 S.3       10 UNK        -0.2568 
     17 C17        22.1841  -26.5619  -46.8643 C.3       10 UNK        -0.0983 
     18 CA         21.7296  -25.5057  -45.8271 C.3       3 UNK         0.0876 
     19 N          20.6472  -26.0028  -44.9623 N.am      3 UNK        -0.4424 
     20 C          19.9642  -25.2492  -44.0919 C.2       2 UNK         0.4918 
     21 O          20.1109  -24.0312  -43.9788 O.2       2 UNK        -0.4875 
     22 CA         18.9203  -25.9759  -43.2384 C.3       2 UNK         0.0481 
     23 CB         18.6260  -25.2150  -41.9259 C.3       2 UNK        -0.1831 
     24 N          17.7144  -26.1553  -44.0454 N.am      2 UNK        -0.4498 
     25 C          16.6356  -26.8657  -43.6916 C.2       1 UNK         0.5027 
     26 O          16.5188  -27.4496  -42.6108 O.2       1 UNK        -0.4969 
     27 C          22.9607  -25.0402  -45.0171 C.2       3 UNK         0.5005 
     28 O          23.6451  -24.0957  -45.4130 O.2       3 UNK        -0.5279 
     29 N          23.2085  -25.7410  -43.9079 N.am      4 UNK        -0.4463 
     30 CA         24.2857  -25.6157  -42.9347 C.3       4 UNK         0.0283 
     31 CB         25.6549  -25.9201  -43.5835 C.3       4 UNK        -0.1875 
     32 C          23.9222  -26.6103  -41.8183 C.2       4 UNK         0.4949 
     33 O          22.7538  -26.9953  -41.7198 O.2       4 UNK        -0.5039 
     34 N          24.9053  -27.0559  -41.0244 N.am      5 UNK        -0.4663 
     35 CA         24.7350  -28.1877  -40.1047 C.3       5 UNK         0.0242 
     36 CB         25.9251  -28.2660  -39.1357 C.3       5 UNK        -0.1982 
     37 C          24.5593  -29.5128  -40.8674 C.2       5 UNK         0.5017 
     38 O          23.6790  -30.3026  -40.5252 O.2       5 UNK        -0.5012 
     39 N          25.3972  -29.7233  -41.8959 N.am      6 UNK        -0.4439 
     40 CA         25.3614  -30.8199  -42.8793 C.3       6 UNK         0.0297 
     41 CB         24.1622  -30.6194  -43.8296 C.3       6 UNK        -0.2006 
     42 C          25.3871  -32.2490  -42.2885 C.2       6 UNK         0.4892 
     43 O          25.0162  -33.1951  -42.9846 O.2       6 UNK        -0.5089 
     44 N          25.8000  -32.3745  -41.0171 N.am      7 UNK        -0.4243 
     45 CA         25.7425  -33.5722  -40.1692 C.3       7 UNK         0.0196 
     46 CB         26.7265  -34.6493  -40.6750 C.3       7 UNK        -0.2007 
     47 C          24.3102  -34.1177  -39.9643 C.2       7 UNK         0.5020 
     48 O          24.1483  -35.3194  -39.7437 O.2       7 UNK        -0.5147 
     49 N          23.2974  -33.2404  -40.0346 N.am      8 UNK        -0.4734 
     50 CA         21.8807  -33.6087  -39.9257 C.3       8 UNK         0.0238 
     51 CB         21.3101  -33.9028  -41.3246 C.3       8 UNK        -0.1912 
     52 C          21.0386  -32.5510  -39.1982 C.2       8 UNK         0.5038 
     53 O          20.1424  -32.9237  -38.4399 O.2       8 UNK        -0.5046 
     54 N          21.3356  -31.2668  -39.4254 N.am      9 UNK        -0.4200 
     55 CA         20.6822  -30.1180  -38.7803 C.3       9 UNK         0.0839 
     56 C          21.3943  -29.6626  -37.4737 C.2       9 UNK         0.5513 
     57 N          22.5440  -30.2181  -37.1076 N.am      9 UNK        -0.7519 
     58 O          20.8861  -28.7939  -36.7698 O.2       9 UNK        -0.4960 
     59 C59        20.5291  -28.9325  -39.7689 C.3       10 UNK        -0.0876 
     60 S60        19.3978  -29.2916  -41.1541 S.3       10 UNK        -0.2414 
     61 C61        20.5574  -29.7613  -42.4835 C.3       10 UNK         0.0169 
     62 H62        11.9678  -27.0245  -42.7988 H         1 UNK         0.0903 
     63 H63        12.4316  -25.7176  -41.7075 H         1 UNK         0.0903 
     64 H64        11.5580  -25.3553  -43.1988 H         1 UNK         0.0903 
     65 H65        13.7369  -27.8002  -43.9463 H         1 UNK         0.3096 
     66 H66        15.5532  -26.0422  -45.3481 H         1 UNK         0.1121 
     67 H67        16.5697  -28.1463  -46.1767 H         1 UNK         0.0849 
     68 H68        14.8609  -28.0858  -46.4572 H         1 UNK         0.0849 
     69 H69        16.5770  -31.8244  -45.1480 H         1 UNK         0.0865 
     70 H70        16.4355  -30.9357  -46.6406 H         1 UNK         0.0865 
     71 H71        18.0302  -30.6003  -43.2353 H         1 UNK         0.1346 
     72 H72        21.6993  -29.0564  -44.8471 H         1 UNK         0.1412 
     73 H73        18.3961  -29.8946  -47.4424 H         1 UNK         0.1426 
     74 H74        20.6088  -29.5822  -48.3599 H         1 UNK         0.0716 
     75 H75        21.9990  -29.3132  -47.3555 H         1 UNK         0.0716 
     76 H76        22.9014  -26.1183  -47.5578 H         1 UNK         0.0695 
     77 H77        22.7172  -27.3759  -46.3701 H         1 UNK         0.0695 
     78 H78        21.3470  -24.6366  -46.3670 H         1 UNK         0.0983 
     79 H79        20.4140  -26.9819  -45.0545 H         1 UNK         0.3095 
     80 H80        19.3212  -26.9585  -42.9867 H         1 UNK         0.0454 
     81 H81        18.0133  -25.8044  -41.2446 H         1 UNK         0.0851 
     82 H82        18.1103  -24.2723  -42.1119 H         1 UNK         0.0851 
     83 H83        19.5508  -24.9847  -41.3951 H         1 UNK         0.0851 
     84 H84        17.7328  -25.7033  -44.9500 H         1 UNK         0.2976 
     85 H85        22.5345  -26.4433  -43.6233 H         1 UNK         0.3116 
     86 H86        24.2785  -24.6058  -42.5213 H         1 UNK         0.0646 
     87 H87        25.7068  -26.9453  -43.9524 H         1 UNK         0.0847 
     88 H88        26.4727  -25.7787  -42.8767 H         1 UNK         0.0847 
     89 H89        25.8578  -25.2571  -44.4242 H         1 UNK         0.0847 
     90 H90        25.8358  -26.6783  -41.1311 H         1 UNK         0.3040 
     91 H91        23.8302  -28.0233  -39.5149 H         1 UNK         0.1015 
     92 H92        26.8714  -28.4128  -39.6576 H         1 UNK         0.0786 
     93 H93        25.8038  -29.0956  -38.4374 H         1 UNK         0.0786 
     94 H94        26.0090  -27.3563  -38.5406 H         1 UNK         0.0786 
     95 H95        26.1062  -29.0228  -42.0611 H         1 UNK         0.3172 
     96 H96        26.2728  -30.7252  -43.4713 H         1 UNK         0.0595 
     97 H97        23.2151  -30.7807  -43.3154 H         1 UNK         0.0839 
     98 H98        24.1992  -31.3179  -44.6664 H         1 UNK         0.0839 
     99 H99        24.1511  -29.6141  -44.2504 H         1 UNK         0.0839 
    100 H100       26.0823  -31.5258  -40.5480 H         1 UNK         0.2998 
    101 H101       26.0819  -33.2581  -39.1811 H         1 UNK         0.0822 
    102 H102       27.7298  -34.2424  -40.8016 H         1 UNK         0.0787 
    103 H103       26.8015  -35.4758  -39.9672 H         1 UNK         0.0787 
    104 H104       26.4112  -35.0688  -41.6308 H         1 UNK         0.0787 
    105 H105       23.5140  -32.2653  -40.2153 H         1 UNK         0.3055 
    106 H106       21.7919  -34.5192  -39.3281 H         1 UNK         0.1106 
    107 H107       21.4390  -33.0571  -41.9998 H         1 UNK         0.0828 
    108 H108       21.8019  -34.7644  -41.7765 H         1 UNK         0.0828 
    109 H109       20.2435  -34.1271  -41.2766 H         1 UNK         0.0828 
    110 H110       22.1202  -31.0230  -40.0232 H         1 UNK         0.2931 
    111 H111       19.6765  -30.4143  -38.4763 H         1 UNK         0.0412 
    112 H112       22.9876  -29.9181  -36.2538 H         1 UNK         0.3472 
    113 H113       22.9674  -30.9346  -37.6740 H         1 UNK         0.3472 
    114 H114       20.1238  -28.0572  -39.2577 H         1 UNK         0.0970 
    115 H115       21.5011  -28.6252  -40.1527 H         1 UNK         0.0970 
    116 H116       21.3954  -29.0651  -42.4783 H         1 UNK         0.0612 
    117 H117       20.9687  -30.7447  -42.2601 H         1 UNK         0.0612 
@<TRIPOS>BOND
     1    1    2 1    
     2    1   62 1    
     3    1   63 1    
     4    1   64 1    
     5    2    3 2    
     6    2    4 am   BACKBONE|DICT|INTERRES
     7    4    5 1    
     8    4   65 1    
     9    5    6 1    
    10    5   25 1    
    11    5   66 1    
    12    6    7 1    
    13    6   67 1    
    14    6   68 1    
    15    7    8 1    
    16    8    9 1    
    17    8   69 1    
    18    8   70 1    
    19    9   10 ar   
    20    9   14 ar   
    21   10   11 ar   
    22   10   71 1    
    23   11   12 ar   
    24   11   61 1    
    25   12   13 ar   
    26   12   72 1    
    27   13   14 ar   
    28   13   15 1    
    29   14   73 1    
    30   15   16 1    
    31   15   74 1    
    32   15   75 1    
    33   16   17 1    
    34   17   18 1    
    35   17   76 1    
    36   17   77 1    
    37   18   19 1    
    38   18   27 1    
    39   18   78 1    
    40   19   20 am   BACKBONE|DICT|INTERRES
    41   19   79 1    
    42   20   21 2    
    43   20   22 1    
    44   22   23 1    
    45   22   24 1    
    46   22   80 1    
    47   23   81 1    
    48   23   82 1    
    49   23   83 1    
    50   24   25 am   BACKBONE|DICT|INTERRES
    51   24   84 1    
    52   25   26 2    
    53   27   28 2    
    54   27   29 am   BACKBONE|DICT|INTERRES
    55   29   30 1    
    56   29   85 1    
    57   30   31 1    
    58   30   32 1    
    59   30   86 1    
    60   31   87 1    
    61   31   88 1    
    62   31   89 1    
    63   32   33 2    
    64   32   34 am   BACKBONE|DICT|INTERRES
    65   34   35 1    
    66   34   90 1    
    67   35   36 1    
    68   35   37 1    
    69   35   91 1    
    70   36   92 1    
    71   36   93 1    
    72   36   94 1    
    73   37   38 2    
    74   37   39 am   BACKBONE|DICT|INTERRES
    75   39   40 1    
    76   39   95 1    
    77   40   41 1    
    78   40   42 1    
    79   40   96 1    
    80   41   97 1    
    81   41   98 1    
    82   41   99 1    
    83   42   43 2    
    84   42   44 am   BACKBONE|DICT|INTERRES
    85   44   45 1    
    86   44  100 1    
    87   45   46 1    
    88   45   47 1    
    89   45  101 1    
    90   46  102 1    
    91   46  103 1    
    92   46  104 1    
    93   47   48 2    
    94   47   49 am   BACKBONE|DICT|INTERRES
    95   49   50 1    
    96   49  105 1    
    97   50   51 1    
    98   50   52 1    
    99   50  106 1    
   100   51  107 1    
   101   51  108 1    
   102   51  109 1    
   103   52   53 2    
   104   52   54 am   BACKBONE|DICT|INTERRES
   105   54   55 1    
   106   54  110 1    
   107   55   56 1    
   108   55   59 1    
   109   55  111 1    
   110   56   57 am   BACKBONE|DICT|INTERRES
   111   56   58 2    
   112   57  112 1    
   113   57  113 1    
   114   59   60 1    
   115   59  114 1    
   116   59  115 1    
   117   60   61 1    
   118   61  116 1    
   119   61  117 1    
@<TRIPOS>SUBSTRUCTURE
     1 UNK         1 GROUP             0       ****    0 ROOT    
