@<TRIPOS>MOLECULE
3R8
117   119    1
SMALL
USER_CHARGES


@<TRIPOS>ATOM
      1 CA         16.0752  -28.9207  -40.8662 C.3       0 UNK        -0.2013 
      2 C          16.2636  -27.6726  -41.7135 C.2       0 UNK         0.4866 
      3 O          16.1694  -26.5595  -41.1942 O.2       0 UNK        -0.5176 
      4 N          16.5145  -27.8495  -43.0168 N.am      1 UNK        -0.4884 
      5 CA         16.7707  -26.7641  -43.9723 C.3       1 UNK         0.0853 
      6 C6         16.4813  -27.1747  -45.4437 C.3       10 UNK        -0.0849 
      7 S7         14.8959  -28.0720  -45.6473 S.3       10 UNK        -0.2776 
      8 C8         15.3929  -29.6683  -46.3877 C.3       10 UNK         0.0316 
      9 C9         16.5666  -30.3172  -45.6655 C.ar      10 UNK        -0.0863 
     10 C10        16.4013  -30.8910  -44.4017 C.ar      10 UNK        -0.1009 
     11 C11        17.4990  -31.4237  -43.7171 C.ar      10 UNK        -0.0712 
     12 C12        18.7672  -31.3816  -44.3109 C.ar      10 UNK        -0.0894 
     13 C13        18.9392  -30.8312  -45.5839 C.ar      10 UNK        -0.0745 
     14 C14        17.8310  -30.3170  -46.2602 C.ar      10 UNK        -0.0972 
     15 C15        20.3087  -30.8064  -46.2497 C.3       10 UNK         0.0209 
     16 S16        20.8639  -29.1081  -46.6151 S.3       10 UNK        -0.2568 
     17 C17        21.9249  -28.7541  -45.1800 C.3       10 UNK        -0.0983 
     18 CA         22.3221  -27.2574  -45.1116 C.3       3 UNK         0.0876 
     19 N          21.1780  -26.4156  -44.7546 N.am      3 UNK        -0.4424 
     20 C          21.0168  -25.1245  -45.0591 C.2       2 UNK         0.4918 
     21 O          21.8095  -24.5047  -45.7713 O.2       2 UNK        -0.4875 
     22 CA         19.8044  -24.3946  -44.4314 C.3       2 UNK         0.0481 
     23 CB         19.5981  -22.9888  -45.0261 C.3       2 UNK        -0.1831 
     24 N          18.5297  -25.1243  -44.4967 N.am      2 UNK        -0.4498 
     25 C          18.2117  -26.2295  -43.8077 C.2       1 UNK         0.5027 
     26 O          19.0166  -26.8246  -43.0848 O.2       1 UNK        -0.4969 
     27 C          23.4780  -26.9905  -44.1238 C.2       3 UNK         0.5005 
     28 O          23.8453  -27.8708  -43.3429 O.2       3 UNK        -0.5279 
     29 N          24.0085  -25.7576  -44.1593 N.am      4 UNK        -0.4463 
     30 CA         25.0391  -25.2020  -43.2762 C.3       4 UNK         0.0283 
     31 CB         26.4079  -25.8742  -43.5319 C.3       4 UNK        -0.1875 
     32 C          24.5883  -25.2405  -41.8039 C.2       4 UNK         0.4949 
     33 O          23.8243  -24.3699  -41.3860 O.2       4 UNK        -0.5039 
     34 N          25.0422  -26.2572  -41.0654 N.am      5 UNK        -0.4663 
     35 CA         24.6161  -26.5697  -39.7041 C.3       5 UNK         0.0242 
     36 CB         25.3923  -25.7253  -38.6764 C.3       5 UNK        -0.1982 
     37 C          24.7792  -28.0703  -39.4446 C.2       5 UNK         0.5017 
     38 O          23.8272  -28.7172  -39.0117 O.2       5 UNK        -0.5012 
     39 N          25.9740  -28.6053  -39.7387 N.am      6 UNK        -0.4439 
     40 CA         26.3273  -30.0132  -39.5258 C.3       6 UNK         0.0297 
     41 CB         27.8400  -30.1962  -39.7296 C.3       6 UNK        -0.2006 
     42 C          25.5448  -30.9992  -40.4116 C.2       6 UNK         0.4892 
     43 O          25.2355  -32.1001  -39.9550 O.2       6 UNK        -0.5089 
     44 N          25.2383  -30.5927  -41.6513 N.am      7 UNK        -0.4243 
     45 CA         24.5001  -31.4009  -42.6251 C.3       7 UNK         0.0196 
     46 CB         25.0052  -31.0769  -44.0417 C.3       7 UNK        -0.2007 
     47 C          22.9736  -31.2364  -42.5172 C.2       7 UNK         0.5020 
     48 O          22.2486  -31.9726  -43.1866 O.2       7 UNK        -0.5147 
     49 N          22.4895  -30.3170  -41.6695 N.am      8 UNK        -0.4734 
     50 CA         21.0683  -30.0360  -41.4345 C.3       8 UNK         0.0238 
     51 CB         20.9181  -28.5969  -40.9088 C.3       8 UNK        -0.1912 
     52 C          20.3941  -31.0829  -40.5231 C.2       8 UNK         0.5038 
     53 O          19.7066  -30.7176  -39.5682 O.2       8 UNK        -0.5046 
     54 N          20.5913  -32.3663  -40.8514 N.am      9 UNK        -0.4200 
     55 CA         20.0212  -33.5549  -40.1923 C.3       9 UNK         0.0839 
     56 C          20.4743  -33.7654  -38.7149 C.2       9 UNK         0.5513 
     57 N          21.5854  -33.1846  -38.2782 N.am      9 UNK        -0.7519 
     58 O          19.8320  -34.4908  -37.9594 O.2       9 UNK        -0.4960 
     59 C59        18.4796  -33.6721  -40.3803 C.3       10 UNK        -0.0876 
     60 S60        17.9902  -33.6744  -42.1415 S.3       10 UNK        -0.2414 
     61 C61        17.3208  -31.9901  -42.3151 C.3       10 UNK         0.0169 
     62 H62        15.6448  -29.7326  -41.4503 H         1 UNK         0.0903 
     63 H63        17.0317  -29.2471  -40.4581 H         1 UNK         0.0903 
     64 H64        15.4015  -28.7179  -40.0340 H         1 UNK         0.0903 
     65 H65        16.6040  -28.7821  -43.3958 H         1 UNK         0.3096 
     66 H66        16.0965  -25.9414  -43.7226 H         1 UNK         0.1121 
     67 H67        16.4289  -26.2850  -46.0733 H         1 UNK         0.0849 
     68 H68        17.3050  -27.7591  -45.8508 H         1 UNK         0.0849 
     69 H69        14.5389  -30.3470  -46.3741 H         1 UNK         0.0865 
     70 H70        15.6321  -29.5067  -47.4400 H         1 UNK         0.0865 
     71 H71        15.4206  -30.8983  -43.9449 H         1 UNK         0.1346 
     72 H72        19.6189  -31.7902  -43.7850 H         1 UNK         0.1412 
     73 H73        17.9648  -29.8842  -47.2426 H         1 UNK         0.1426 
     74 H74        20.2491  -31.3615  -47.1867 H         1 UNK         0.0716 
     75 H75        21.0548  -31.3184  -45.6397 H         1 UNK         0.0716 
     76 H76        22.8075  -29.3886  -45.2718 H         1 UNK         0.0695 
     77 H77        21.4133  -29.0602  -44.2677 H         1 UNK         0.0695 
     78 H78        22.6848  -26.9644  -46.0996 H         1 UNK         0.0983 
     79 H79        20.4933  -26.8259  -44.1231 H         1 UNK         0.3095 
     80 H80        20.0484  -24.2635  -43.3752 H         1 UNK         0.0454 
     81 H81        19.3638  -23.0323  -46.0904 H         1 UNK         0.0851 
     82 H82        20.4951  -22.3780  -44.9147 H         1 UNK         0.0851 
     83 H83        18.7893  -22.4577  -44.5241 H         1 UNK         0.0851 
     84 H84        17.8269  -24.7171  -45.0970 H         1 UNK         0.2976 
     85 H85        23.5804  -25.0980  -44.8008 H         1 UNK         0.3116 
     86 H86        25.1390  -24.1478  -43.5393 H         1 UNK         0.0646 
     87 H87        26.3813  -26.9551  -43.3935 H         1 UNK         0.0847 
     88 H88        27.1723  -25.4732  -42.8648 H         1 UNK         0.0847 
     89 H89        26.7462  -25.6871  -44.5511 H         1 UNK         0.0847 
     90 H90        25.5732  -26.9685  -41.5465 H         1 UNK         0.3040 
     91 H91        23.5513  -26.3424  -39.6087 H         1 UNK         0.1015 
     92 H92        26.4699  -25.8696  -38.7604 H         1 UNK         0.0786 
     93 H93        25.1039  -25.9884  -37.6578 H         1 UNK         0.0786 
     94 H94        25.1883  -24.6621  -38.8043 H         1 UNK         0.0786 
     95 H95        26.7183  -27.9941  -40.0420 H         1 UNK         0.3172 
     96 H96        26.0964  -30.2569  -38.4864 H         1 UNK         0.0595 
     97 H97        28.1342  -31.2321  -39.5535 H         1 UNK         0.0839 
     98 H98        28.4130  -29.5787  -39.0376 H         1 UNK         0.0839 
     99 H99        28.1472  -29.9398  -40.7443 H         1 UNK         0.0839 
    100 H100       25.5005  -29.6625  -41.9440 H         1 UNK         0.2998 
    101 H101       24.7074  -32.4577  -42.4427 H         1 UNK         0.0822 
    102 H102       24.4483  -31.6340  -44.7965 H         1 UNK         0.0787 
    103 H103       24.9081  -30.0189  -44.2795 H         1 UNK         0.0787 
    104 H104       26.0556  -31.3457  -44.1541 H         1 UNK         0.0787 
    105 H105       23.1477  -29.7751  -41.1264 H         1 UNK         0.3055 
    106 H106       20.5444  -30.0813  -42.3900 H         1 UNK         0.1106 
    107 H107       19.8660  -28.3172  -40.8379 H         1 UNK         0.0828 
    108 H108       21.3527  -28.4804  -39.9162 H         1 UNK         0.0828 
    109 H109       21.3962  -27.8777  -41.5746 H         1 UNK         0.0828 
    110 H110       21.1712  -32.5483  -41.6643 H         1 UNK         0.2931 
    111 H111       20.4628  -34.3993  -40.7227 H         1 UNK         0.0412 
    112 H112       22.1305  -32.5973  -38.8892 H         1 UNK         0.3472 
    113 H113       21.8789  -33.3334  -37.3255 H         1 UNK         0.3472 
    114 H114       18.1164  -34.6066  -39.9493 H         1 UNK         0.0970 
    115 H115       17.9620  -32.8772  -39.8408 H         1 UNK         0.0970 
    116 H116       17.8103  -31.3146  -41.6163 H         1 UNK         0.0612 
    117 H117       16.2673  -32.0153  -42.0331 H         1 UNK         0.0612 
@<TRIPOS>BOND
     1    1    2 1    
     2    1   62 1    
     3    1   63 1    
     4    1   64 1    
     5    2    3 2    
     6    2    4 am   BACKBONE|DICT|INTERRES
     7    4    5 1    
     8    4   65 1    
     9    5    6 1    
    10    5   25 1    
    11    5   66 1    
    12    6    7 1    
    13    6   67 1    
    14    6   68 1    
    15    7    8 1    
    16    8    9 1    
    17    8   69 1    
    18    8   70 1    
    19    9   10 ar   
    20    9   14 ar   
    21   10   11 ar   
    22   10   71 1    
    23   11   12 ar   
    24   11   61 1    
    25   12   13 ar   
    26   12   72 1    
    27   13   14 ar   
    28   13   15 1    
    29   14   73 1    
    30   15   16 1    
    31   15   74 1    
    32   15   75 1    
    33   16   17 1    
    34   17   18 1    
    35   17   76 1    
    36   17   77 1    
    37   18   19 1    
    38   18   27 1    
    39   18   78 1    
    40   19   20 am   BACKBONE|DICT|INTERRES
    41   19   79 1    
    42   20   21 2    
    43   20   22 1    
    44   22   23 1    
    45   22   24 1    
    46   22   80 1    
    47   23   81 1    
    48   23   82 1    
    49   23   83 1    
    50   24   25 am   BACKBONE|DICT|INTERRES
    51   24   84 1    
    52   25   26 2    
    53   27   28 2    
    54   27   29 am   BACKBONE|DICT|INTERRES
    55   29   30 1    
    56   29   85 1    
    57   30   31 1    
    58   30   32 1    
    59   30   86 1    
    60   31   87 1    
    61   31   88 1    
    62   31   89 1    
    63   32   33 2    
    64   32   34 am   BACKBONE|DICT|INTERRES
    65   34   35 1    
    66   34   90 1    
    67   35   36 1    
    68   35   37 1    
    69   35   91 1    
    70   36   92 1    
    71   36   93 1    
    72   36   94 1    
    73   37   38 2    
    74   37   39 am   BACKBONE|DICT|INTERRES
    75   39   40 1    
    76   39   95 1    
    77   40   41 1    
    78   40   42 1    
    79   40   96 1    
    80   41   97 1    
    81   41   98 1    
    82   41   99 1    
    83   42   43 2    
    84   42   44 am   BACKBONE|DICT|INTERRES
    85   44   45 1    
    86   44  100 1    
    87   45   46 1    
    88   45   47 1    
    89   45  101 1    
    90   46  102 1    
    91   46  103 1    
    92   46  104 1    
    93   47   48 2    
    94   47   49 am   BACKBONE|DICT|INTERRES
    95   49   50 1    
    96   49  105 1    
    97   50   51 1    
    98   50   52 1    
    99   50  106 1    
   100   51  107 1    
   101   51  108 1    
   102   51  109 1    
   103   52   53 2    
   104   52   54 am   BACKBONE|DICT|INTERRES
   105   54   55 1    
   106   54  110 1    
   107   55   56 1    
   108   55   59 1    
   109   55  111 1    
   110   56   57 am   BACKBONE|DICT|INTERRES
   111   56   58 2    
   112   57  112 1    
   113   57  113 1    
   114   59   60 1    
   115   59  114 1    
   116   59  115 1    
   117   60   61 1    
   118   61  116 1    
   119   61  117 1    
@<TRIPOS>SUBSTRUCTURE
     1 UNK         1 GROUP             0       ****    0 ROOT    
