@<TRIPOS>MOLECULE
3R8
117   119    1
SMALL
USER_CHARGES


@<TRIPOS>ATOM
      1 CA         18.0663  -26.6792  -40.9375 C.3       0 UNK        -0.2013 
      2 C          18.1418  -26.3267  -42.4153 C.2       0 UNK         0.4866 
      3 O          19.1627  -26.5920  -43.0530 O.2       0 UNK        -0.5176 
      4 N          17.0715  -25.7239  -42.9502 N.am      1 UNK        -0.4884 
      5 CA         16.8805  -25.3640  -44.3638 C.3       1 UNK         0.0853 
      6 C6         16.7203  -26.6097  -45.2860 C.3       10 UNK        -0.0849 
      7 S7         15.4514  -27.7810  -44.6864 S.3       10 UNK        -0.2776 
      8 C8         16.0283  -29.3662  -45.3793 C.3       10 UNK         0.0316 
      9 C9         17.4012  -29.7737  -44.8589 C.ar      10 UNK        -0.0863 
     10 C10        17.5612  -30.2000  -43.5364 C.ar      10 UNK        -0.1009 
     11 C11        18.8191  -30.5865  -43.0625 C.ar      10 UNK        -0.0712 
     12 C12        19.9239  -30.5266  -43.9177 C.ar      10 UNK        -0.0894 
     13 C13        19.7772  -30.1053  -45.2427 C.ar      10 UNK        -0.0745 
     14 C14        18.5114  -29.7394  -45.7089 C.ar      10 UNK        -0.0972 
     15 C15        20.9801  -30.0703  -46.1778 C.3       10 UNK         0.0209 
     16 S16        21.3544  -28.3909  -46.7790 S.3       10 UNK        -0.2568 
     17 C17        21.9111  -27.5866  -45.2426 C.3       10 UNK        -0.0983 
     18 CA         22.1032  -26.0563  -45.3980 C.3       3 UNK         0.0876 
     19 N          20.8751  -25.3999  -45.8549 N.am      3 UNK        -0.4424 
     20 C          20.7949  -24.1555  -46.3453 C.2       2 UNK         0.4918 
     21 O          21.7660  -23.4115  -46.4825 O.2       2 UNK        -0.4875 
     22 CA         19.3972  -23.6520  -46.7580 C.3       2 UNK         0.0481 
     23 CB         19.2483  -23.6861  -48.2876 C.3       2 UNK        -0.1831 
     24 N          18.3024  -24.4182  -46.1522 N.am      2 UNK        -0.4498 
     25 C          17.9638  -24.3699  -44.8550 C.2       1 UNK         0.5027 
     26 O          18.4862  -23.5871  -44.0563 O.2       1 UNK        -0.4969 
     27 C          22.6241  -25.4764  -44.0681 C.2       3 UNK         0.5005 
     28 O          23.8165  -25.6074  -43.7889 O.2       3 UNK        -0.5279 
     29 N          21.7170  -24.9059  -43.2559 N.am      4 UNK        -0.4463 
     30 CA         21.8911  -24.5809  -41.8339 C.3       4 UNK         0.0283 
     31 CB         22.9413  -23.4697  -41.6248 C.3       4 UNK        -0.1875 
     32 C          22.1755  -25.8571  -41.0170 C.2       4 UNK         0.4949 
     33 O          23.0836  -25.8844  -40.1849 O.2       4 UNK        -0.5039 
     34 N          21.4148  -26.9150  -41.3332 N.am      5 UNK        -0.4663 
     35 CA         21.4725  -28.3000  -40.8558 C.3       5 UNK         0.0242 
     36 CB         21.2335  -28.3964  -39.3376 C.3       5 UNK        -0.1982 
     37 C          22.7358  -29.0705  -41.2702 C.2       5 UNK         0.5017 
     38 O          22.6239  -30.2376  -41.6450 O.2       5 UNK        -0.5012 
     39 N          23.9095  -28.4301  -41.1681 N.am      6 UNK        -0.4439 
     40 CA         25.2459  -28.9318  -41.5262 C.3       6 UNK         0.0297 
     41 CB         25.3605  -29.0648  -43.0598 C.3       6 UNK        -0.2006 
     42 C          25.6562  -30.2336  -40.8007 C.2       6 UNK         0.4892 
     43 O          26.5214  -30.9574  -41.2952 O.2       6 UNK        -0.5089 
     44 N          25.0003  -30.5205  -39.6643 N.am      7 UNK        -0.4243 
     45 CA         25.0345  -31.7655  -38.8846 C.3       7 UNK         0.0196 
     46 CB         26.4370  -32.0067  -38.2869 C.3       7 UNK        -0.2007 
     47 C          24.5009  -33.0048  -39.6390 C.2       7 UNK         0.5020 
     48 O          24.6736  -34.1215  -39.1494 O.2       7 UNK        -0.5147 
     49 N          23.8441  -32.8126  -40.7935 N.am      8 UNK        -0.4734 
     50 CA         23.3339  -33.8927  -41.6443 C.3       8 UNK         0.0238 
     51 CB         23.0791  -33.3499  -43.0593 C.3       8 UNK        -0.1912 
     52 C          22.0646  -34.5484  -41.0794 C.2       8 UNK         0.5038 
     53 O          21.8656  -35.7471  -41.2798 O.2       8 UNK        -0.5046 
     54 N          21.2483  -33.7556  -40.3750 N.am      9 UNK        -0.4200 
     55 CA         20.0372  -34.2037  -39.6687 C.3       9 UNK         0.0839 
     56 C          20.3100  -34.6922  -38.2150 C.2       9 UNK         0.5513 
     57 N          21.5508  -34.7391  -37.7426 N.am      9 UNK        -0.7519 
     58 O          19.3766  -35.0499  -37.5012 O.2       9 UNK        -0.4960 
     59 C59        18.9129  -33.1339  -39.7200 C.3       10 UNK        -0.0876 
     60 S60        18.3824  -32.7717  -41.4297 S.3       10 UNK        -0.2414 
     61 C61        18.9848  -31.0700  -41.6294 C.3       10 UNK         0.0169 
     62 H62        18.2613  -27.7424  -40.7988 H         1 UNK         0.0903 
     63 H63        17.0858  -26.4591  -40.5150 H         1 UNK         0.0903 
     64 H64        18.8111  -26.1158  -40.3760 H         1 UNK         0.0903 
     65 H65        16.2869  -25.5076  -42.3518 H         1 UNK         0.3096 
     66 H66        15.9436  -24.8062  -44.4039 H         1 UNK         0.1121 
     67 H67        17.6769  -27.1253  -45.3743 H         1 UNK         0.0849 
     68 H68        16.4279  -26.3170  -46.2956 H         1 UNK         0.0849 
     69 H69        15.3062  -30.1440  -45.1272 H         1 UNK         0.0865 
     70 H70        16.0305  -29.2980  -46.4683 H         1 UNK         0.0865 
     71 H71        16.7046  -30.2372  -42.8773 H         1 UNK         0.1346 
     72 H72        20.8989  -30.8149  -43.5528 H         1 UNK         0.1412 
     73 H73        18.3968  -29.4174  -46.7351 H         1 UNK         0.1426 
     74 H74        21.8669  -30.4795  -45.6907 H         1 UNK         0.0716 
     75 H75        20.7776  -30.7130  -47.0355 H         1 UNK         0.0716 
     76 H76        22.8442  -28.0635  -44.9359 H         1 UNK         0.0695 
     77 H77        21.1853  -27.8002  -44.4553 H         1 UNK         0.0695 
     78 H78        22.8765  -25.8812  -46.1493 H         1 UNK         0.0983 
     79 H79        20.0326  -25.9505  -45.7845 H         1 UNK         0.3095 
     80 H80        19.3117  -22.6135  -46.4313 H         1 UNK         0.0454 
     81 H81        18.2911  -23.2714  -48.6039 H         1 UNK         0.0851 
     82 H82        19.3227  -24.7014  -48.6794 H         1 UNK         0.0851 
     83 H83        20.0287  -23.0947  -48.7686 H         1 UNK         0.0851 
     84 H84        17.8181  -25.0640  -46.7590 H         1 UNK         0.2976 
     85 H85        20.7604  -24.8761  -43.5885 H         1 UNK         0.3116 
     86 H86        20.9301  -24.1987  -41.4864 H         1 UNK         0.0646 
     87 H87        22.7133  -22.5904  -42.2269 H         1 UNK         0.0847 
     88 H88        22.9662  -23.1519  -40.5819 H         1 UNK         0.0847 
     89 H89        23.9470  -23.8020  -41.8827 H         1 UNK         0.0847 
     90 H90        20.7103  -26.7641  -42.0546 H         1 UNK         0.3040 
     91 H91        20.6382  -28.7924  -41.3541 H         1 UNK         0.1015 
     92 H92        20.2934  -27.9238  -39.0538 H         1 UNK         0.0786 
     93 H93        22.0314  -27.9213  -38.7661 H         1 UNK         0.0786 
     94 H94        21.1805  -29.4379  -39.0177 H         1 UNK         0.0786 
     95 H95        23.8687  -27.4765  -40.8123 H         1 UNK         0.3172 
     96 H96        25.9543  -28.1679  -41.2034 H         1 UNK         0.0595 
     97 H97        25.0951  -28.1326  -43.5585 H         1 UNK         0.0839 
     98 H98        24.7095  -29.8496  -43.4470 H         1 UNK         0.0839 
     99 H99        26.3800  -29.3096  -43.3603 H         1 UNK         0.0839 
    100 H100       24.3175  -29.8418  -39.3582 H         1 UNK         0.2998 
    101 H101       24.3472  -31.6123  -38.0513 H         1 UNK         0.0822 
    102 H102       26.7945  -31.1305  -37.7462 H         1 UNK         0.0787 
    103 H103       26.4245  -32.8375  -37.5802 H         1 UNK         0.0787 
    104 H104       27.1703  -32.2494  -39.0563 H         1 UNK         0.0787 
    105 H105       23.6847  -31.8636  -41.1190 H         1 UNK         0.3055 
    106 H106       24.1013  -34.6677  -41.7106 H         1 UNK         0.1106 
    107 H107       23.9820  -32.9130  -43.4863 H         1 UNK         0.0828 
    108 H108       22.7536  -34.1460  -43.7302 H         1 UNK         0.0828 
    109 H109       22.3031  -32.5853  -43.0620 H         1 UNK         0.0828 
    110 H110       21.5077  -32.7879  -40.2577 H         1 UNK         0.2931 
    111 H111       19.6509  -35.0831  -40.1876 H         1 UNK         0.0412 
    112 H112       22.3369  -34.4924  -38.3250 H         1 UNK         0.3472 
    113 H113       21.7055  -35.0648  -36.8012 H         1 UNK         0.3472 
    114 H114       18.0296  -33.4813  -39.1807 H         1 UNK         0.0970 
    115 H115       19.2284  -32.2179  -39.2174 H         1 UNK         0.0970 
    116 H116       20.0342  -31.0401  -41.3361 H         1 UNK         0.0612 
    117 H117       18.4467  -30.4083  -40.9493 H         1 UNK         0.0612 
@<TRIPOS>BOND
     1    1    2 1    
     2    1   62 1    
     3    1   63 1    
     4    1   64 1    
     5    2    3 2    
     6    2    4 am   BACKBONE|DICT|INTERRES
     7    4    5 1    
     8    4   65 1    
     9    5    6 1    
    10    5   25 1    
    11    5   66 1    
    12    6    7 1    
    13    6   67 1    
    14    6   68 1    
    15    7    8 1    
    16    8    9 1    
    17    8   69 1    
    18    8   70 1    
    19    9   10 ar   
    20    9   14 ar   
    21   10   11 ar   
    22   10   71 1    
    23   11   12 ar   
    24   11   61 1    
    25   12   13 ar   
    26   12   72 1    
    27   13   14 ar   
    28   13   15 1    
    29   14   73 1    
    30   15   16 1    
    31   15   74 1    
    32   15   75 1    
    33   16   17 1    
    34   17   18 1    
    35   17   76 1    
    36   17   77 1    
    37   18   19 1    
    38   18   27 1    
    39   18   78 1    
    40   19   20 am   BACKBONE|DICT|INTERRES
    41   19   79 1    
    42   20   21 2    
    43   20   22 1    
    44   22   23 1    
    45   22   24 1    
    46   22   80 1    
    47   23   81 1    
    48   23   82 1    
    49   23   83 1    
    50   24   25 am   BACKBONE|DICT|INTERRES
    51   24   84 1    
    52   25   26 2    
    53   27   28 2    
    54   27   29 am   BACKBONE|DICT|INTERRES
    55   29   30 1    
    56   29   85 1    
    57   30   31 1    
    58   30   32 1    
    59   30   86 1    
    60   31   87 1    
    61   31   88 1    
    62   31   89 1    
    63   32   33 2    
    64   32   34 am   BACKBONE|DICT|INTERRES
    65   34   35 1    
    66   34   90 1    
    67   35   36 1    
    68   35   37 1    
    69   35   91 1    
    70   36   92 1    
    71   36   93 1    
    72   36   94 1    
    73   37   38 2    
    74   37   39 am   BACKBONE|DICT|INTERRES
    75   39   40 1    
    76   39   95 1    
    77   40   41 1    
    78   40   42 1    
    79   40   96 1    
    80   41   97 1    
    81   41   98 1    
    82   41   99 1    
    83   42   43 2    
    84   42   44 am   BACKBONE|DICT|INTERRES
    85   44   45 1    
    86   44  100 1    
    87   45   46 1    
    88   45   47 1    
    89   45  101 1    
    90   46  102 1    
    91   46  103 1    
    92   46  104 1    
    93   47   48 2    
    94   47   49 am   BACKBONE|DICT|INTERRES
    95   49   50 1    
    96   49  105 1    
    97   50   51 1    
    98   50   52 1    
    99   50  106 1    
   100   51  107 1    
   101   51  108 1    
   102   51  109 1    
   103   52   53 2    
   104   52   54 am   BACKBONE|DICT|INTERRES
   105   54   55 1    
   106   54  110 1    
   107   55   56 1    
   108   55   59 1    
   109   55  111 1    
   110   56   57 am   BACKBONE|DICT|INTERRES
   111   56   58 2    
   112   57  112 1    
   113   57  113 1    
   114   59   60 1    
   115   59  114 1    
   116   59  115 1    
   117   60   61 1    
   118   61  116 1    
   119   61  117 1    
@<TRIPOS>SUBSTRUCTURE
     1 UNK         1 GROUP             0       ****    0 ROOT    
