@<TRIPOS>MOLECULE
3R8
117   119    1
SMALL
USER_CHARGES


@<TRIPOS>ATOM
      1 CA         15.6756  -22.0024  -43.6874 C.3       0 UNK        -0.2013 
      2 C          15.9503  -23.1483  -44.6497 C.2       0 UNK         0.4866 
      3 O          15.7203  -23.0080  -45.8508 O.2       0 UNK        -0.5176 
      4 N          16.4502  -24.2796  -44.1331 N.am      1 UNK        -0.4884 
      5 CA         16.7588  -25.4936  -44.9066 C.3       1 UNK         0.0853 
      6 C6         16.6198  -26.7701  -44.0282 C.3       10 UNK        -0.0849 
      7 S7         15.7824  -28.1286  -44.9119 S.3       10 UNK        -0.2776 
      8 C8         15.9664  -29.5067  -43.7276 C.3       10 UNK         0.0316 
      9 C9         17.4226  -29.8743  -43.4648 C.ar      10 UNK        -0.0863 
     10 C10        17.9009  -29.9697  -42.1544 C.ar      10 UNK        -0.1009 
     11 C11        19.2407  -30.2857  -41.9095 C.ar      10 UNK        -0.0712 
     12 C12        20.1084  -30.4992  -42.9855 C.ar      10 UNK        -0.0894 
     13 C13        19.6422  -30.4055  -44.2996 C.ar      10 UNK        -0.0745 
     14 C14        18.2955  -30.1136  -44.5299 C.ar      10 UNK        -0.0972 
     15 C15        20.5762  -30.6185  -45.4808 C.3       10 UNK         0.0209 
     16 S16        20.7903  -29.0922  -46.4551 S.3       10 UNK        -0.2568 
     17 C17        22.3356  -28.3700  -45.7984 C.3       10 UNK        -0.0983 
     18 CA         22.1736  -27.0950  -44.9263 C.3       3 UNK         0.0876 
     19 N          21.2409  -26.1274  -45.5195 N.am      3 UNK        -0.4424 
     20 C          21.3441  -24.7966  -45.4393 C.2       2 UNK         0.4918 
     21 O          22.2826  -24.2182  -44.8925 O.2       2 UNK        -0.4875 
     22 CA         20.1824  -23.9679  -46.0120 C.3       2 UNK         0.0481 
     23 CB         20.1778  -23.9848  -47.5535 C.3       2 UNK        -0.1831 
     24 N          18.8694  -24.3165  -45.4462 N.am      2 UNK        -0.4498 
     25 C          18.1279  -25.4220  -45.6302 C.2       1 UNK         0.5027 
     26 O          18.4932  -26.3677  -46.3278 O.2       1 UNK        -0.4969 
     27 C          21.8569  -27.3980  -43.4421 C.2       3 UNK         0.5005 
     28 O          22.5174  -28.2486  -42.8441 O.2       3 UNK        -0.5279 
     29 N          20.8906  -26.6634  -42.8661 N.am      4 UNK        -0.4463 
     30 CA         20.3289  -26.7826  -41.5152 C.3       4 UNK         0.0283 
     31 CB         19.3265  -25.6366  -41.2982 C.3       4 UNK        -0.1875 
     32 C          21.3335  -26.8161  -40.3479 C.2       4 UNK         0.4949 
     33 O          20.9880  -27.3158  -39.2774 O.2       4 UNK        -0.5039 
     34 N          22.5359  -26.2650  -40.5525 N.am      5 UNK        -0.4663 
     35 CA         23.5979  -26.1879  -39.5496 C.3       5 UNK         0.0242 
     36 CB         24.6825  -25.2169  -40.0442 C.3       5 UNK        -0.1982 
     37 C          24.2250  -27.5452  -39.1817 C.2       5 UNK         0.5017 
     38 O          24.7022  -27.6821  -38.0544 O.2       5 UNK        -0.5012 
     39 N          24.2420  -28.5050  -40.1174 N.am      6 UNK        -0.4439 
     40 CA         24.8856  -29.8111  -39.9606 C.3       6 UNK         0.0297 
     41 CB         26.4264  -29.6652  -39.8800 C.3       6 UNK        -0.2006 
     42 C          24.4052  -30.7355  -41.0882 C.2       6 UNK         0.4892 
     43 O          23.2032  -30.9864  -41.1773 O.2       6 UNK        -0.5089 
     44 N          25.3395  -31.2273  -41.9184 N.am      7 UNK        -0.4243 
     45 CA         25.1308  -32.0872  -43.0883 C.3       7 UNK         0.0196 
     46 CB         24.4955  -31.2671  -44.2313 C.3       7 UNK        -0.2007 
     47 C          24.3501  -33.3624  -42.7218 C.2       7 UNK         0.5020 
     48 O          24.8698  -34.1880  -41.9698 O.2       7 UNK        -0.5147 
     49 N          23.1101  -33.4814  -43.2150 N.am      8 UNK        -0.4734 
     50 CA         22.1725  -34.5687  -42.9187 C.3       8 UNK         0.0238 
     51 CB         20.9034  -34.3787  -43.7664 C.3       8 UNK        -0.1912 
     52 C          21.8042  -34.6966  -41.4282 C.2       8 UNK         0.5038 
     53 O          21.4487  -35.7948  -40.9978 O.2       8 UNK        -0.5046 
     54 N          21.9058  -33.5940  -40.6752 N.am      9 UNK        -0.4200 
     55 CA         21.6918  -33.5472  -39.2220 C.3       9 UNK         0.0839 
     56 C          22.9887  -33.8013  -38.3994 C.2       9 UNK         0.5513 
     57 N          24.1436  -34.0394  -39.0124 N.am      9 UNK        -0.7519 
     58 O          22.9451  -33.7942  -37.1720 O.2       9 UNK        -0.4960 
     59 C59        20.9861  -32.2375  -38.7807 C.3       10 UNK        -0.0876 
     60 S60        19.4311  -31.9393  -39.6960 S.3       10 UNK        -0.2414 
     61 C61        19.7665  -30.3348  -40.4840 C.3       10 UNK         0.0169 
     62 H62        15.9330  -22.2598  -42.6601 H         1 UNK         0.0903 
     63 H63        16.2554  -21.1249  -43.9726 H         1 UNK         0.0903 
     64 H64        14.6194  -21.7357  -43.7149 H         1 UNK         0.0903 
     65 H65        16.6146  -24.3349  -43.1374 H         1 UNK         0.3096 
     66 H66        16.0172  -25.5522  -45.7072 H         1 UNK         0.1121 
     67 H67        17.5885  -27.1162  -43.6622 H         1 UNK         0.0849 
     68 H68        16.0236  -26.5665  -43.1370 H         1 UNK         0.0849 
     69 H69        15.4578  -29.2420  -42.7991 H         1 UNK         0.0865 
     70 H70        15.4499  -30.3826  -44.1224 H         1 UNK         0.0865 
     71 H71        17.2364  -29.7883  -41.3207 H         1 UNK         0.1346 
     72 H72        21.1513  -30.7135  -42.7961 H         1 UNK         0.1412 
     73 H73        17.9339  -30.0385  -45.5466 H         1 UNK         0.1426 
     74 H74        21.5423  -31.0062  -45.1605 H         1 UNK         0.0716 
     75 H75        20.1463  -31.3835  -46.1287 H         1 UNK         0.0716 
     76 H76        22.9188  -29.1309  -45.2838 H         1 UNK         0.0695 
     77 H77        22.9364  -28.1088  -46.6706 H         1 UNK         0.0695 
     78 H78        23.1605  -26.6276  -44.8961 H         1 UNK         0.0983 
     79 H79        20.4120  -26.5190  -45.9612 H         1 UNK         0.3095 
     80 H80        20.3585  -22.9348  -45.7079 H         1 UNK         0.0454 
     81 H81        20.0329  -24.9869  -47.9576 H         1 UNK         0.0851 
     82 H82        19.3904  -23.3462  -47.9534 H         1 UNK         0.0851 
     83 H83        21.1252  -23.6147  -47.9472 H         1 UNK         0.0851 
     84 H84        18.4687  -23.6127  -44.8416 H         1 UNK         0.2976 
     85 H85        20.4547  -25.9738  -43.4582 H         1 UNK         0.3116 
     86 H86        19.7736  -27.7164  -41.4887 H         1 UNK         0.0646 
     87 H87        19.8136  -24.6619  -41.3454 H         1 UNK         0.0847 
     88 H88        18.8504  -25.7140  -40.3196 H         1 UNK         0.0847 
     89 H89        18.5305  -25.6505  -42.0401 H         1 UNK         0.0847 
     90 H90        22.7361  -25.8870  -41.4668 H         1 UNK         0.3040 
     91 H91        23.1641  -25.7765  -38.6352 H         1 UNK         0.1015 
     92 H92        24.2751  -24.2209  -40.2188 H         1 UNK         0.0786 
     93 H93        25.1405  -25.5617  -40.9722 H         1 UNK         0.0786 
     94 H94        25.4798  -25.1136  -39.3066 H         1 UNK         0.0786 
     95 H95        23.7462  -28.3578  -40.9929 H         1 UNK         0.3172 
     96 H96        24.5326  -30.2567  -39.0283 H         1 UNK         0.0595 
     97 H97        26.9141  -30.6363  -39.7840 H         1 UNK         0.0839 
     98 H98        26.7292  -29.0877  -39.0069 H         1 UNK         0.0839 
     99 H99        26.8354  -29.1639  -40.7583 H         1 UNK         0.0839 
    100 H100       26.3017  -30.9887  -41.7251 H         1 UNK         0.2998 
    101 H101       26.1161  -32.4169  -43.4214 H         1 UNK         0.0822 
    102 H102       25.1408  -30.4372  -44.5197 H         1 UNK         0.0787 
    103 H103       24.3382  -31.8737  -45.1243 H         1 UNK         0.0787 
    104 H104       23.5377  -30.8435  -43.9314 H         1 UNK         0.0787 
    105 H105       22.7675  -32.7371  -43.8031 H         1 UNK         0.3055 
    106 H106       22.6505  -35.5056  -43.2132 H         1 UNK         0.1106 
    107 H107       20.2013  -35.1979  -43.6048 H         1 UNK         0.0828 
    108 H108       20.3838  -33.4533  -43.5142 H         1 UNK         0.0828 
    109 H109       21.1330  -34.3578  -44.8318 H         1 UNK         0.0828 
    110 H110       22.2434  -32.7327  -41.0934 H         1 UNK         0.2931 
    111 H111       21.0189  -34.3630  -38.9522 H         1 UNK         0.0412 
    112 H112       24.9661  -34.2098  -38.4560 H         1 UNK         0.3472 
    113 H113       24.2057  -34.0754  -40.0232 H         1 UNK         0.3472 
    114 H114       21.6635  -31.3890  -38.8869 H         1 UNK         0.0970 
    115 H115       20.7364  -32.2838  -37.7193 H         1 UNK         0.0970 
    116 H116       20.8334  -30.1123  -40.4872 H         1 UNK         0.0612 
    117 H117       19.3003  -29.5505  -39.8862 H         1 UNK         0.0612 
@<TRIPOS>BOND
     1    1    2 1    
     2    1   62 1    
     3    1   63 1    
     4    1   64 1    
     5    2    3 2    
     6    2    4 am   BACKBONE|DICT|INTERRES
     7    4    5 1    
     8    4   65 1    
     9    5    6 1    
    10    5   25 1    
    11    5   66 1    
    12    6    7 1    
    13    6   67 1    
    14    6   68 1    
    15    7    8 1    
    16    8    9 1    
    17    8   69 1    
    18    8   70 1    
    19    9   10 ar   
    20    9   14 ar   
    21   10   11 ar   
    22   10   71 1    
    23   11   12 ar   
    24   11   61 1    
    25   12   13 ar   
    26   12   72 1    
    27   13   14 ar   
    28   13   15 1    
    29   14   73 1    
    30   15   16 1    
    31   15   74 1    
    32   15   75 1    
    33   16   17 1    
    34   17   18 1    
    35   17   76 1    
    36   17   77 1    
    37   18   19 1    
    38   18   27 1    
    39   18   78 1    
    40   19   20 am   BACKBONE|DICT|INTERRES
    41   19   79 1    
    42   20   21 2    
    43   20   22 1    
    44   22   23 1    
    45   22   24 1    
    46   22   80 1    
    47   23   81 1    
    48   23   82 1    
    49   23   83 1    
    50   24   25 am   BACKBONE|DICT|INTERRES
    51   24   84 1    
    52   25   26 2    
    53   27   28 2    
    54   27   29 am   BACKBONE|DICT|INTERRES
    55   29   30 1    
    56   29   85 1    
    57   30   31 1    
    58   30   32 1    
    59   30   86 1    
    60   31   87 1    
    61   31   88 1    
    62   31   89 1    
    63   32   33 2    
    64   32   34 am   BACKBONE|DICT|INTERRES
    65   34   35 1    
    66   34   90 1    
    67   35   36 1    
    68   35   37 1    
    69   35   91 1    
    70   36   92 1    
    71   36   93 1    
    72   36   94 1    
    73   37   38 2    
    74   37   39 am   BACKBONE|DICT|INTERRES
    75   39   40 1    
    76   39   95 1    
    77   40   41 1    
    78   40   42 1    
    79   40   96 1    
    80   41   97 1    
    81   41   98 1    
    82   41   99 1    
    83   42   43 2    
    84   42   44 am   BACKBONE|DICT|INTERRES
    85   44   45 1    
    86   44  100 1    
    87   45   46 1    
    88   45   47 1    
    89   45  101 1    
    90   46  102 1    
    91   46  103 1    
    92   46  104 1    
    93   47   48 2    
    94   47   49 am   BACKBONE|DICT|INTERRES
    95   49   50 1    
    96   49  105 1    
    97   50   51 1    
    98   50   52 1    
    99   50  106 1    
   100   51  107 1    
   101   51  108 1    
   102   51  109 1    
   103   52   53 2    
   104   52   54 am   BACKBONE|DICT|INTERRES
   105   54   55 1    
   106   54  110 1    
   107   55   56 1    
   108   55   59 1    
   109   55  111 1    
   110   56   57 am   BACKBONE|DICT|INTERRES
   111   56   58 2    
   112   57  112 1    
   113   57  113 1    
   114   59   60 1    
   115   59  114 1    
   116   59  115 1    
   117   60   61 1    
   118   61  116 1    
   119   61  117 1    
@<TRIPOS>SUBSTRUCTURE
     1 UNK         1 GROUP             0       ****    0 ROOT    
