@<TRIPOS>MOLECULE
3R8
117   119    1
SMALL
USER_CHARGES


@<TRIPOS>ATOM
      1 CA         17.8462  -30.0751  -47.3638 C.3       0 UNK        -0.2013 
      2 C          18.4475  -28.7148  -47.7092 C.2       0 UNK         0.4866 
      3 O          19.0064  -28.5671  -48.7942 O.2       0 UNK        -0.5176 
      4 N          18.3678  -27.6882  -46.8515 N.am      1 UNK        -0.4884 
      5 CA         17.7184  -27.6405  -45.5318 C.3       1 UNK         0.0853 
      6 C6         16.3331  -26.9358  -45.5992 C.3       10 UNK        -0.0849 
      7 S7         15.0883  -27.9196  -46.5029 S.3       10 UNK        -0.2776 
      8 C8         14.2010  -28.7572  -45.1473 C.3       10 UNK         0.0316 
      9 C9         15.1329  -29.5977  -44.2844 C.ar      10 UNK        -0.0863 
     10 C10        15.5241  -30.8762  -44.6946 C.ar      10 UNK        -0.1009 
     11 C11        16.3897  -31.6442  -43.9083 C.ar      10 UNK        -0.0712 
     12 C12        16.8446  -31.1201  -42.6922 C.ar      10 UNK        -0.0894 
     13 C13        16.5007  -29.8243  -42.2898 C.ar      10 UNK        -0.0745 
     14 C14        15.6213  -29.0826  -43.0806 C.ar      10 UNK        -0.0972 
     15 C15        17.0646  -29.1964  -41.0166 C.3       10 UNK         0.0209 
     16 S16        18.7706  -29.7279  -40.6467 S.3       10 UNK        -0.2568 
     17 C17        19.4735  -28.2841  -39.7890 C.3       10 UNK        -0.0983 
     18 CA         20.7557  -27.7954  -40.5024 C.3       3 UNK         0.0876 
     19 N          20.4843  -27.2555  -41.8404 N.am      3 UNK        -0.4424 
     20 C          21.4337  -26.9889  -42.7439 C.2       2 UNK         0.4918 
     21 O          22.6131  -27.3039  -42.5829 O.2       2 UNK        -0.4875 
     22 CA         21.0036  -26.2473  -44.0261 C.3       2 UNK         0.0481 
     23 CB         22.1912  -25.9677  -44.9670 C.3       2 UNK        -0.1831 
     24 N          19.9657  -26.9467  -44.7879 N.am      2 UNK        -0.4498 
     25 C          18.6571  -26.9785  -44.4964 C.2       1 UNK         0.5027 
     26 O          18.1917  -26.4977  -43.4614 O.2       1 UNK        -0.4969 
     27 C          21.5099  -26.7615  -39.6413 C.2       3 UNK         0.5005 
     28 O          21.3255  -25.5553  -39.8255 O.2       3 UNK        -0.5279 
     29 N          22.3734  -27.2556  -38.7427 N.am      4 UNK        -0.4463 
     30 CA         23.3114  -26.5290  -37.8714 C.3       4 UNK         0.0283 
     31 CB         22.6010  -25.5000  -36.9699 C.3       4 UNK        -0.1875 
     32 C          24.4968  -25.8976  -38.6253 C.2       4 UNK         0.4949 
     33 O          25.6199  -25.9538  -38.1245 O.2       4 UNK        -0.5039 
     34 N          24.2467  -25.3439  -39.8193 N.am      5 UNK        -0.4663 
     35 CA         25.2689  -24.8902  -40.7666 C.3       5 UNK         0.0242 
     36 CB         24.6010  -24.0723  -41.8826 C.3       5 UNK        -0.1982 
     37 C          26.0754  -26.0642  -41.3512 C.2       5 UNK         0.5017 
     38 O          27.2916  -25.9477  -41.5063 O.2       5 UNK        -0.5012 
     39 N          25.3852  -27.1765  -41.6240 N.am      6 UNK        -0.4439 
     40 CA         25.9422  -28.4811  -41.9615 C.3       6 UNK         0.0297 
     41 CB         25.5920  -28.8156  -43.4215 C.3       6 UNK        -0.2006 
     42 C          25.3533  -29.5253  -41.0013 C.2       6 UNK         0.4892 
     43 O          24.3659  -29.2505  -40.3090 O.2       6 UNK        -0.5089 
     44 N          25.9655  -30.7163  -40.9841 N.am      7 UNK        -0.4243 
     45 CA         25.6020  -31.8614  -40.1419 C.3       7 UNK         0.0196 
     46 CB         26.7999  -32.8284  -40.0793 C.3       7 UNK        -0.2007 
     47 C          24.3019  -32.5545  -40.6033 C.2       7 UNK         0.5020 
     48 O          24.3324  -33.7219  -40.9957 O.2       7 UNK        -0.5147 
     49 N          23.1969  -31.8022  -40.5254 N.am      8 UNK        -0.4734 
     50 CA         21.8174  -32.1016  -40.9249 C.3       8 UNK         0.0238 
     51 CB         21.2918  -33.4063  -40.2944 C.3       8 UNK        -0.1912 
     52 C          21.6198  -32.0962  -42.4505 C.2       8 UNK         0.5038 
     53 O          22.4061  -32.6950  -43.1862 O.2       8 UNK        -0.5046 
     54 N          20.5419  -31.4322  -42.8869 N.am      9 UNK        -0.4200 
     55 CA         20.0804  -31.3348  -44.2828 C.3       9 UNK         0.0839 
     56 C          21.0591  -30.5941  -45.2453 C.2       9 UNK         0.5513 
     57 N          21.9821  -29.7778  -44.7540 N.am      9 UNK        -0.7519 
     58 O          20.9668  -30.7373  -46.4604 O.2       9 UNK        -0.4960 
     59 C59        19.5892  -32.6940  -44.8688 C.3       10 UNK        -0.0876 
     60 S60        18.4284  -33.6133  -43.7964 S.3       10 UNK        -0.2414 
     61 C61        16.7911  -33.0426  -44.3807 C.3       10 UNK         0.0169 
     62 H62        18.0776  -30.3827  -46.3479 H         1 UNK         0.0903 
     63 H63        16.7653  -30.0627  -47.4909 H         1 UNK         0.0903 
     64 H64        18.2481  -30.8410  -48.0268 H         1 UNK         0.0903 
     65 H65        18.7679  -26.8070  -47.1448 H         1 UNK         0.3096 
     66 H66        17.5719  -28.6461  -45.1427 H         1 UNK         0.1121 
     67 H67        16.4281  -25.9674  -46.0933 H         1 UNK         0.0849 
     68 H68        15.9370  -26.7156  -44.6073 H         1 UNK         0.0849 
     69 H69        13.6830  -28.0125  -44.5407 H         1 UNK         0.0865 
     70 H70        13.4232  -29.3931  -45.5726 H         1 UNK         0.0865 
     71 H71        15.1543  -31.2714  -45.6311 H         1 UNK         0.1346 
     72 H72        17.4893  -31.7163  -42.0635 H         1 UNK         0.1412 
     73 H73        15.3333  -28.0883  -42.7671 H         1 UNK         0.1426 
     74 H74        16.4199  -29.4464  -40.1733 H         1 UNK         0.0716 
     75 H75        17.0471  -28.1101  -41.1164 H         1 UNK         0.0716 
     76 H76        19.6919  -28.5936  -38.7650 H         1 UNK         0.0695 
     77 H77        18.7397  -27.4798  -39.7140 H         1 UNK         0.0695 
     78 H78        21.4223  -28.6516  -40.6312 H         1 UNK         0.0983 
     79 H79        19.5343  -26.9652  -42.0445 H         1 UNK         0.3095 
     80 H80        20.6043  -25.2814  -43.7099 H         1 UNK         0.0454 
     81 H81        21.8822  -25.3875  -45.8365 H         1 UNK         0.0851 
     82 H82        22.6505  -26.8898  -45.3241 H         1 UNK         0.0851 
     83 H83        22.9688  -25.3947  -44.4624 H         1 UNK         0.0851 
     84 H84        20.2727  -27.4219  -45.6249 H         1 UNK         0.2976 
     85 H85        22.4952  -28.2598  -38.7229 H         1 UNK         0.3116 
     86 H86        23.7368  -27.2904  -37.2153 H         1 UNK         0.0646 
     87 H87        22.1960  -24.6628  -37.5387 H         1 UNK         0.0847 
     88 H88        21.7824  -25.9565  -36.4137 H         1 UNK         0.0847 
     89 H89        23.2960  -25.0830  -36.2400 H         1 UNK         0.0847 
     90 H90        23.2773  -25.3066  -40.1193 H         1 UNK         0.3040 
     91 H91        25.9672  -24.2418  -40.2327 H         1 UNK         0.1015 
     92 H92        25.3349  -23.7401  -42.6183 H         1 UNK         0.0786 
     93 H93        24.1152  -23.1817  -41.4836 H         1 UNK         0.0786 
     94 H94        23.8471  -24.6560  -42.4103 H         1 UNK         0.0786 
     95 H95        24.3808  -27.1793  -41.4769 H         1 UNK         0.3172 
     96 H96        27.0272  -28.4766  -41.8387 H         1 UNK         0.0595 
     97 H97        24.5151  -28.8972  -43.5691 H         1 UNK         0.0839 
     98 H98        26.0349  -29.7635  -43.7289 H         1 UNK         0.0839 
     99 H99        25.9632  -28.0494  -44.1021 H         1 UNK         0.0839 
    100 H100       26.7438  -30.8608  -41.6112 H         1 UNK         0.2998 
    101 H101       25.4248  -31.4951  -39.1281 H         1 UNK         0.0822 
    102 H102       26.5820  -33.6789  -39.4317 H         1 UNK         0.0787 
    103 H103       27.0522  -33.2242  -41.0640 H         1 UNK         0.0787 
    104 H104       27.6863  -32.3376  -39.6769 H         1 UNK         0.0787 
    105 H105       23.3653  -30.8342  -40.2593 H         1 UNK         0.3055 
    106 H106       21.2279  -31.2862  -40.5062 H         1 UNK         0.1106 
    107 H107       21.4289  -33.4108  -39.2132 H         1 UNK         0.0828 
    108 H108       20.2247  -33.5249  -40.4877 H         1 UNK         0.0828 
    109 H109       21.7892  -34.2868  -40.7020 H         1 UNK         0.0828 
    110 H110       19.9532  -30.9634  -42.2108 H         1 UNK         0.2931 
    111 H111       19.2116  -30.6790  -44.2357 H         1 UNK         0.0412 
    112 H112       22.6156  -29.3241  -45.3914 H         1 UNK         0.3472 
    113 H113       22.0831  -29.6452  -43.7610 H         1 UNK         0.3472 
    114 H114       20.4455  -33.3445  -45.0543 H         1 UNK         0.0970 
    115 H115       19.1190  -32.5466  -45.8421 H         1 UNK         0.0970 
    116 H116       16.7684  -33.0968  -45.4702 H         1 UNK         0.0612 
    117 H117       16.0393  -33.7466  -44.0222 H         1 UNK         0.0612 
@<TRIPOS>BOND
     1    1    2 1    
     2    1   62 1    
     3    1   63 1    
     4    1   64 1    
     5    2    3 2    
     6    2    4 am   BACKBONE|DICT|INTERRES
     7    4    5 1    
     8    4   65 1    
     9    5    6 1    
    10    5   25 1    
    11    5   66 1    
    12    6    7 1    
    13    6   67 1    
    14    6   68 1    
    15    7    8 1    
    16    8    9 1    
    17    8   69 1    
    18    8   70 1    
    19    9   10 ar   
    20    9   14 ar   
    21   10   11 ar   
    22   10   71 1    
    23   11   12 ar   
    24   11   61 1    
    25   12   13 ar   
    26   12   72 1    
    27   13   14 ar   
    28   13   15 1    
    29   14   73 1    
    30   15   16 1    
    31   15   74 1    
    32   15   75 1    
    33   16   17 1    
    34   17   18 1    
    35   17   76 1    
    36   17   77 1    
    37   18   19 1    
    38   18   27 1    
    39   18   78 1    
    40   19   20 am   BACKBONE|DICT|INTERRES
    41   19   79 1    
    42   20   21 2    
    43   20   22 1    
    44   22   23 1    
    45   22   24 1    
    46   22   80 1    
    47   23   81 1    
    48   23   82 1    
    49   23   83 1    
    50   24   25 am   BACKBONE|DICT|INTERRES
    51   24   84 1    
    52   25   26 2    
    53   27   28 2    
    54   27   29 am   BACKBONE|DICT|INTERRES
    55   29   30 1    
    56   29   85 1    
    57   30   31 1    
    58   30   32 1    
    59   30   86 1    
    60   31   87 1    
    61   31   88 1    
    62   31   89 1    
    63   32   33 2    
    64   32   34 am   BACKBONE|DICT|INTERRES
    65   34   35 1    
    66   34   90 1    
    67   35   36 1    
    68   35   37 1    
    69   35   91 1    
    70   36   92 1    
    71   36   93 1    
    72   36   94 1    
    73   37   38 2    
    74   37   39 am   BACKBONE|DICT|INTERRES
    75   39   40 1    
    76   39   95 1    
    77   40   41 1    
    78   40   42 1    
    79   40   96 1    
    80   41   97 1    
    81   41   98 1    
    82   41   99 1    
    83   42   43 2    
    84   42   44 am   BACKBONE|DICT|INTERRES
    85   44   45 1    
    86   44  100 1    
    87   45   46 1    
    88   45   47 1    
    89   45  101 1    
    90   46  102 1    
    91   46  103 1    
    92   46  104 1    
    93   47   48 2    
    94   47   49 am   BACKBONE|DICT|INTERRES
    95   49   50 1    
    96   49  105 1    
    97   50   51 1    
    98   50   52 1    
    99   50  106 1    
   100   51  107 1    
   101   51  108 1    
   102   51  109 1    
   103   52   53 2    
   104   52   54 am   BACKBONE|DICT|INTERRES
   105   54   55 1    
   106   54  110 1    
   107   55   56 1    
   108   55   59 1    
   109   55  111 1    
   110   56   57 am   BACKBONE|DICT|INTERRES
   111   56   58 2    
   112   57  112 1    
   113   57  113 1    
   114   59   60 1    
   115   59  114 1    
   116   59  115 1    
   117   60   61 1    
   118   61  116 1    
   119   61  117 1    
@<TRIPOS>SUBSTRUCTURE
     1 UNK         1 GROUP             0       ****    0 ROOT    
