@<TRIPOS>MOLECULE
3R8
117   119    1
SMALL
USER_CHARGES


@<TRIPOS>ATOM
      1 CA         14.7626  -21.3485  -46.5075 C.3       0 UNK        -0.2013 
      2 C          15.5241  -22.5729  -46.9934 C.2       0 UNK         0.4866 
      3 O          16.2551  -22.4872  -47.9809 O.2       0 UNK        -0.5176 
      4 N          15.3532  -23.7137  -46.3133 N.am      1 UNK        -0.4884 
      5 CA         16.0626  -24.9653  -46.5970 C.3       1 UNK         0.0853 
      6 C6         15.3319  -26.1745  -45.9607 C.3       10 UNK        -0.0849 
      7 S7         15.7399  -27.7495  -46.7876 S.3       10 UNK        -0.2776 
      8 C8         14.9847  -28.9584  -45.6564 C.3       10 UNK         0.0316 
      9 C9         15.8853  -29.2841  -44.4721 C.ar      10 UNK        -0.0863 
     10 C10        16.8312  -30.3105  -44.5719 C.ar      10 UNK        -0.1009 
     11 C11        17.6184  -30.6666  -43.4711 C.ar      10 UNK        -0.0712 
     12 C12        17.4460  -29.9828  -42.2642 C.ar      10 UNK        -0.0894 
     13 C13        16.5439  -28.9204  -42.1648 C.ar      10 UNK        -0.0745 
     14 C14        15.7530  -28.5864  -43.2676 C.ar      10 UNK        -0.0972 
     15 C15        16.4338  -28.1304  -40.8669 C.3       10 UNK         0.0209 
     16 S16        18.0382  -27.4377  -40.3377 S.3       10 UNK        -0.2568 
     17 C17        18.4678  -26.3461  -41.7382 C.3       10 UNK        -0.0983 
     18 CA         19.4938  -26.9877  -42.7112 C.3       3 UNK         0.0876 
     19 N          19.4903  -26.2971  -44.0019 N.am      3 UNK        -0.4424 
     20 C          19.9113  -26.8008  -45.1684 C.2       2 UNK         0.4918 
     21 O          20.3467  -27.9459  -45.3017 O.2       2 UNK        -0.4875 
     22 CA         19.8032  -25.8650  -46.3872 C.3       2 UNK         0.0481 
     23 CB         20.5827  -26.3940  -47.6050 C.3       2 UNK        -0.1831 
     24 N          18.4041  -25.6685  -46.7661 N.am      2 UNK        -0.4498 
     25 C          17.5285  -24.8878  -46.1206 C.2       1 UNK         0.5027 
     26 O          17.8311  -24.1750  -45.1579 O.2       1 UNK        -0.4969 
     27 C          20.9289  -27.0765  -42.1452 C.2       3 UNK         0.5005 
     28 O          21.2636  -26.4135  -41.1605 O.2       3 UNK        -0.5279 
     29 N          21.7711  -27.8827  -42.8026 N.am      4 UNK        -0.4463 
     30 CA         23.1815  -28.1133  -42.4895 C.3       4 UNK         0.0283 
     31 CB         23.8785  -28.6429  -43.7559 C.3       4 UNK        -0.1875 
     32 C          23.3566  -29.0577  -41.2867 C.2       4 UNK         0.4949 
     33 O          24.0135  -30.0940  -41.4046 O.2       4 UNK        -0.5039 
     34 N          22.7527  -28.7011  -40.1466 N.am      5 UNK        -0.4663 
     35 CA         22.7092  -29.4952  -38.9113 C.3       5 UNK         0.0242 
     36 CB         21.7949  -28.7924  -37.8964 C.3       5 UNK        -0.1982 
     37 C          24.0852  -29.7928  -38.2917 C.2       5 UNK         0.5017 
     38 O          24.2360  -30.8060  -37.6098 O.2       5 UNK        -0.5012 
     39 N          25.0628  -28.9186  -38.5547 N.am      6 UNK        -0.4439 
     40 CA         26.4481  -29.0620  -38.1112 C.3       6 UNK         0.0297 
     41 CB         27.0826  -27.6629  -38.0282 C.3       6 UNK        -0.2006 
     42 C          27.2979  -29.9801  -39.0113 C.2       6 UNK         0.4892 
     43 O          28.4113  -30.3157  -38.6038 O.2       6 UNK        -0.5089 
     44 N          26.8085  -30.3359  -40.2107 N.am      7 UNK        -0.4243 
     45 CA         27.6042  -31.0107  -41.2420 C.3       7 UNK         0.0196 
     46 CB         27.9139  -30.0151  -42.3728 C.3       7 UNK        -0.2007 
     47 C          26.9505  -32.2766  -41.8123 C.2       7 UNK         0.5020 
     48 O          27.6728  -33.2425  -42.0627 O.2       7 UNK        -0.5147 
     49 N          25.6314  -32.2613  -42.0467 N.am      8 UNK        -0.4734 
     50 CA         24.9304  -33.3296  -42.7697 C.3       8 UNK         0.0238 
     51 CB         24.7910  -32.9404  -44.2522 C.3       8 UNK        -0.1912 
     52 C          23.5609  -33.6760  -42.1746 C.2       8 UNK         0.5038 
     53 O          23.2225  -34.8594  -42.1222 O.2       8 UNK        -0.5046 
     54 N          22.7932  -32.6639  -41.7514 N.am      9 UNK        -0.4200 
     55 CA         21.4353  -32.8381  -41.2052 C.3       9 UNK         0.0839 
     56 C          21.3966  -33.2516  -39.7047 C.2       9 UNK         0.5513 
     57 N          22.5206  -33.3331  -39.0041 N.am      9 UNK        -0.7519 
     58 O          20.3231  -33.5102  -39.1674 O.2       9 UNK        -0.4960 
     59 C59        20.5258  -31.6114  -41.4827 C.3       10 UNK        -0.0876 
     60 S60        20.3453  -31.2459  -43.2640 S.3       10 UNK        -0.2414 
     61 C61        18.6358  -31.7976  -43.5884 C.3       10 UNK         0.0169 
     62 H62        15.4604  -20.5571  -46.2352 H         1 UNK         0.0903 
     63 H63        14.1123  -20.9730  -47.2972 H         1 UNK         0.0903 
     64 H64        14.1453  -21.5702  -45.6371 H         1 UNK         0.0903 
     65 H65        14.7699  -23.7151  -45.4885 H         1 UNK         0.3096 
     66 H66        16.0658  -25.0923  -47.6826 H         1 UNK         0.1121 
     67 H67        15.5441  -26.2421  -44.8926 H         1 UNK         0.0849 
     68 H68        14.2513  -26.0456  -46.0456 H         1 UNK         0.0849 
     69 H69        14.0162  -28.5911  -45.3131 H         1 UNK         0.0865 
     70 H70        14.7747  -29.8721  -46.2147 H         1 UNK         0.0865 
     71 H71        16.9433  -30.8418  -45.5073 H         1 UNK         0.1346 
     72 H72        18.0407  -30.2416  -41.4022 H         1 UNK         0.1412 
     73 H73        15.0304  -27.7862  -43.1866 H         1 UNK         0.1426 
     74 H74        16.0570  -28.7883  -40.0827 H         1 UNK         0.0716 
     75 H75        15.7119  -27.3178  -40.9623 H         1 UNK         0.0716 
     76 H76        17.5473  -26.1059  -42.2734 H         1 UNK         0.0695 
     77 H77        18.8345  -25.3950  -41.3481 H         1 UNK         0.0695 
     78 H78        19.1725  -28.0121  -42.9040 H         1 UNK         0.0983 
     79 H79        19.1112  -25.3568  -44.0106 H         1 UNK         0.3095 
     80 H80        20.2358  -24.9016  -46.1087 H         1 UNK         0.0454 
     81 H81        20.5450  -25.6904  -48.4367 H         1 UNK         0.0851 
     82 H82        21.6343  -26.5458  -47.3582 H         1 UNK         0.0851 
     83 H83        20.1897  -27.3493  -47.9554 H         1 UNK         0.0851 
     84 H84        18.0550  -26.2701  -47.4994 H         1 UNK         0.2976 
     85 H85        21.4073  -28.3550  -43.6253 H         1 UNK         0.3116 
     86 H86        23.6428  -27.1599  -42.2247 H         1 UNK         0.0646 
     87 H87        23.4667  -29.6026  -44.0711 H         1 UNK         0.0847 
     88 H88        24.9460  -28.7830  -43.5883 H         1 UNK         0.0847 
     89 H89        23.7735  -27.9460  -44.5876 H         1 UNK         0.0847 
     90 H90        22.2215  -27.8341  -40.1594 H         1 UNK         0.3040 
     91 H91        22.2661  -30.4612  -39.1508 H         1 UNK         0.1015 
     92 H92        20.7850  -28.6716  -38.2900 H         1 UNK         0.0786 
     93 H93        22.1719  -27.8039  -37.6309 H         1 UNK         0.0786 
     94 H94        21.7150  -29.3710  -36.9749 H         1 UNK         0.0786 
     95 H95        24.8390  -28.1120  -39.1197 H         1 UNK         0.3172 
     96 H96        26.4547  -29.4939  -37.1080 H         1 UNK         0.0595 
     97 H97        26.5297  -27.0149  -37.3480 H         1 UNK         0.0839 
     98 H98        27.1187  -27.1759  -39.0036 H         1 UNK         0.0839 
     99 H99        28.1065  -27.7188  -37.6555 H         1 UNK         0.0839 
    100 H100       25.8624  -30.0713  -40.4573 H         1 UNK         0.2998 
    101 H101       28.5612  -31.3338  -40.8265 H         1 UNK         0.0822 
    102 H102       28.4800  -29.1600  -42.0028 H         1 UNK         0.0787 
    103 H103       28.5115  -30.4843  -43.1558 H         1 UNK         0.0787 
    104 H104       27.0039  -29.6383  -42.8385 H         1 UNK         0.0787 
    105 H105       25.0879  -31.4347  -41.8060 H         1 UNK         0.3055 
    106 H106       25.5135  -34.2524  -42.7210 H         1 UNK         0.1106 
    107 H107       24.2290  -32.0140  -44.3746 H         1 UNK         0.0828 
    108 H108       25.7665  -32.8046  -44.7193 H         1 UNK         0.0828 
    109 H109       24.2689  -33.7163  -44.8141 H         1 UNK         0.0828 
    110 H110       23.1457  -31.7140  -41.7914 H         1 UNK         0.2931 
    111 H111       20.9768  -33.6760  -41.7346 H         1 UNK         0.0412 
    112 H112       23.4087  -33.1259  -39.4309 H         1 UNK         0.3472 
    113 H113       22.4796  -33.5992  -38.0329 H         1 UNK         0.3472 
    114 H114       20.9087  -30.7188  -40.9916 H         1 UNK         0.0970 
    115 H115       19.5402  -31.7853  -41.0509 H         1 UNK         0.0970 
    116 H116       18.6106  -32.2220  -44.5930 H         1 UNK         0.0612 
    117 H117       18.3638  -32.6101  -42.9134 H         1 UNK         0.0612 
@<TRIPOS>BOND
     1    1    2 1    
     2    1   62 1    
     3    1   63 1    
     4    1   64 1    
     5    2    3 2    
     6    2    4 am   BACKBONE|DICT|INTERRES
     7    4    5 1    
     8    4   65 1    
     9    5    6 1    
    10    5   25 1    
    11    5   66 1    
    12    6    7 1    
    13    6   67 1    
    14    6   68 1    
    15    7    8 1    
    16    8    9 1    
    17    8   69 1    
    18    8   70 1    
    19    9   10 ar   
    20    9   14 ar   
    21   10   11 ar   
    22   10   71 1    
    23   11   12 ar   
    24   11   61 1    
    25   12   13 ar   
    26   12   72 1    
    27   13   14 ar   
    28   13   15 1    
    29   14   73 1    
    30   15   16 1    
    31   15   74 1    
    32   15   75 1    
    33   16   17 1    
    34   17   18 1    
    35   17   76 1    
    36   17   77 1    
    37   18   19 1    
    38   18   27 1    
    39   18   78 1    
    40   19   20 am   BACKBONE|DICT|INTERRES
    41   19   79 1    
    42   20   21 2    
    43   20   22 1    
    44   22   23 1    
    45   22   24 1    
    46   22   80 1    
    47   23   81 1    
    48   23   82 1    
    49   23   83 1    
    50   24   25 am   BACKBONE|DICT|INTERRES
    51   24   84 1    
    52   25   26 2    
    53   27   28 2    
    54   27   29 am   BACKBONE|DICT|INTERRES
    55   29   30 1    
    56   29   85 1    
    57   30   31 1    
    58   30   32 1    
    59   30   86 1    
    60   31   87 1    
    61   31   88 1    
    62   31   89 1    
    63   32   33 2    
    64   32   34 am   BACKBONE|DICT|INTERRES
    65   34   35 1    
    66   34   90 1    
    67   35   36 1    
    68   35   37 1    
    69   35   91 1    
    70   36   92 1    
    71   36   93 1    
    72   36   94 1    
    73   37   38 2    
    74   37   39 am   BACKBONE|DICT|INTERRES
    75   39   40 1    
    76   39   95 1    
    77   40   41 1    
    78   40   42 1    
    79   40   96 1    
    80   41   97 1    
    81   41   98 1    
    82   41   99 1    
    83   42   43 2    
    84   42   44 am   BACKBONE|DICT|INTERRES
    85   44   45 1    
    86   44  100 1    
    87   45   46 1    
    88   45   47 1    
    89   45  101 1    
    90   46  102 1    
    91   46  103 1    
    92   46  104 1    
    93   47   48 2    
    94   47   49 am   BACKBONE|DICT|INTERRES
    95   49   50 1    
    96   49  105 1    
    97   50   51 1    
    98   50   52 1    
    99   50  106 1    
   100   51  107 1    
   101   51  108 1    
   102   51  109 1    
   103   52   53 2    
   104   52   54 am   BACKBONE|DICT|INTERRES
   105   54   55 1    
   106   54  110 1    
   107   55   56 1    
   108   55   59 1    
   109   55  111 1    
   110   56   57 am   BACKBONE|DICT|INTERRES
   111   56   58 2    
   112   57  112 1    
   113   57  113 1    
   114   59   60 1    
   115   59  114 1    
   116   59  115 1    
   117   60   61 1    
   118   61  116 1    
   119   61  117 1    
@<TRIPOS>SUBSTRUCTURE
     1 UNK         1 GROUP             0       ****    0 ROOT    
