@<TRIPOS>MOLECULE
3R8
117   119    1
SMALL
USER_CHARGES


@<TRIPOS>ATOM
      1 CA         17.1516  -23.2093  -42.2819 C.3       0 UNK        -0.2013 
      2 C          17.5405  -24.3543  -43.2043 C.2       0 UNK         0.4866 
      3 O          17.8391  -25.4530  -42.7312 O.2       0 UNK        -0.5176 
      4 N          17.5264  -24.0893  -44.5186 N.am      1 UNK        -0.4884 
      5 CA         17.7738  -25.0114  -45.6347 C.3       1 UNK         0.0853 
      6 C6         16.7035  -26.1304  -45.7292 C.3       10 UNK        -0.0849 
      7 S7         16.7779  -27.0561  -47.3022 S.3       10 UNK        -0.2776 
      8 C8         15.8321  -28.5575  -46.8964 C.3       10 UNK         0.0316 
      9 C9         16.5334  -29.4253  -45.8600 C.ar      10 UNK        -0.0863 
     10 C10        17.5839  -30.2697  -46.2357 C.ar      10 UNK        -0.1009 
     11 C11        18.2035  -31.0992  -45.2935 C.ar      10 UNK        -0.0712 
     12 C12        17.7505  -31.0805  -43.9711 C.ar      10 UNK        -0.0894 
     13 C13        16.7309  -30.2129  -43.5741 C.ar      10 UNK        -0.0745 
     14 C14        16.1163  -29.3976  -44.5261 C.ar      10 UNK        -0.0972 
     15 C15        16.2866  -30.1585  -42.1202 C.3       10 UNK         0.0209 
     16 S16        17.1994  -28.8892  -41.1835 S.3       10 UNK        -0.2568 
     17 C17        18.8027  -29.7161  -40.8855 C.3       10 UNK        -0.0983 
     18 CA         20.0470  -28.8620  -41.2385 C.3       3 UNK         0.0876 
     19 N          19.9970  -28.2916  -42.5947 N.am      3 UNK        -0.4424 
     20 C          21.0318  -27.6820  -43.1959 C.2       2 UNK         0.4918 
     21 O          22.1192  -27.4958  -42.6533 O.2       2 UNK        -0.4875 
     22 CA         20.8222  -27.1344  -44.6101 C.3       2 UNK         0.0481 
     23 CB         20.9488  -28.2449  -45.6663 C.3       2 UNK        -0.1831 
     24 N          19.5388  -26.4505  -44.7246 N.am      2 UNK        -0.4498 
     25 C          19.2191  -25.5532  -45.6619 C.2       1 UNK         0.5027 
     26 O          20.0003  -25.1535  -46.5275 O.2       1 UNK        -0.4969 
     27 C          20.3537  -27.8314  -40.1299 C.2       3 UNK         0.5005 
     28 O          20.9632  -28.1949  -39.1225 O.2       3 UNK        -0.5279 
     29 N          19.9556  -26.5671  -40.3322 N.am      4 UNK        -0.4463 
     30 CA         20.2981  -25.4575  -39.4390 C.3       4 UNK         0.0283 
     31 CB         19.3198  -24.2996  -39.6769 C.3       4 UNK        -0.1875 
     32 C          21.7475  -24.9653  -39.6134 C.2       4 UNK         0.4949 
     33 O          22.2759  -24.3364  -38.6963 O.2       4 UNK        -0.5039 
     34 N          22.3533  -25.2244  -40.7807 N.am      5 UNK        -0.4663 
     35 CA         23.6997  -24.7737  -41.1332 C.3       5 UNK         0.0242 
     36 CB         23.7522  -24.4417  -42.6342 C.3       5 UNK        -0.1982 
     37 C          24.7725  -25.8104  -40.7714 C.2       5 UNK         0.5017 
     38 O          25.8462  -25.4168  -40.3135 O.2       5 UNK        -0.5012 
     39 N          24.4827  -27.1014  -40.9809 N.am      6 UNK        -0.4439 
     40 CA         25.4024  -28.2071  -40.7237 C.3       6 UNK         0.0297 
     41 CB         26.3187  -28.4139  -41.9446 C.3       6 UNK        -0.2006 
     42 C          24.6227  -29.4880  -40.4132 C.2       6 UNK         0.4892 
     43 O          23.5015  -29.6635  -40.8898 O.2       6 UNK        -0.5089 
     44 N          25.2660  -30.3925  -39.6653 N.am      7 UNK        -0.4243 
     45 CA         24.7347  -31.7064  -39.2849 C.3       7 UNK         0.0196 
     46 CB         25.4734  -32.1888  -38.0240 C.3       7 UNK        -0.2007 
     47 C          24.8140  -32.7649  -40.4047 C.2       7 UNK         0.5020 
     48 O          24.4277  -33.9103  -40.1713 O.2       7 UNK        -0.5147 
     49 N          25.3097  -32.3854  -41.5924 N.am      8 UNK        -0.4734 
     50 CA         25.5226  -33.2473  -42.7631 C.3       8 UNK         0.0238 
     51 CB         26.1657  -32.4146  -43.8845 C.3       8 UNK        -0.1912 
     52 C          24.2620  -33.9641  -43.2840 C.2       8 UNK         0.5038 
     53 O          24.3876  -35.0326  -43.8840 O.2       8 UNK        -0.5046 
     54 N          23.0828  -33.3820  -43.0328 N.am      9 UNK        -0.4200 
     55 CA         21.7725  -33.9964  -43.2958 C.3       9 UNK         0.0839 
     56 C          21.3963  -35.1521  -42.3201 C.2       9 UNK         0.5513 
     57 N          22.1152  -35.3796  -41.2268 N.am      9 UNK        -0.7519 
     58 O          20.4274  -35.8653  -42.5677 O.2       9 UNK        -0.4960 
     59 C59        20.6467  -32.9324  -43.3513 C.3       10 UNK        -0.0876 
     60 S60        20.8664  -31.7573  -44.7329 S.3       10 UNK        -0.2414 
     61 C61        19.3468  -32.0201  -45.7131 C.3       10 UNK         0.0169 
     62 H62        16.3833  -22.5824  -42.7339 H         1 UNK         0.0903 
     63 H63        16.7555  -23.5939  -41.3425 H         1 UNK         0.0903 
     64 H64        18.0170  -22.5850  -42.0630 H         1 UNK         0.0903 
     65 H65        17.3088  -23.1445  -44.8063 H         1 UNK         0.3096 
     66 H66        17.6692  -24.3990  -46.5324 H         1 UNK         0.1121 
     67 H67        15.7061  -25.6951  -45.6509 H         1 UNK         0.0849 
     68 H68        16.7961  -26.8133  -44.8857 H         1 UNK         0.0849 
     69 H69        14.8357  -28.2743  -46.5532 H         1 UNK         0.0865 
     70 H70        15.6822  -29.1359  -47.8093 H         1 UNK         0.0865 
     71 H71        17.9136  -30.2819  -47.2657 H         1 UNK         0.1346 
     72 H72        18.2009  -31.7339  -43.2421 H         1 UNK         0.1412 
     73 H73        15.3137  -28.7377  -44.2253 H         1 UNK         0.1426 
     74 H74        16.4088  -31.1316  -41.6418 H         1 UNK         0.0716 
     75 H75        15.2210  -29.9298  -42.0701 H         1 UNK         0.0716 
     76 H76        18.8456  -30.6442  -41.4503 H         1 UNK         0.0695 
     77 H77        18.8329  -30.0316  -39.8406 H         1 UNK         0.0695 
     78 H78        20.8999  -29.5440  -41.2366 H         1 UNK         0.0983 
     79 H79        19.1308  -28.4284  -43.0955 H         1 UNK         0.3095 
     80 H80        21.6145  -26.4036  -44.7863 H         1 UNK         0.0454 
     81 H81        21.8712  -28.8117  -45.5330 H         1 UNK         0.0851 
     82 H82        20.9638  -27.8359  -46.6763 H         1 UNK         0.0851 
     83 H83        20.1188  -28.9475  -45.6059 H         1 UNK         0.0851 
     84 H84        18.8722  -26.5736  -43.9682 H         1 UNK         0.2976 
     85 H85        19.4090  -26.3514  -41.1573 H         1 UNK         0.3116 
     86 H86        20.1811  -25.7914  -38.4057 H         1 UNK         0.0646 
     87 H87        19.4419  -23.8806  -40.6750 H         1 UNK         0.0847 
     88 H88        19.4891  -23.4925  -38.9629 H         1 UNK         0.0847 
     89 H89        18.2842  -24.6211  -39.5648 H         1 UNK         0.0847 
     90 H90        21.8879  -25.8212  -41.4532 H         1 UNK         0.3040 
     91 H91        23.9297  -23.8573  -40.5844 H         1 UNK         0.1015 
     92 H92        23.5618  -25.3179  -43.2544 H         1 UNK         0.0786 
     93 H93        24.7342  -24.0563  -42.9118 H         1 UNK         0.0786 
     94 H94        23.0192  -23.6790  -42.8975 H         1 UNK         0.0786 
     95 H95        23.5796  -27.3661  -41.3713 H         1 UNK         0.3172 
     96 H96        26.0138  -27.9686  -39.8505 H         1 UNK         0.0595 
     97 H97        25.7436  -28.6492  -42.8414 H         1 UNK         0.0839 
     98 H98        27.0210  -29.2320  -41.7803 H         1 UNK         0.0839 
     99 H99        26.9101  -27.5222  -42.1531 H         1 UNK         0.0839 
    100 H100       26.1968  -30.1757  -39.3370 H         1 UNK         0.2998 
    101 H101       23.6777  -31.5911  -39.0345 H         1 UNK         0.0822 
    102 H102       25.0665  -33.1362  -37.6674 H         1 UNK         0.0787 
    103 H103       26.5367  -32.3419  -38.2130 H         1 UNK         0.0787 
    104 H104       25.3758  -31.4724  -37.2080 H         1 UNK         0.0787 
    105 H105       25.5847  -31.4197  -41.6901 H         1 UNK         0.3055 
    106 H106       26.2273  -34.0271  -42.4662 H         1 UNK         0.1106 
    107 H107       26.3632  -33.0294  -44.7640 H         1 UNK         0.0828 
    108 H108       25.5189  -31.5945  -44.1996 H         1 UNK         0.0828 
    109 H109       27.1192  -31.9901  -43.5696 H         1 UNK         0.0828 
    110 H110       23.0776  -32.5010  -42.5408 H         1 UNK         0.2931 
    111 H111       21.8263  -34.4587  -44.2836 H         1 UNK         0.0412 
    112 H112       22.9242  -34.8114  -40.9943 H         1 UNK         0.3472 
    113 H113       21.8502  -36.1368  -40.6172 H         1 UNK         0.3472 
    114 H114       20.6047  -32.3702  -42.4169 H         1 UNK         0.0970 
    115 H115       19.6773  -33.4226  -43.4530 H         1 UNK         0.0970 
    116 H116       19.5986  -31.8482  -46.7606 H         1 UNK         0.0612 
    117 H117       19.0258  -33.0603  -45.6484 H         1 UNK         0.0612 
@<TRIPOS>BOND
     1    1    2 1    
     2    1   62 1    
     3    1   63 1    
     4    1   64 1    
     5    2    3 2    
     6    2    4 am   BACKBONE|DICT|INTERRES
     7    4    5 1    
     8    4   65 1    
     9    5    6 1    
    10    5   25 1    
    11    5   66 1    
    12    6    7 1    
    13    6   67 1    
    14    6   68 1    
    15    7    8 1    
    16    8    9 1    
    17    8   69 1    
    18    8   70 1    
    19    9   10 ar   
    20    9   14 ar   
    21   10   11 ar   
    22   10   71 1    
    23   11   12 ar   
    24   11   61 1    
    25   12   13 ar   
    26   12   72 1    
    27   13   14 ar   
    28   13   15 1    
    29   14   73 1    
    30   15   16 1    
    31   15   74 1    
    32   15   75 1    
    33   16   17 1    
    34   17   18 1    
    35   17   76 1    
    36   17   77 1    
    37   18   19 1    
    38   18   27 1    
    39   18   78 1    
    40   19   20 am   BACKBONE|DICT|INTERRES
    41   19   79 1    
    42   20   21 2    
    43   20   22 1    
    44   22   23 1    
    45   22   24 1    
    46   22   80 1    
    47   23   81 1    
    48   23   82 1    
    49   23   83 1    
    50   24   25 am   BACKBONE|DICT|INTERRES
    51   24   84 1    
    52   25   26 2    
    53   27   28 2    
    54   27   29 am   BACKBONE|DICT|INTERRES
    55   29   30 1    
    56   29   85 1    
    57   30   31 1    
    58   30   32 1    
    59   30   86 1    
    60   31   87 1    
    61   31   88 1    
    62   31   89 1    
    63   32   33 2    
    64   32   34 am   BACKBONE|DICT|INTERRES
    65   34   35 1    
    66   34   90 1    
    67   35   36 1    
    68   35   37 1    
    69   35   91 1    
    70   36   92 1    
    71   36   93 1    
    72   36   94 1    
    73   37   38 2    
    74   37   39 am   BACKBONE|DICT|INTERRES
    75   39   40 1    
    76   39   95 1    
    77   40   41 1    
    78   40   42 1    
    79   40   96 1    
    80   41   97 1    
    81   41   98 1    
    82   41   99 1    
    83   42   43 2    
    84   42   44 am   BACKBONE|DICT|INTERRES
    85   44   45 1    
    86   44  100 1    
    87   45   46 1    
    88   45   47 1    
    89   45  101 1    
    90   46  102 1    
    91   46  103 1    
    92   46  104 1    
    93   47   48 2    
    94   47   49 am   BACKBONE|DICT|INTERRES
    95   49   50 1    
    96   49  105 1    
    97   50   51 1    
    98   50   52 1    
    99   50  106 1    
   100   51  107 1    
   101   51  108 1    
   102   51  109 1    
   103   52   53 2    
   104   52   54 am   BACKBONE|DICT|INTERRES
   105   54   55 1    
   106   54  110 1    
   107   55   56 1    
   108   55   59 1    
   109   55  111 1    
   110   56   57 am   BACKBONE|DICT|INTERRES
   111   56   58 2    
   112   57  112 1    
   113   57  113 1    
   114   59   60 1    
   115   59  114 1    
   116   59  115 1    
   117   60   61 1    
   118   61  116 1    
   119   61  117 1    
@<TRIPOS>SUBSTRUCTURE
     1 UNK         1 GROUP             0       ****    0 ROOT    
