@<TRIPOS>MOLECULE
3R8
117   119    1
SMALL
USER_CHARGES


@<TRIPOS>ATOM
      1 CA         18.4935  -23.4188  -47.7809 C.3       0 UNK        -0.2013 
      2 C          18.5698  -24.9260  -47.5892 C.2       0 UNK         0.4866 
      3 O          19.0604  -25.6302  -48.4717 O.2       0 UNK        -0.5176 
      4 N          18.0828  -25.4251  -46.4453 N.am      1 UNK        -0.4884 
      5 CA         18.0700  -26.8491  -46.0873 C.3       1 UNK         0.0853 
      6 C6         17.2458  -27.1112  -44.8050 C.3       10 UNK        -0.0849 
      7 S7         15.4527  -26.8141  -44.9934 S.3       10 UNK        -0.2776 
      8 C8         14.7472  -28.4837  -45.2703 C.3       10 UNK         0.0316 
      9 C9         15.3752  -29.5737  -44.4068 C.ar      10 UNK        -0.0863 
     10 C10        15.9701  -30.6837  -45.0151 C.ar      10 UNK        -0.1009 
     11 C11        16.6398  -31.6398  -44.2475 C.ar      10 UNK        -0.0712 
     12 C12        16.6947  -31.4937  -42.8603 C.ar      10 UNK        -0.0894 
     13 C13        16.1216  -30.3809  -42.2408 C.ar      10 UNK        -0.0745 
     14 C14        15.4358  -29.4391  -43.0147 C.ar      10 UNK        -0.0972 
     15 C15        16.3062  -30.1656  -40.7453 C.3       10 UNK         0.0209 
     16 S16        18.0694  -30.0462  -40.2800 S.3       10 UNK        -0.2568 
     17 C17        18.6195  -28.5728  -41.2104 C.3       10 UNK        -0.0983 
     18 CA         20.1584  -28.5300  -41.4249 C.3       3 UNK         0.0876 
     19 N          20.4832  -27.7776  -42.6387 N.am      3 UNK        -0.4424 
     20 C          21.4601  -28.0706  -43.5052 C.2       2 UNK         0.4918 
     21 O          22.1792  -29.0675  -43.4171 O.2       2 UNK        -0.4875 
     22 CA         21.6492  -27.0617  -44.6615 C.3       2 UNK         0.0481 
     23 CB         22.6392  -27.5477  -45.7394 C.3       2 UNK        -0.1831 
     24 N          20.3658  -26.6458  -45.2447 N.am      2 UNK        -0.4498 
     25 C          19.4815  -27.4330  -45.8789 C.2       1 UNK         0.5027 
     26 O          19.7115  -28.5860  -46.2392 O.2       1 UNK        -0.4969 
     27 C          20.8869  -27.9127  -40.2095 C.2       3 UNK         0.5005 
     28 O          21.5409  -26.8717  -40.3345 O.2       3 UNK        -0.5279 
     29 N          20.7262  -28.5528  -39.0418 N.am      4 UNK        -0.4463 
     30 CA         21.1890  -28.1205  -37.7181 C.3       4 UNK         0.0283 
     31 CB         20.3328  -26.9335  -37.2176 C.3       4 UNK        -0.1875 
     32 C          22.7064  -27.8594  -37.6921 C.2       4 UNK         0.4949 
     33 O          23.4739  -28.7994  -37.8968 O.2       4 UNK        -0.5039 
     34 N          23.1149  -26.6021  -37.4711 N.am      5 UNK        -0.4663 
     35 CA         24.5117  -26.1591  -37.4125 C.3       5 UNK         0.0242 
     36 CB         24.5532  -24.6881  -36.9669 C.3       5 UNK        -0.1982 
     37 C          25.2972  -26.3447  -38.7241 C.2       5 UNK         0.5017 
     38 O          26.5219  -26.4616  -38.6691 O.2       5 UNK        -0.5012 
     39 N          24.5976  -26.3837  -39.8686 N.am      6 UNK        -0.4439 
     40 CA         25.1918  -26.6693  -41.1784 C.3       6 UNK         0.0297 
     41 CB         24.3234  -26.0471  -42.2793 C.3       6 UNK        -0.2006 
     42 C          25.4263  -28.1735  -41.4218 C.2       6 UNK         0.4892 
     43 O          26.1779  -28.5121  -42.3359 O.2       6 UNK        -0.5089 
     44 N          24.8107  -29.0362  -40.5971 N.am      7 UNK        -0.4243 
     45 CA         25.0101  -30.4836  -40.4281 C.3       7 UNK         0.0196 
     46 CB         26.4291  -30.7636  -39.8959 C.3       7 UNK        -0.2007 
     47 C          24.7006  -31.4018  -41.6262 C.2       7 UNK         0.5020 
     48 O          24.3561  -32.5602  -41.3924 O.2       7 UNK        -0.5147 
     49 N          24.8400  -30.9145  -42.8645 N.am      8 UNK        -0.4734 
     50 CA         24.7676  -31.6891  -44.1105 C.3       8 UNK         0.0238 
     51 CB         24.9969  -30.7538  -45.3074 C.3       8 UNK        -0.1912 
     52 C          23.4746  -32.5008  -44.3010 C.2       8 UNK         0.5038 
     53 O          23.5495  -33.6455  -44.7502 O.2       8 UNK        -0.5046 
     54 N          22.3311  -31.9067  -43.9418 N.am      9 UNK        -0.4200 
     55 CA         21.0097  -32.5558  -43.9482 C.3       9 UNK         0.0839 
     56 C          20.6434  -33.2478  -42.6013 C.2       9 UNK         0.5513 
     57 N          21.5270  -33.3114  -41.6125 N.am      9 UNK        -0.7519 
     58 O          19.5371  -33.7547  -42.4473 O.2       9 UNK        -0.4960 
     59 C59        19.9047  -31.5793  -44.4446 C.3       10 UNK        -0.0876 
     60 S60        18.8694  -32.2872  -45.7770 S.3       10 UNK        -0.2414 
     61 C61        17.3475  -32.8067  -44.9176 C.3       10 UNK         0.0169 
     62 H62        18.0276  -22.9215  -46.9306 H         1 UNK         0.0903 
     63 H63        19.4938  -23.0059  -47.9091 H         1 UNK         0.0903 
     64 H64        17.9114  -23.1836  -48.6712 H         1 UNK         0.0903 
     65 H65        17.6562  -24.8016  -45.7741 H         1 UNK         0.3096 
     66 H66        17.6153  -27.4020  -46.9126 H         1 UNK         0.1121 
     67 H67        17.4204  -28.1250  -44.4479 H         1 UNK         0.0849 
     68 H68        17.5960  -26.4692  -43.9947 H         1 UNK         0.0849 
     69 H69        13.6748  -28.4512  -45.0760 H         1 UNK         0.0865 
     70 H70        14.8559  -28.7252  -46.3285 H         1 UNK         0.0865 
     71 H71        15.9514  -30.7882  -46.0914 H         1 UNK         0.1346 
     72 H72        17.2348  -32.2177  -42.2647 H         1 UNK         0.1412 
     73 H73        15.0024  -28.5666  -42.5448 H         1 UNK         0.1426 
     74 H74        15.8525  -30.9984  -40.2065 H         1 UNK         0.0716 
     75 H75        15.7908  -29.2632  -40.4129 H         1 UNK         0.0716 
     76 H76        18.1249  -28.6004  -42.1810 H         1 UNK         0.0695 
     77 H77        18.2492  -27.6712  -40.7180 H         1 UNK         0.0695 
     78 H78        20.5267  -29.5520  -41.5439 H         1 UNK         0.0983 
     79 H79        20.0010  -26.8984  -42.7455 H         1 UNK         0.3095 
     80 H80        22.0739  -26.1608  -44.2186 H         1 UNK         0.0454 
     81 H81        23.6347  -27.6793  -45.3150 H         1 UNK         0.0851 
     82 H82        22.7276  -26.8269  -46.5520 H         1 UNK         0.0851 
     83 H83        22.3392  -28.5035  -46.1693 H         1 UNK         0.0851 
     84 H84        20.0758  -25.6998  -45.0390 H         1 UNK         0.2976 
     85 H85        20.1725  -29.4002  -39.0509 H         1 UNK         0.3116 
     86 H86        21.0158  -28.9586  -37.0406 H         1 UNK         0.0646 
     87 H87        20.4111  -26.0606  -37.8677 H         1 UNK         0.0847 
     88 H88        19.2788  -27.2087  -37.1697 H         1 UNK         0.0847 
     89 H89        20.6246  -26.6307  -36.2109 H         1 UNK         0.0847 
     90 H90        22.4097  -25.8907  -37.3418 H         1 UNK         0.3040 
     91 H91        25.0152  -26.7618  -36.6531 H         1 UNK         0.1015 
     92 H92        25.5820  -24.3337  -36.8835 H         1 UNK         0.0786 
     93 H93        24.0878  -24.5548  -35.9901 H         1 UNK         0.0786 
     94 H94        24.0411  -24.0368  -37.6766 H         1 UNK         0.0786 
     95 H95        23.5859  -26.3053  -39.8299 H         1 UNK         0.3172 
     96 H96        26.1717  -26.1897  -41.2305 H         1 UNK         0.0595 
     97 H97        23.2925  -26.3820  -42.2027 H         1 UNK         0.0839 
     98 H98        24.6881  -26.3126  -43.2725 H         1 UNK         0.0839 
     99 H99        24.3237  -24.9591  -42.2135 H         1 UNK         0.0839 
    100 H100       24.2131  -28.6317  -39.8854 H         1 UNK         0.2998 
    101 H101       24.3077  -30.7756  -39.6453 H         1 UNK         0.0822 
    102 H102       26.5621  -31.8231  -39.6723 H         1 UNK         0.0787 
    103 H103       26.6213  -30.2125  -38.9749 H         1 UNK         0.0787 
    104 H104       27.1958  -30.4854  -40.6204 H         1 UNK         0.0787 
    105 H105       25.1751  -29.9572  -42.9368 H         1 UNK         0.3055 
    106 H106       25.5899  -32.4069  -44.0811 H         1 UNK         0.1106 
    107 H107       25.9545  -30.2380  -45.2337 H         1 UNK         0.0828 
    108 H108       24.9994  -31.3110  -46.2452 H         1 UNK         0.0828 
    109 H109       24.2134  -30.0006  -45.3781 H         1 UNK         0.0828 
    110 H110       22.3675  -30.9503  -43.5980 H         1 UNK         0.2931 
    111 H111       21.0626  -33.3783  -44.6629 H         1 UNK         0.0412 
    112 H112       21.2639  -33.7721  -40.7566 H         1 UNK         0.3472 
    113 H113       22.4724  -32.9598  -41.7199 H         1 UNK         0.3472 
    114 H114       19.2929  -31.1993  -43.6265 H         1 UNK         0.0970 
    115 H115       20.3620  -30.6886  -44.8751 H         1 UNK         0.0970 
    116 H116       17.5865  -33.5866  -44.1946 H         1 UNK         0.0612 
    117 H117       16.6748  -33.2641  -45.6441 H         1 UNK         0.0612 
@<TRIPOS>BOND
     1    1    2 1    
     2    1   62 1    
     3    1   63 1    
     4    1   64 1    
     5    2    3 2    
     6    2    4 am   BACKBONE|DICT|INTERRES
     7    4    5 1    
     8    4   65 1    
     9    5    6 1    
    10    5   25 1    
    11    5   66 1    
    12    6    7 1    
    13    6   67 1    
    14    6   68 1    
    15    7    8 1    
    16    8    9 1    
    17    8   69 1    
    18    8   70 1    
    19    9   10 ar   
    20    9   14 ar   
    21   10   11 ar   
    22   10   71 1    
    23   11   12 ar   
    24   11   61 1    
    25   12   13 ar   
    26   12   72 1    
    27   13   14 ar   
    28   13   15 1    
    29   14   73 1    
    30   15   16 1    
    31   15   74 1    
    32   15   75 1    
    33   16   17 1    
    34   17   18 1    
    35   17   76 1    
    36   17   77 1    
    37   18   19 1    
    38   18   27 1    
    39   18   78 1    
    40   19   20 am   BACKBONE|DICT|INTERRES
    41   19   79 1    
    42   20   21 2    
    43   20   22 1    
    44   22   23 1    
    45   22   24 1    
    46   22   80 1    
    47   23   81 1    
    48   23   82 1    
    49   23   83 1    
    50   24   25 am   BACKBONE|DICT|INTERRES
    51   24   84 1    
    52   25   26 2    
    53   27   28 2    
    54   27   29 am   BACKBONE|DICT|INTERRES
    55   29   30 1    
    56   29   85 1    
    57   30   31 1    
    58   30   32 1    
    59   30   86 1    
    60   31   87 1    
    61   31   88 1    
    62   31   89 1    
    63   32   33 2    
    64   32   34 am   BACKBONE|DICT|INTERRES
    65   34   35 1    
    66   34   90 1    
    67   35   36 1    
    68   35   37 1    
    69   35   91 1    
    70   36   92 1    
    71   36   93 1    
    72   36   94 1    
    73   37   38 2    
    74   37   39 am   BACKBONE|DICT|INTERRES
    75   39   40 1    
    76   39   95 1    
    77   40   41 1    
    78   40   42 1    
    79   40   96 1    
    80   41   97 1    
    81   41   98 1    
    82   41   99 1    
    83   42   43 2    
    84   42   44 am   BACKBONE|DICT|INTERRES
    85   44   45 1    
    86   44  100 1    
    87   45   46 1    
    88   45   47 1    
    89   45  101 1    
    90   46  102 1    
    91   46  103 1    
    92   46  104 1    
    93   47   48 2    
    94   47   49 am   BACKBONE|DICT|INTERRES
    95   49   50 1    
    96   49  105 1    
    97   50   51 1    
    98   50   52 1    
    99   50  106 1    
   100   51  107 1    
   101   51  108 1    
   102   51  109 1    
   103   52   53 2    
   104   52   54 am   BACKBONE|DICT|INTERRES
   105   54   55 1    
   106   54  110 1    
   107   55   56 1    
   108   55   59 1    
   109   55  111 1    
   110   56   57 am   BACKBONE|DICT|INTERRES
   111   56   58 2    
   112   57  112 1    
   113   57  113 1    
   114   59   60 1    
   115   59  114 1    
   116   59  115 1    
   117   60   61 1    
   118   61  116 1    
   119   61  117 1    
@<TRIPOS>SUBSTRUCTURE
     1 UNK         1 GROUP             0       ****    0 ROOT    
