@<TRIPOS>MOLECULE
3R8
117   119    1
SMALL
USER_CHARGES


@<TRIPOS>ATOM
      1 CA         17.1585  -27.6878  -38.6874 C.3       0 UNK        -0.2013 
      2 C          16.9408  -27.1720  -40.1025 C.2       0 UNK         0.4866 
      3 O          16.2574  -26.1643  -40.2891 O.2       0 UNK        -0.5176 
      4 N          17.5085  -27.8599  -41.0991 N.am      1 UNK        -0.4884 
      5 CA         17.4680  -27.4771  -42.5144 C.3       1 UNK         0.0853 
      6 C6         17.8561  -28.6622  -43.4314 C.3       10 UNK        -0.0849 
      7 S7         16.6353  -30.0163  -43.3748 S.3       10 UNK        -0.2776 
      8 C8         16.7181  -30.6495  -45.0847 C.3       10 UNK         0.0316 
      9 C9         18.1372  -31.0418  -45.4745 C.ar      10 UNK        -0.0863 
     10 C10        18.7673  -32.1106  -44.8340 C.ar      10 UNK        -0.1009 
     11 C11        20.0891  -32.4432  -45.1378 C.ar      10 UNK        -0.0712 
     12 C12        20.7805  -31.7072  -46.1044 C.ar      10 UNK        -0.0894 
     13 C13        20.1547  -30.6472  -46.7695 C.ar      10 UNK        -0.0745 
     14 C14        18.8299  -30.3246  -46.4547 C.ar      10 UNK        -0.0972 
     15 C15        20.9097  -29.8583  -47.8330 C.3       10 UNK         0.0209 
     16 S16        20.9601  -28.0695  -47.4872 S.3       10 UNK        -0.2568 
     17 C17        21.9100  -28.0280  -45.9317 C.3       10 UNK        -0.0983 
     18 CA         21.9912  -26.5968  -45.3427 C.3       3 UNK         0.0876 
     19 N          20.6601  -26.0645  -45.0381 N.am      3 UNK        -0.4424 
     20 C          20.3444  -24.7758  -44.8529 C.2       2 UNK         0.4918 
     21 O          21.1492  -23.8536  -44.9955 O.2       2 UNK        -0.4875 
     22 CA         18.8963  -24.4490  -44.4345 C.3       2 UNK         0.0481 
     23 CB         18.1354  -23.8113  -45.6081 C.3       2 UNK        -0.1831 
     24 N          18.1296  -25.5982  -43.9357 N.am      2 UNK        -0.4498 
     25 C          18.3801  -26.2644  -42.7982 C.2       1 UNK         0.5027 
     26 O          19.3073  -25.9846  -42.0344 O.2       1 UNK        -0.4969 
     27 C          22.8826  -26.5368  -44.0837 C.2       3 UNK         0.5005 
     28 O          23.1688  -27.5725  -43.4784 O.2       3 UNK        -0.5279 
     29 N          23.2841  -25.3137  -43.7061 N.am      4 UNK        -0.4463 
     30 CA         23.9857  -24.9321  -42.4722 C.3       4 UNK         0.0283 
     31 CB         24.2332  -23.4150  -42.4956 C.3       4 UNK        -0.1875 
     32 C          25.2968  -25.6805  -42.1672 C.2       4 UNK         0.4949 
     33 O          25.7401  -25.6650  -41.0190 O.2       4 UNK        -0.5039 
     34 N          25.8825  -26.3373  -43.1768 N.am      5 UNK        -0.4663 
     35 CA         27.0206  -27.2489  -43.0394 C.3       5 UNK         0.0242 
     36 CB         27.5377  -27.6141  -44.4406 C.3       5 UNK        -0.1982 
     37 C          26.6995  -28.5255  -42.2351 C.2       5 UNK         0.5017 
     38 O          27.6313  -29.1508  -41.7268 O.2       5 UNK        -0.5012 
     39 N          25.4128  -28.8896  -42.1326 N.am      6 UNK        -0.4439 
     40 CA         24.9278  -30.0313  -41.3577 C.3       6 UNK         0.0297 
     41 CB         24.6238  -31.2111  -42.2957 C.3       6 UNK        -0.2006 
     42 C          23.7045  -29.6416  -40.5181 C.2       6 UNK         0.4892 
     43 O          23.7450  -29.7979  -39.2972 O.2       6 UNK        -0.5089 
     44 N          22.6553  -29.1329  -41.1827 N.am      7 UNK        -0.4243 
     45 CA         21.3595  -28.6561  -40.6753 C.3       7 UNK         0.0196 
     46 CB         21.5314  -27.3957  -39.8078 C.3       7 UNK        -0.2007 
     47 C          20.5032  -29.7057  -39.9452 C.2       7 UNK         0.5020 
     48 O          19.3521  -29.9212  -40.3257 O.2       7 UNK        -0.5147 
     49 N          21.0658  -30.3281  -38.9035 N.am      8 UNK        -0.4734 
     50 CA         20.4075  -31.2657  -37.9869 C.3       8 UNK         0.0238 
     51 CB         21.3528  -31.5534  -36.8092 C.3       8 UNK        -0.1912 
     52 C          19.9403  -32.5797  -38.6366 C.2       8 UNK         0.5038 
     53 O          19.0993  -33.2675  -38.0559 O.2       8 UNK        -0.5046 
     54 N          20.4776  -32.8990  -39.8197 N.am      9 UNK        -0.4200 
     55 CA         20.0251  -33.9997  -40.6794 C.3       9 UNK         0.0839 
     56 C          18.6266  -33.7782  -41.3314 C.2       9 UNK         0.5513 
     57 N          18.0527  -32.5803  -41.2906 N.am      9 UNK        -0.7519 
     58 O          18.0517  -34.7167  -41.8763 O.2       9 UNK        -0.4960 
     59 C59        21.1113  -34.3833  -41.7186 C.3       10 UNK        -0.0876 
     60 S60        21.5343  -33.0238  -42.8664 S.3       10 UNK        -0.2414 
     61 C61        20.7614  -33.5952  -44.4117 C.3       10 UNK         0.0169 
     62 H62        16.2090  -27.7416  -38.1557 H         1 UNK         0.0903 
     63 H63        17.6030  -28.6827  -38.6809 H         1 UNK         0.0903 
     64 H64        17.8191  -27.0152  -38.1412 H         1 UNK         0.0903 
     65 H65        18.0817  -28.6726  -40.8804 H         1 UNK         0.3096 
     66 H66        16.4443  -27.1759  -42.7495 H         1 UNK         0.1121 
     67 H67        18.8339  -29.0653  -43.1586 H         1 UNK         0.0849 
     68 H68        17.9416  -28.3324  -44.4681 H         1 UNK         0.0849 
     69 H69        16.3199  -29.8959  -45.7659 H         1 UNK         0.0865 
     70 H70        16.0657  -31.5192  -45.1748 H         1 UNK         0.0865 
     71 H71        18.2335  -32.6688  -44.0778 H         1 UNK         0.1346 
     72 H72        21.8057  -31.9617  -46.3362 H         1 UNK         0.1412 
     73 H73        18.3483  -29.4997  -46.9621 H         1 UNK         0.1426 
     74 H74        20.4247  -30.0159  -48.7971 H         1 UNK         0.0716 
     75 H75        21.9322  -30.2241  -47.9394 H         1 UNK         0.0716 
     76 H76        22.9091  -28.4185  -46.1346 H         1 UNK         0.0695 
     77 H77        21.4488  -28.7115  -45.2157 H         1 UNK         0.0695 
     78 H78        22.4542  -25.9555  -46.0964 H         1 UNK         0.0983 
     79 H79        19.9350  -26.7518  -44.9099 H         1 UNK         0.3095 
     80 H80        18.9542  -23.7146  -43.6286 H         1 UNK         0.0454 
     81 H81        18.0302  -24.5024  -46.4453 H         1 UNK         0.0851 
     82 H82        18.6582  -22.9287  -45.9798 H         1 UNK         0.0851 
     83 H83        17.1380  -23.4892  -45.3086 H         1 UNK         0.0851 
     84 H84        17.3505  -25.8918  -44.5083 H         1 UNK         0.2976 
     85 H85        22.9218  -24.5414  -44.2562 H         1 UNK         0.3116 
     86 H86        23.3058  -25.1470  -41.6472 H         1 UNK         0.0646 
     87 H87        24.8783  -23.1255  -43.3261 H         1 UNK         0.0847 
     88 H88        24.7163  -23.0809  -41.5761 H         1 UNK         0.0847 
     89 H89        23.2989  -22.8603  -42.5859 H         1 UNK         0.0847 
     90 H90        25.4437  -26.2900  -44.0847 H         1 UNK         0.3040 
     91 H91        27.8131  -26.7206  -42.5045 H         1 UNK         0.1015 
     92 H92        27.8430  -26.7268  -44.9957 H         1 UNK         0.0786 
     93 H93        26.7799  -28.1354  -45.0271 H         1 UNK         0.0786 
     94 H94        28.4079  -28.2691  -44.3770 H         1 UNK         0.0786 
     95 H95        24.7070  -28.3049  -42.5752 H         1 UNK         0.3172 
     96 H96        25.6971  -30.3553  -40.6533 H         1 UNK         0.0595 
     97 H97        23.8844  -30.9505  -43.0540 H         1 UNK         0.0839 
     98 H98        24.2369  -32.0638  -41.7364 H         1 UNK         0.0839 
     99 H99        25.5239  -31.5456  -42.8115 H         1 UNK         0.0839 
    100 H100       22.7712  -28.9909  -42.1815 H         1 UNK         0.2998 
    101 H101       20.7950  -28.3607  -41.5612 H         1 UNK         0.0822 
    102 H102       22.0144  -26.5983  -40.3700 H         1 UNK         0.0787 
    103 H103       20.5629  -27.0143  -39.4808 H         1 UNK         0.0787 
    104 H104       22.1276  -27.5869  -38.9153 H         1 UNK         0.0787 
    105 H105       22.0483  -30.1216  -38.7292 H         1 UNK         0.3055 
    106 H106       19.5135  -30.7723  -37.5995 H         1 UNK         0.1106 
    107 H107       20.8883  -32.2274  -36.0878 H         1 UNK         0.0828 
    108 H108       21.6110  -30.6389  -36.2749 H         1 UNK         0.0828 
    109 H109       22.2804  -32.0204  -37.1429 H         1 UNK         0.0828 
    110 H110       21.1419  -32.2607  -40.2311 H         1 UNK         0.2931 
    111 H111       19.9033  -34.8682  -40.0291 H         1 UNK         0.0412 
    112 H112       18.5337  -31.7881  -40.8826 H         1 UNK         0.3472 
    113 H113       17.1505  -32.4467  -41.7176 H         1 UNK         0.3472 
    114 H114       22.0251  -34.6691  -41.1956 H         1 UNK         0.0970 
    115 H115       20.8138  -35.2746  -42.2736 H         1 UNK         0.0970 
    116 H116       21.5212  -34.0575  -45.0435 H         1 UNK         0.0612 
    117 H117       20.0192  -34.3683  -44.2080 H         1 UNK         0.0612 
@<TRIPOS>BOND
     1    1    2 1    
     2    1   62 1    
     3    1   63 1    
     4    1   64 1    
     5    2    3 2    
     6    2    4 am   BACKBONE|DICT|INTERRES
     7    4    5 1    
     8    4   65 1    
     9    5    6 1    
    10    5   25 1    
    11    5   66 1    
    12    6    7 1    
    13    6   67 1    
    14    6   68 1    
    15    7    8 1    
    16    8    9 1    
    17    8   69 1    
    18    8   70 1    
    19    9   10 ar   
    20    9   14 ar   
    21   10   11 ar   
    22   10   71 1    
    23   11   12 ar   
    24   11   61 1    
    25   12   13 ar   
    26   12   72 1    
    27   13   14 ar   
    28   13   15 1    
    29   14   73 1    
    30   15   16 1    
    31   15   74 1    
    32   15   75 1    
    33   16   17 1    
    34   17   18 1    
    35   17   76 1    
    36   17   77 1    
    37   18   19 1    
    38   18   27 1    
    39   18   78 1    
    40   19   20 am   BACKBONE|DICT|INTERRES
    41   19   79 1    
    42   20   21 2    
    43   20   22 1    
    44   22   23 1    
    45   22   24 1    
    46   22   80 1    
    47   23   81 1    
    48   23   82 1    
    49   23   83 1    
    50   24   25 am   BACKBONE|DICT|INTERRES
    51   24   84 1    
    52   25   26 2    
    53   27   28 2    
    54   27   29 am   BACKBONE|DICT|INTERRES
    55   29   30 1    
    56   29   85 1    
    57   30   31 1    
    58   30   32 1    
    59   30   86 1    
    60   31   87 1    
    61   31   88 1    
    62   31   89 1    
    63   32   33 2    
    64   32   34 am   BACKBONE|DICT|INTERRES
    65   34   35 1    
    66   34   90 1    
    67   35   36 1    
    68   35   37 1    
    69   35   91 1    
    70   36   92 1    
    71   36   93 1    
    72   36   94 1    
    73   37   38 2    
    74   37   39 am   BACKBONE|DICT|INTERRES
    75   39   40 1    
    76   39   95 1    
    77   40   41 1    
    78   40   42 1    
    79   40   96 1    
    80   41   97 1    
    81   41   98 1    
    82   41   99 1    
    83   42   43 2    
    84   42   44 am   BACKBONE|DICT|INTERRES
    85   44   45 1    
    86   44  100 1    
    87   45   46 1    
    88   45   47 1    
    89   45  101 1    
    90   46  102 1    
    91   46  103 1    
    92   46  104 1    
    93   47   48 2    
    94   47   49 am   BACKBONE|DICT|INTERRES
    95   49   50 1    
    96   49  105 1    
    97   50   51 1    
    98   50   52 1    
    99   50  106 1    
   100   51  107 1    
   101   51  108 1    
   102   51  109 1    
   103   52   53 2    
   104   52   54 am   BACKBONE|DICT|INTERRES
   105   54   55 1    
   106   54  110 1    
   107   55   56 1    
   108   55   59 1    
   109   55  111 1    
   110   56   57 am   BACKBONE|DICT|INTERRES
   111   56   58 2    
   112   57  112 1    
   113   57  113 1    
   114   59   60 1    
   115   59  114 1    
   116   59  115 1    
   117   60   61 1    
   118   61  116 1    
   119   61  117 1    
@<TRIPOS>SUBSTRUCTURE
     1 UNK         1 GROUP             0       ****    0 ROOT    
