@<TRIPOS>MOLECULE
3R8
117   119    1
SMALL
USER_CHARGES


@<TRIPOS>ATOM
      1 CA         18.4512  -25.6323  -39.4067 C.3       0 UNK        -0.2013 
      2 C          17.9157  -25.2960  -40.7901 C.2       0 UNK         0.4866 
      3 O          17.5976  -24.1384  -41.0621 O.2       0 UNK        -0.5176 
      4 N          17.8165  -26.3018  -41.6694 N.am      1 UNK        -0.4884 
      5 CA         17.3348  -26.1699  -43.0530 C.3       1 UNK         0.0853 
      6 C6         16.7472  -27.5141  -43.5553 C.3       10 UNK        -0.0849 
      7 S7         15.4190  -27.3129  -44.8036 S.3       10 UNK        -0.2776 
      8 C8         14.9735  -29.0404  -45.2167 C.3       10 UNK         0.0316 
      9 C9         16.2098  -29.9137  -45.3566 C.ar      10 UNK        -0.0863 
     10 C10        16.5272  -30.8388  -44.3599 C.ar      10 UNK        -0.1009 
     11 C11        17.7684  -31.4807  -44.3601 C.ar      10 UNK        -0.0712 
     12 C12        18.6761  -31.2230  -45.3916 C.ar      10 UNK        -0.0894 
     13 C13        18.3531  -30.3263  -46.4137 C.ar      10 UNK        -0.0745 
     14 C14        17.1056  -29.6955  -46.4054 C.ar      10 UNK        -0.0972 
     15 C15        19.3715  -29.9766  -47.4875 C.3       10 UNK         0.0209 
     16 S16        19.8201  -28.2126  -47.3878 S.3       10 UNK        -0.2568 
     17 C17        21.6283  -28.2405  -47.1462 C.3       10 UNK        -0.0983 
     18 CA         22.1228  -28.0308  -45.6829 C.3       3 UNK         0.0876 
     19 N          21.4191  -26.9860  -44.9394 N.am      3 UNK        -0.4424 
     20 C          21.5046  -25.6723  -45.1703 C.2       2 UNK         0.4918 
     21 O          22.1641  -25.1879  -46.0917 O.2       2 UNK        -0.4875 
     22 CA         20.7803  -24.7365  -44.1827 C.3       2 UNK         0.0481 
     23 CB         20.4381  -23.3576  -44.7889 C.3       2 UNK        -0.1831 
     24 N          19.6290  -25.3507  -43.5100 N.am      2 UNK        -0.4498 
     25 C          18.4069  -25.5894  -44.0148 C.2       1 UNK         0.5027 
     26 O          18.0996  -25.3457  -45.1818 O.2       1 UNK        -0.4969 
     27 C          22.1607  -29.3132  -44.8318 C.2       3 UNK         0.5005 
     28 O          21.5415  -29.3588  -43.7641 O.2       3 UNK        -0.5279 
     29 N          22.9423  -30.3000  -45.2978 N.am      4 UNK        -0.4463 
     30 CA         23.3685  -31.5148  -44.5892 C.3       4 UNK         0.0283 
     31 CB         22.1702  -32.4147  -44.2124 C.3       4 UNK        -0.1875 
     32 C          24.3241  -31.2031  -43.4175 C.2       4 UNK         0.4949 
     33 O          24.8970  -30.1108  -43.3686 O.2       4 UNK        -0.5039 
     34 N          24.5406  -32.1880  -42.5338 N.am      5 UNK        -0.4663 
     35 CA         25.4981  -32.1392  -41.4240 C.3       5 UNK         0.0242 
     36 CB         25.4742  -33.4760  -40.6669 C.3       5 UNK        -0.1982 
     37 C          25.2472  -30.9565  -40.4737 C.2       5 UNK         0.5017 
     38 O          24.1211  -30.7791  -40.0020 O.2       5 UNK        -0.5012 
     39 N          26.2918  -30.1426  -40.2614 N.am      6 UNK        -0.4439 
     40 CA         26.3027  -28.8940  -39.4838 C.3       6 UNK         0.0297 
     41 CB         26.0854  -29.1937  -37.9848 C.3       6 UNK        -0.2006 
     42 C          25.3282  -27.8108  -40.0002 C.2       6 UNK         0.4892 
     43 O          25.0294  -26.8745  -39.2581 O.2       6 UNK        -0.5089 
     44 N          24.8341  -27.9668  -41.2412 N.am      7 UNK        -0.4243 
     45 CA         23.7671  -27.1902  -41.8846 C.3       7 UNK         0.0196 
     46 CB         24.2049  -25.7244  -42.0849 C.3       7 UNK        -0.2007 
     47 C          22.3991  -27.3166  -41.1756 C.2       7 UNK         0.5020 
     48 O          21.5232  -26.4767  -41.3933 O.2       7 UNK        -0.5147 
     49 N          22.2315  -28.3516  -40.3404 N.am      8 UNK        -0.4734 
     50 CA         21.0736  -28.5386  -39.4660 C.3       8 UNK         0.0238 
     51 CB         21.3364  -27.8444  -38.1152 C.3       8 UNK        -0.1912 
     52 C          20.6961  -30.0200  -39.3091 C.2       8 UNK         0.5038 
     53 O          20.0842  -30.3823  -38.3026 O.2       8 UNK        -0.5046 
     54 N          21.0379  -30.8405  -40.3117 N.am      9 UNK        -0.4200 
     55 CA         20.6808  -32.2680  -40.4179 C.3       9 UNK         0.0839 
     56 C          21.3472  -33.1852  -39.3478 C.2       9 UNK         0.5513 
     57 N          22.4661  -32.7923  -38.7541 N.am      9 UNK        -0.7519 
     58 O          20.8588  -34.2765  -39.0641 O.2       9 UNK        -0.4960 
     59 C59        19.1442  -32.5096  -40.5306 C.3       10 UNK        -0.0876 
     60 S60        18.3142  -31.3676  -41.6857 S.3       10 UNK        -0.2414 
     61 C61        18.1569  -32.3724  -43.1919 C.3       10 UNK         0.0169 
     62 H62        19.5187  -25.4177  -39.3564 H         1 UNK         0.0903 
     63 H63        17.9464  -25.0337  -38.6486 H         1 UNK         0.0903 
     64 H64        18.2967  -26.6822  -39.1591 H         1 UNK         0.0903 
     65 H65        18.1002  -27.2313  -41.3934 H         1 UNK         0.3096 
     66 H66        16.5225  -25.4392  -43.0388 H         1 UNK         0.1121 
     67 H67        17.5479  -28.1448  -43.9459 H         1 UNK         0.0849 
     68 H68        16.3084  -28.0713  -42.7257 H         1 UNK         0.0849 
     69 H69        14.3101  -29.4304  -44.4431 H         1 UNK         0.0865 
     70 H70        14.4041  -29.0551  -46.1470 H         1 UNK         0.0865 
     71 H71        15.8483  -30.9964  -43.5327 H         1 UNK         0.1346 
     72 H72        19.6492  -31.6879  -45.3781 H         1 UNK         0.1412 
     73 H73        16.8714  -28.9618  -47.1651 H         1 UNK         0.1426 
     74 H74        18.9446  -30.1811  -48.4702 H         1 UNK         0.0716 
     75 H75        20.2591  -30.6042  -47.3984 H         1 UNK         0.0716 
     76 H76        22.0209  -27.4258  -47.7562 H         1 UNK         0.0695 
     77 H77        22.0490  -29.1414  -47.5944 H         1 UNK         0.0695 
     78 H78        23.1659  -27.7107  -45.7398 H         1 UNK         0.0983 
     79 H79        20.8984  -27.3296  -44.1419 H         1 UNK         0.3095 
     80 H80        21.4922  -24.5442  -43.3820 H         1 UNK         0.0454 
     81 H81        19.9168  -22.7246  -44.0710 H         1 UNK         0.0851 
     82 H82        19.8138  -23.4460  -45.6781 H         1 UNK         0.0851 
     83 H83        21.3441  -22.8285  -45.0864 H         1 UNK         0.0851 
     84 H84        19.8012  -25.6224  -42.5485 H         1 UNK         0.2976 
     85 H85        23.4309  -30.1350  -46.1669 H         1 UNK         0.3116 
     86 H86        23.9727  -32.0741  -45.3049 H         1 UNK         0.0646 
     87 H87        22.4843  -33.3434  -43.7366 H         1 UNK         0.0847 
     88 H88        21.4777  -31.9160  -43.5359 H         1 UNK         0.0847 
     89 H89        21.6184  -32.7057  -45.1048 H         1 UNK         0.0847 
     90 H90        24.0322  -33.0524  -42.6449 H         1 UNK         0.3040 
     91 H91        26.4907  -32.0238  -41.8649 H         1 UNK         0.1015 
     92 H92        26.1375  -33.4500  -39.8010 H         1 UNK         0.0786 
     93 H93        25.8073  -34.2963  -41.3029 H         1 UNK         0.0786 
     94 H94        24.4758  -33.7205  -40.3064 H         1 UNK         0.0786 
     95 H95        27.1654  -30.3669  -40.7189 H         1 UNK         0.3172 
     96 H96        27.3037  -28.4752  -39.5966 H         1 UNK         0.0595 
     97 H97        25.0724  -29.5447  -37.7847 H         1 UNK         0.0839 
     98 H98        26.2436  -28.3011  -37.3783 H         1 UNK         0.0839 
     99 H99        26.7805  -29.9525  -37.6257 H         1 UNK         0.0839 
    100 H100       25.1351  -28.7779  -41.7725 H         1 UNK         0.2998 
    101 H101       23.6367  -27.6309  -42.8725 H         1 UNK         0.0822 
    102 H102       23.5333  -25.2032  -42.7634 H         1 UNK         0.0787 
    103 H103       25.2034  -25.6631  -42.5174 H         1 UNK         0.0787 
    104 H104       24.2106  -25.1709  -41.1454 H         1 UNK         0.0787 
    105 H105       22.9858  -29.0232  -40.2314 H         1 UNK         0.3055 
    106 H106       20.2019  -28.0719  -39.9271 H         1 UNK         0.1106 
    107 H107       21.5595  -26.7859  -38.2496 H         1 UNK         0.0828 
    108 H108       20.4669  -27.9082  -37.4599 H         1 UNK         0.0828 
    109 H109       22.1784  -28.2988  -37.5918 H         1 UNK         0.0828 
    110 H110       21.5376  -30.4508  -41.0982 H         1 UNK         0.2931 
    111 H111       21.1185  -32.5962  -41.3594 H         1 UNK         0.0412 
    112 H112       22.9252  -31.9361  -39.0502 H         1 UNK         0.3472 
    113 H113       22.8939  -33.3833  -38.0601 H         1 UNK         0.3472 
    114 H114       18.9391  -33.5381  -40.8329 H         1 UNK         0.0970 
    115 H115       18.6729  -32.3871  -39.5539 H         1 UNK         0.0970 
    116 H116       19.1003  -32.8834  -43.3899 H         1 UNK         0.0612 
    117 H117       17.3999  -33.1435  -43.0429 H         1 UNK         0.0612 
@<TRIPOS>BOND
     1    1    2 1    
     2    1   62 1    
     3    1   63 1    
     4    1   64 1    
     5    2    3 2    
     6    2    4 am   BACKBONE|DICT|INTERRES
     7    4    5 1    
     8    4   65 1    
     9    5    6 1    
    10    5   25 1    
    11    5   66 1    
    12    6    7 1    
    13    6   67 1    
    14    6   68 1    
    15    7    8 1    
    16    8    9 1    
    17    8   69 1    
    18    8   70 1    
    19    9   10 ar   
    20    9   14 ar   
    21   10   11 ar   
    22   10   71 1    
    23   11   12 ar   
    24   11   61 1    
    25   12   13 ar   
    26   12   72 1    
    27   13   14 ar   
    28   13   15 1    
    29   14   73 1    
    30   15   16 1    
    31   15   74 1    
    32   15   75 1    
    33   16   17 1    
    34   17   18 1    
    35   17   76 1    
    36   17   77 1    
    37   18   19 1    
    38   18   27 1    
    39   18   78 1    
    40   19   20 am   BACKBONE|DICT|INTERRES
    41   19   79 1    
    42   20   21 2    
    43   20   22 1    
    44   22   23 1    
    45   22   24 1    
    46   22   80 1    
    47   23   81 1    
    48   23   82 1    
    49   23   83 1    
    50   24   25 am   BACKBONE|DICT|INTERRES
    51   24   84 1    
    52   25   26 2    
    53   27   28 2    
    54   27   29 am   BACKBONE|DICT|INTERRES
    55   29   30 1    
    56   29   85 1    
    57   30   31 1    
    58   30   32 1    
    59   30   86 1    
    60   31   87 1    
    61   31   88 1    
    62   31   89 1    
    63   32   33 2    
    64   32   34 am   BACKBONE|DICT|INTERRES
    65   34   35 1    
    66   34   90 1    
    67   35   36 1    
    68   35   37 1    
    69   35   91 1    
    70   36   92 1    
    71   36   93 1    
    72   36   94 1    
    73   37   38 2    
    74   37   39 am   BACKBONE|DICT|INTERRES
    75   39   40 1    
    76   39   95 1    
    77   40   41 1    
    78   40   42 1    
    79   40   96 1    
    80   41   97 1    
    81   41   98 1    
    82   41   99 1    
    83   42   43 2    
    84   42   44 am   BACKBONE|DICT|INTERRES
    85   44   45 1    
    86   44  100 1    
    87   45   46 1    
    88   45   47 1    
    89   45  101 1    
    90   46  102 1    
    91   46  103 1    
    92   46  104 1    
    93   47   48 2    
    94   47   49 am   BACKBONE|DICT|INTERRES
    95   49   50 1    
    96   49  105 1    
    97   50   51 1    
    98   50   52 1    
    99   50  106 1    
   100   51  107 1    
   101   51  108 1    
   102   51  109 1    
   103   52   53 2    
   104   52   54 am   BACKBONE|DICT|INTERRES
   105   54   55 1    
   106   54  110 1    
   107   55   56 1    
   108   55   59 1    
   109   55  111 1    
   110   56   57 am   BACKBONE|DICT|INTERRES
   111   56   58 2    
   112   57  112 1    
   113   57  113 1    
   114   59   60 1    
   115   59  114 1    
   116   59  115 1    
   117   60   61 1    
   118   61  116 1    
   119   61  117 1    
@<TRIPOS>SUBSTRUCTURE
     1 UNK         1 GROUP             0       ****    0 ROOT    
