@<TRIPOS>MOLECULE
3R8
117   119    1
SMALL
USER_CHARGES


@<TRIPOS>ATOM
      1 CA         19.2205  -23.3606  -40.5221 C.3       0 UNK        -0.2013 
      2 C          18.6847  -23.5619  -41.9317 C.2       0 UNK         0.4866 
      3 O          18.1043  -22.6392  -42.5052 O.2       0 UNK        -0.5176 
      4 N          18.8640  -24.7649  -42.4875 N.am      1 UNK        -0.4884 
      5 CA         18.4498  -25.1291  -43.8454 C.3       1 UNK         0.0853 
      6 C6         18.1948  -26.6533  -43.9653 C.3       10 UNK        -0.0849 
      7 S7         16.8408  -27.2201  -42.8819 S.3       10 UNK        -0.2776 
      8 C8         16.0707  -28.5139  -43.9087 C.3       10 UNK         0.0316 
      9 C9         17.0335  -29.6604  -44.1856 C.ar      10 UNK        -0.0863 
     10 C10        17.3766  -30.5476  -43.1622 C.ar      10 UNK        -0.1009 
     11 C11        18.2653  -31.5989  -43.4014 C.ar      10 UNK        -0.0712 
     12 C12        18.8201  -31.7557  -44.6754 C.ar      10 UNK        -0.0894 
     13 C13        18.4793  -30.8799  -45.7126 C.ar      10 UNK        -0.0745 
     14 C14        17.5772  -29.8395  -45.4615 C.ar      10 UNK        -0.0972 
     15 C15        19.0632  -31.0870  -47.1078 C.3       10 UNK         0.0209 
     16 S16        19.7617  -29.5691  -47.8405 S.3       10 UNK        -0.2568 
     17 C17        21.1227  -29.2093  -46.6836 C.3       10 UNK        -0.0983 
     18 CA         21.8211  -27.8601  -46.9886 C.3       3 UNK         0.0876 
     19 N          20.8807  -26.7357  -46.9971 N.am      3 UNK        -0.4424 
     20 C          21.1498  -25.5006  -47.4440 C.2       2 UNK         0.4918 
     21 O          22.2192  -25.1718  -47.9577 O.2       2 UNK        -0.4875 
     22 CA         20.0343  -24.4472  -47.2903 C.3       2 UNK         0.0481 
     23 CB         19.2108  -24.3486  -48.5843 C.3       2 UNK        -0.1831 
     24 N          19.1353  -24.7093  -46.1599 N.am      2 UNK        -0.4498 
     25 C          19.5089  -24.6769  -44.8720 C.2       1 UNK         0.5027 
     26 O          20.6425  -24.3569  -44.5043 O.2       1 UNK        -0.4969 
     27 C          22.9730  -27.6185  -45.9937 C.2       3 UNK         0.5005 
     28 O          24.1399  -27.7534  -46.3654 O.2       3 UNK        -0.5279 
     29 N          22.6134  -27.2559  -44.7562 N.am      4 UNK        -0.4463 
     30 CA         23.4889  -26.9759  -43.6230 C.3       4 UNK         0.0283 
     31 CB         24.2705  -28.2372  -43.2000 C.3       4 UNK        -0.1875 
     32 C          22.6120  -26.4960  -42.4611 C.2       4 UNK         0.4949 
     33 O          21.3996  -26.7326  -42.4631 O.2       4 UNK        -0.5039 
     34 N          23.2406  -25.8885  -41.4477 N.am      5 UNK        -0.4663 
     35 CA         22.6025  -25.4362  -40.2056 C.3       5 UNK         0.0242 
     36 CB         23.4881  -24.3580  -39.5539 C.3       5 UNK        -0.1982 
     37 C          22.2870  -26.6078  -39.2501 C.2       5 UNK         0.5017 
     38 O          22.7721  -26.6302  -38.1184 O.2       5 UNK        -0.5012 
     39 N          21.5120  -27.5803  -39.7519 N.am      6 UNK        -0.4439 
     40 CA         21.0949  -28.8415  -39.1220 C.3       6 UNK         0.0297 
     41 CB         20.2438  -28.5798  -37.8620 C.3       6 UNK        -0.2006 
     42 C          22.2415  -29.8408  -38.8529 C.2       6 UNK         0.4892 
     43 O          22.0163  -30.8497  -38.1815 O.2       6 UNK        -0.5089 
     44 N          23.4418  -29.5726  -39.3858 N.am      7 UNK        -0.4243 
     45 CA         24.5992  -30.4623  -39.3072 C.3       7 UNK         0.0196 
     46 CB         25.8738  -29.6856  -39.6731 C.3       7 UNK        -0.2007 
     47 C          24.4109  -31.6724  -40.2339 C.2       7 UNK         0.5020 
     48 O          23.9422  -31.5069  -41.3611 O.2       7 UNK        -0.5147 
     49 N          24.7824  -32.8584  -39.7335 N.am      8 UNK        -0.4734 
     50 CA         24.6775  -34.1767  -40.3807 C.3       8 UNK         0.0238 
     51 CB         25.5122  -34.2320  -41.6788 C.3       8 UNK        -0.1912 
     52 C          23.2343  -34.6837  -40.5961 C.2       8 UNK         0.5038 
     53 O          23.0589  -35.7217  -41.2367 O.2       8 UNK        -0.5046 
     54 N          22.2349  -33.9865  -40.0382 N.am      9 UNK        -0.4200 
     55 CA         20.8196  -34.3918  -40.0497 C.3       9 UNK         0.0839 
     56 C          20.4709  -35.5196  -39.0341 C.2       9 UNK         0.5513 
     57 N          21.3523  -35.8894  -38.1120 N.am      9 UNK        -0.7519 
     58 O          19.3777  -36.0768  -39.0907 O.2       9 UNK        -0.4960 
     59 C59        19.8729  -33.1763  -39.8734 C.3       10 UNK        -0.0876 
     60 S60        19.9756  -31.9923  -41.2588 S.3       10 UNK        -0.2414 
     61 C61        18.5945  -32.5786  -42.2864 C.3       10 UNK         0.0169 
     62 H62        19.3605  -24.3099  -40.0056 H         1 UNK         0.0903 
     63 H63        20.1749  -22.8356  -40.5533 H         1 UNK         0.0903 
     64 H64        18.5227  -22.7637  -39.9352 H         1 UNK         0.0903 
     65 H65        19.4103  -25.4690  -42.0102 H         1 UNK         0.3096 
     66 H66        17.5208  -24.6046  -44.0816 H         1 UNK         0.1121 
     67 H67        19.0916  -27.2248  -43.7190 H         1 UNK         0.0849 
     68 H68        17.9403  -26.9173  -44.9928 H         1 UNK         0.0849 
     69 H69        15.1906  -28.8992  -43.3918 H         1 UNK         0.0865 
     70 H70        15.7076  -28.0732  -44.8385 H         1 UNK         0.0865 
     71 H71        16.9528  -30.4164  -42.1757 H         1 UNK         0.1346 
     72 H72        19.5074  -32.5700  -44.8601 H         1 UNK         0.1412 
     73 H73        17.3045  -29.1657  -46.2622 H         1 UNK         0.1426 
     74 H74        18.2744  -31.4592  -47.7626 H         1 UNK         0.0716 
     75 H75        19.8391  -31.8541  -47.0941 H         1 UNK         0.0716 
     76 H76        21.8395  -30.0312  -46.7377 H         1 UNK         0.0695 
     77 H77        20.7238  -29.2144  -45.6671 H         1 UNK         0.0695 
     78 H78        22.2620  -27.9263  -47.9860 H         1 UNK         0.0983 
     79 H79        19.9581  -26.9267  -46.6400 H         1 UNK         0.3095 
     80 H80        20.5149  -23.4816  -47.1193 H         1 UNK         0.0454 
     81 H81        19.8522  -24.1250  -49.4380 H         1 UNK         0.0851 
     82 H82        18.4683  -23.5527  -48.5241 H         1 UNK         0.0851 
     83 H83        18.6893  -25.2807  -48.8056 H         1 UNK         0.0851 
     84 H84        18.1835  -24.9583  -46.3904 H         1 UNK         0.2976 
     85 H85        21.6330  -27.1320  -44.5343 H         1 UNK         0.3116 
     86 H86        24.1799  -26.1782  -43.9017 H         1 UNK         0.0646 
     87 H87        23.6021  -29.0503  -42.9118 H         1 UNK         0.0847 
     88 H88        24.9174  -28.6051  -43.9957 H         1 UNK         0.0847 
     89 H89        24.9156  -28.0258  -42.3482 H         1 UNK         0.0847 
     90 H90        24.2402  -25.7546  -41.5096 H         1 UNK         0.3040 
     91 H91        21.6505  -24.9684  -40.4598 H         1 UNK         0.1015 
     92 H92        23.0241  -23.9658  -38.6478 H         1 UNK         0.0786 
     93 H93        23.6440  -23.5135  -40.2255 H         1 UNK         0.0786 
     94 H94        24.4666  -24.7516  -39.2756 H         1 UNK         0.0786 
     95 H95        21.2222  -27.4605  -40.7207 H         1 UNK         0.3172 
     96 H96        20.4480  -29.3280  -39.8529 H         1 UNK         0.0595 
     97 H97        20.8370  -28.1538  -37.0525 H         1 UNK         0.0839 
     98 H98        19.8052  -29.5057  -37.4878 H         1 UNK         0.0839 
     99 H99        19.4210  -27.8969  -38.0729 H         1 UNK         0.0839 
    100 H100       23.5383  -28.7426  -39.9495 H         1 UNK         0.2998 
    101 H101       24.6921  -30.8073  -38.2749 H         1 UNK         0.0822 
    102 H102       26.7591  -30.3068  -39.5313 H         1 UNK         0.0787 
    103 H103       25.8696  -29.3660  -40.7147 H         1 UNK         0.0787 
    104 H104       25.9958  -28.8007  -39.0478 H         1 UNK         0.0787 
    105 H105       25.1529  -32.8753  -38.7921 H         1 UNK         0.3055 
    106 H106       25.1265  -34.8843  -39.6815 H         1 UNK         0.1106 
    107 H107       26.5336  -33.8912  -41.5101 H         1 UNK         0.0828 
    108 H108       25.5729  -35.2513  -42.0622 H         1 UNK         0.0828 
    109 H109       25.0787  -33.6180  -42.4686 H         1 UNK         0.0828 
    110 H110       22.4528  -33.1356  -39.5399 H         1 UNK         0.2931 
    111 H111       20.6106  -34.8173  -41.0333 H         1 UNK         0.0412 
    112 H112       21.1112  -36.6246  -37.4656 H         1 UNK         0.3472 
    113 H113       22.2507  -35.4385  -38.0504 H         1 UNK         0.3472 
    114 H114       18.8358  -33.5003  -39.7677 H         1 UNK         0.0970 
    115 H115       20.1075  -32.6461  -38.9490 H         1 UNK         0.0970 
    116 H116       18.8453  -33.5566  -42.7000 H         1 UNK         0.0612 
    117 H117       17.7100  -32.7245  -41.6645 H         1 UNK         0.0612 
@<TRIPOS>BOND
     1    1    2 1    
     2    1   62 1    
     3    1   63 1    
     4    1   64 1    
     5    2    3 2    
     6    2    4 am   BACKBONE|DICT|INTERRES
     7    4    5 1    
     8    4   65 1    
     9    5    6 1    
    10    5   25 1    
    11    5   66 1    
    12    6    7 1    
    13    6   67 1    
    14    6   68 1    
    15    7    8 1    
    16    8    9 1    
    17    8   69 1    
    18    8   70 1    
    19    9   10 ar   
    20    9   14 ar   
    21   10   11 ar   
    22   10   71 1    
    23   11   12 ar   
    24   11   61 1    
    25   12   13 ar   
    26   12   72 1    
    27   13   14 ar   
    28   13   15 1    
    29   14   73 1    
    30   15   16 1    
    31   15   74 1    
    32   15   75 1    
    33   16   17 1    
    34   17   18 1    
    35   17   76 1    
    36   17   77 1    
    37   18   19 1    
    38   18   27 1    
    39   18   78 1    
    40   19   20 am   BACKBONE|DICT|INTERRES
    41   19   79 1    
    42   20   21 2    
    43   20   22 1    
    44   22   23 1    
    45   22   24 1    
    46   22   80 1    
    47   23   81 1    
    48   23   82 1    
    49   23   83 1    
    50   24   25 am   BACKBONE|DICT|INTERRES
    51   24   84 1    
    52   25   26 2    
    53   27   28 2    
    54   27   29 am   BACKBONE|DICT|INTERRES
    55   29   30 1    
    56   29   85 1    
    57   30   31 1    
    58   30   32 1    
    59   30   86 1    
    60   31   87 1    
    61   31   88 1    
    62   31   89 1    
    63   32   33 2    
    64   32   34 am   BACKBONE|DICT|INTERRES
    65   34   35 1    
    66   34   90 1    
    67   35   36 1    
    68   35   37 1    
    69   35   91 1    
    70   36   92 1    
    71   36   93 1    
    72   36   94 1    
    73   37   38 2    
    74   37   39 am   BACKBONE|DICT|INTERRES
    75   39   40 1    
    76   39   95 1    
    77   40   41 1    
    78   40   42 1    
    79   40   96 1    
    80   41   97 1    
    81   41   98 1    
    82   41   99 1    
    83   42   43 2    
    84   42   44 am   BACKBONE|DICT|INTERRES
    85   44   45 1    
    86   44  100 1    
    87   45   46 1    
    88   45   47 1    
    89   45  101 1    
    90   46  102 1    
    91   46  103 1    
    92   46  104 1    
    93   47   48 2    
    94   47   49 am   BACKBONE|DICT|INTERRES
    95   49   50 1    
    96   49  105 1    
    97   50   51 1    
    98   50   52 1    
    99   50  106 1    
   100   51  107 1    
   101   51  108 1    
   102   51  109 1    
   103   52   53 2    
   104   52   54 am   BACKBONE|DICT|INTERRES
   105   54   55 1    
   106   54  110 1    
   107   55   56 1    
   108   55   59 1    
   109   55  111 1    
   110   56   57 am   BACKBONE|DICT|INTERRES
   111   56   58 2    
   112   57  112 1    
   113   57  113 1    
   114   59   60 1    
   115   59  114 1    
   116   59  115 1    
   117   60   61 1    
   118   61  116 1    
   119   61  117 1    
@<TRIPOS>SUBSTRUCTURE
     1 UNK         1 GROUP             0       ****    0 ROOT    
