@<TRIPOS>MOLECULE
3R8
117   119    1
SMALL
USER_CHARGES


@<TRIPOS>ATOM
      1 CA         15.2342  -24.2149  -46.4370 C.3       0 UNK        -0.2013 
      2 C          16.1041  -25.3388  -45.8952 C.2       0 UNK         0.4866 
      3 O          17.2784  -25.1164  -45.5981 O.2       0 UNK        -0.5176 
      4 N          15.5381  -26.5444  -45.7549 N.am      1 UNK        -0.4884 
      5 CA         16.2087  -27.7519  -45.2553 C.3       1 UNK         0.0853 
      6 C6         15.5112  -29.0398  -45.7648 C.3       10 UNK        -0.0849 
      7 S7         15.9582  -29.3552  -47.5043 S.3       10 UNK        -0.2776 
      8 C8         17.2563  -30.6265  -47.3227 C.3       10 UNK         0.0316 
      9 C9         18.3778  -30.1972  -46.3816 C.ar      10 UNK        -0.0863 
     10 C10        18.4677  -30.7477  -45.0982 C.ar      10 UNK        -0.1009 
     11 C11        19.4976  -30.3714  -44.2315 C.ar      10 UNK        -0.0712 
     12 C12        20.4568  -29.4544  -44.6693 C.ar      10 UNK        -0.0894 
     13 C13        20.3603  -28.8664  -45.9330 C.ar      10 UNK        -0.0745 
     14 C14        19.3227  -29.2499  -46.7898 C.ar      10 UNK        -0.0972 
     15 C15        21.3791  -27.8261  -46.3771 C.3       10 UNK         0.0209 
     16 S16        21.0408  -26.1865  -45.6517 S.3       10 UNK        -0.2568 
     17 C17        21.9783  -26.2553  -44.0859 C.3       10 UNK        -0.0983 
     18 CA         21.2056  -25.6912  -42.8660 C.3       3 UNK         0.0876 
     19 N          19.8791  -26.2966  -42.6887 N.am      3 UNK        -0.4424 
     20 C          18.9437  -25.8476  -41.8363 C.2       2 UNK         0.4918 
     21 O          19.1116  -24.8883  -41.0820 O.2       2 UNK        -0.4875 
     22 CA         17.5856  -26.5659  -41.8684 C.3       2 UNK         0.0481 
     23 CB         16.4792  -25.8124  -41.1028 C.3       2 UNK        -0.1831 
     24 N          17.1917  -26.7696  -43.2577 N.am      2 UNK        -0.4498 
     25 C          16.3727  -27.7165  -43.7220 C.2       1 UNK         0.5027 
     26 O          15.7666  -28.5148  -43.0047 O.2       1 UNK        -0.4969 
     27 C          22.0795  -25.8038  -41.6000 C.2       3 UNK         0.5005 
     28 O          22.8329  -24.8749  -41.3038 O.2       3 UNK        -0.5279 
     29 N          21.9698  -26.9415  -40.8931 N.am      4 UNK        -0.4463 
     30 CA         22.6532  -27.3357  -39.6513 C.3       4 UNK         0.0283 
     31 CB         22.2914  -26.3952  -38.4863 C.3       4 UNK        -0.1875 
     32 C          24.1785  -27.5029  -39.7787 C.2       4 UNK         0.4949 
     33 O          24.7022  -28.5529  -39.4092 O.2       4 UNK        -0.5039 
     34 N          24.8653  -26.4932  -40.3275 N.am      5 UNK        -0.4663 
     35 CA         26.3138  -26.4680  -40.5673 C.3       5 UNK         0.0242 
     36 CB         26.7258  -25.0508  -40.9959 C.3       5 UNK        -0.1982 
     37 C          26.7848  -27.5035  -41.6048 C.2       5 UNK         0.5017 
     38 O          27.9430  -27.9184  -41.5666 O.2       5 UNK        -0.5012 
     39 N          25.8688  -27.9210  -42.4884 N.am      6 UNK        -0.4439 
     40 CA         26.0503  -29.0022  -43.4592 C.3       6 UNK         0.0297 
     41 CB         25.0162  -28.8240  -44.5851 C.3       6 UNK        -0.2006 
     42 C          25.9264  -30.4113  -42.8407 C.2       6 UNK         0.4892 
     43 O          26.1279  -31.3880  -43.5639 O.2       6 UNK        -0.5089 
     44 N          25.5748  -30.4958  -41.5463 N.am      7 UNK        -0.4243 
     45 CA         25.1796  -31.6965  -40.8028 C.3       7 UNK         0.0196 
     46 CB         26.3170  -32.7429  -40.7574 C.3       7 UNK        -0.2007 
     47 C          23.8357  -32.2480  -41.3174 C.2       7 UNK         0.5020 
     48 O          23.0396  -31.4862  -41.8690 O.2       7 UNK        -0.5147 
     49 N          23.5768  -33.5420  -41.0807 N.am      8 UNK        -0.4734 
     50 CA         22.4061  -34.3413  -41.4885 C.3       8 UNK         0.0238 
     51 CB         22.2890  -34.4007  -43.0251 C.3       8 UNK        -0.1912 
     52 C          21.0548  -33.9479  -40.8557 C.2       8 UNK         0.5038 
     53 O          20.1918  -34.8166  -40.7238 O.2       8 UNK        -0.5046 
     54 N          20.8840  -32.6753  -40.4797 N.am      9 UNK        -0.4200 
     55 CA         19.6592  -32.1109  -39.8922 C.3       9 UNK         0.0839 
     56 C          19.3390  -32.6138  -38.4527 C.2       9 UNK         0.5513 
     57 N          20.2711  -33.2328  -37.7378 N.am      9 UNK        -0.7519 
     58 O          18.2201  -32.4373  -37.9779 O.2       9 UNK        -0.4960 
     59 C59        19.6676  -30.5567  -39.9265 C.3       10 UNK        -0.0876 
     60 S60        19.8308  -29.7083  -41.5443 S.3       10 UNK        -0.2414 
     61 C61        19.5869  -30.9775  -42.8364 C.3       10 UNK         0.0169 
     62 H62        15.1672  -23.4081  -45.7078 H         1 UNK         0.0903 
     63 H63        15.6694  -23.8125  -47.3514 H         1 UNK         0.0903 
     64 H64        14.2232  -24.5533  -46.6631 H         1 UNK         0.0903 
     65 H65        14.5652  -26.6616  -46.0009 H         1 UNK         0.3096 
     66 H66        17.2287  -27.7504  -45.6455 H         1 UNK         0.1121 
     67 H67        15.7845  -29.9153  -45.1740 H         1 UNK         0.0849 
     68 H68        14.4265  -28.9571  -45.6784 H         1 UNK         0.0849 
     69 H69        16.7983  -31.5542  -46.9757 H         1 UNK         0.0865 
     70 H70        17.6745  -30.8476  -48.3059 H         1 UNK         0.0865 
     71 H71        17.7339  -31.4727  -44.7731 H         1 UNK         0.1346 
     72 H72        21.2718  -29.1954  -44.0106 H         1 UNK         0.1412 
     73 H73        19.2442  -28.8083  -47.7742 H         1 UNK         0.1426 
     74 H74        22.3889  -28.1519  -46.1241 H         1 UNK         0.0716 
     75 H75        21.3616  -27.7289  -47.4636 H         1 UNK         0.0716 
     76 H76        22.2981  -27.2778  -43.8936 H         1 UNK         0.0695 
     77 H77        22.8977  -25.6864  -44.2385 H         1 UNK         0.0695 
     78 H78        21.0439  -24.6253  -43.0424 H         1 UNK         0.0983 
     79 H79        19.6570  -27.0765  -43.2908 H         1 UNK         0.3095 
     80 H80        17.7309  -27.5385  -41.3952 H         1 UNK         0.0454 
     81 H81        16.2939  -24.8277  -41.5331 H         1 UNK         0.0851 
     82 H82        15.5396  -26.3646  -41.1127 H         1 UNK         0.0851 
     83 H83        16.7546  -25.6679  -40.0574 H         1 UNK         0.0851 
     84 H84        17.5774  -26.1153  -43.9358 H         1 UNK         0.2976 
     85 H85        21.3256  -27.6349  -41.2517 H         1 UNK         0.3116 
     86 H86        22.2557  -28.3215  -39.4043 H         1 UNK         0.0646 
     87 H87        22.7301  -26.7470  -37.5517 H         1 UNK         0.0847 
     88 H88        21.2124  -26.3456  -38.3394 H         1 UNK         0.0847 
     89 H89        22.6525  -25.3796  -38.6507 H         1 UNK         0.0847 
     90 H90        24.3258  -25.6832  -40.6306 H         1 UNK         0.3040 
     91 H91        26.8133  -26.7045  -39.6251 H         1 UNK         0.1015 
     92 H92        26.4760  -24.3168  -40.2295 H         1 UNK         0.0786 
     93 H93        26.2330  -24.7501  -41.9215 H         1 UNK         0.0786 
     94 H94        27.8022  -24.9894  -41.1630 H         1 UNK         0.0786 
     95 H95        24.9484  -27.5117  -42.4293 H         1 UNK         0.3172 
     96 H96        27.0491  -28.9180  -43.8923 H         1 UNK         0.0595 
     97 H97        23.9995  -28.9819  -44.2235 H         1 UNK         0.0839 
     98 H98        25.1865  -29.5434  -45.3872 H         1 UNK         0.0839 
     99 H99        25.0701  -27.8296  -45.0288 H         1 UNK         0.0839 
    100 H100       25.4109  -29.6305  -41.0448 H         1 UNK         0.2998 
    101 H101       24.9970  -31.3620  -39.7805 H         1 UNK         0.0822 
    102 H102       27.2681  -32.2782  -40.4973 H         1 UNK         0.0787 
    103 H103       26.1240  -33.5077  -40.0047 H         1 UNK         0.0787 
    104 H104       26.4464  -33.2492  -41.7148 H         1 UNK         0.0787 
    105 H105       24.2844  -34.0610  -40.5783 H         1 UNK         0.3055 
    106 H106       22.6094  -35.3557  -41.1403 H         1 UNK         0.1106 
    107 H107       21.4782  -35.0638  -43.3299 H         1 UNK         0.0828 
    108 H108       22.0849  -33.4216  -43.4590 H         1 UNK         0.0828 
    109 H109       23.2046  -34.7815  -43.4774 H         1 UNK         0.0828 
    110 H110       21.6219  -32.0196  -40.7165 H         1 UNK         0.2931 
    111 H111       18.8246  -32.4523  -40.5060 H         1 UNK         0.0412 
    112 H112       20.0497  -33.5555  -36.8087 H         1 UNK         0.3472 
    113 H113       21.1907  -33.3838  -38.1200 H         1 UNK         0.3472 
    114 H114       20.4681  -30.1833  -39.2853 H         1 UNK         0.0970 
    115 H115       18.7443  -30.1772  -39.4841 H         1 UNK         0.0970 
    116 H116       20.4219  -31.6754  -42.8356 H         1 UNK         0.0612 
    117 H117       18.6835  -31.5460  -42.6138 H         1 UNK         0.0612 
@<TRIPOS>BOND
     1    1    2 1    
     2    1   62 1    
     3    1   63 1    
     4    1   64 1    
     5    2    3 2    
     6    2    4 am   BACKBONE|DICT|INTERRES
     7    4    5 1    
     8    4   65 1    
     9    5    6 1    
    10    5   25 1    
    11    5   66 1    
    12    6    7 1    
    13    6   67 1    
    14    6   68 1    
    15    7    8 1    
    16    8    9 1    
    17    8   69 1    
    18    8   70 1    
    19    9   10 ar   
    20    9   14 ar   
    21   10   11 ar   
    22   10   71 1    
    23   11   12 ar   
    24   11   61 1    
    25   12   13 ar   
    26   12   72 1    
    27   13   14 ar   
    28   13   15 1    
    29   14   73 1    
    30   15   16 1    
    31   15   74 1    
    32   15   75 1    
    33   16   17 1    
    34   17   18 1    
    35   17   76 1    
    36   17   77 1    
    37   18   19 1    
    38   18   27 1    
    39   18   78 1    
    40   19   20 am   BACKBONE|DICT|INTERRES
    41   19   79 1    
    42   20   21 2    
    43   20   22 1    
    44   22   23 1    
    45   22   24 1    
    46   22   80 1    
    47   23   81 1    
    48   23   82 1    
    49   23   83 1    
    50   24   25 am   BACKBONE|DICT|INTERRES
    51   24   84 1    
    52   25   26 2    
    53   27   28 2    
    54   27   29 am   BACKBONE|DICT|INTERRES
    55   29   30 1    
    56   29   85 1    
    57   30   31 1    
    58   30   32 1    
    59   30   86 1    
    60   31   87 1    
    61   31   88 1    
    62   31   89 1    
    63   32   33 2    
    64   32   34 am   BACKBONE|DICT|INTERRES
    65   34   35 1    
    66   34   90 1    
    67   35   36 1    
    68   35   37 1    
    69   35   91 1    
    70   36   92 1    
    71   36   93 1    
    72   36   94 1    
    73   37   38 2    
    74   37   39 am   BACKBONE|DICT|INTERRES
    75   39   40 1    
    76   39   95 1    
    77   40   41 1    
    78   40   42 1    
    79   40   96 1    
    80   41   97 1    
    81   41   98 1    
    82   41   99 1    
    83   42   43 2    
    84   42   44 am   BACKBONE|DICT|INTERRES
    85   44   45 1    
    86   44  100 1    
    87   45   46 1    
    88   45   47 1    
    89   45  101 1    
    90   46  102 1    
    91   46  103 1    
    92   46  104 1    
    93   47   48 2    
    94   47   49 am   BACKBONE|DICT|INTERRES
    95   49   50 1    
    96   49  105 1    
    97   50   51 1    
    98   50   52 1    
    99   50  106 1    
   100   51  107 1    
   101   51  108 1    
   102   51  109 1    
   103   52   53 2    
   104   52   54 am   BACKBONE|DICT|INTERRES
   105   54   55 1    
   106   54  110 1    
   107   55   56 1    
   108   55   59 1    
   109   55  111 1    
   110   56   57 am   BACKBONE|DICT|INTERRES
   111   56   58 2    
   112   57  112 1    
   113   57  113 1    
   114   59   60 1    
   115   59  114 1    
   116   59  115 1    
   117   60   61 1    
   118   61  116 1    
   119   61  117 1    
@<TRIPOS>SUBSTRUCTURE
     1 UNK         1 GROUP             0       ****    0 ROOT    
