@<TRIPOS>MOLECULE
3R8
117   119    1
SMALL
USER_CHARGES


@<TRIPOS>ATOM
      1 CA         12.0218  -25.6506  -42.7375 C.3       0 UNK        -0.2013 
      2 C          13.4556  -25.3930  -43.1762 C.2       0 UNK         0.4866 
      3 O          14.1042  -24.4875  -42.6504 O.2       0 UNK        -0.5176 
      4 N          13.9517  -26.1747  -44.1424 N.am      1 UNK        -0.4884 
      5 CA         15.3326  -26.1294  -44.6331 C.3       1 UNK         0.0853 
      6 C6         15.4658  -26.7767  -46.0378 C.3       10 UNK        -0.0849 
      7 S7         14.7954  -28.4743  -46.1526 S.3       10 UNK        -0.2776 
      8 C8         16.1356  -29.3595  -47.0202 C.3       10 UNK         0.0316 
      9 C9         17.3855  -29.5964  -46.1751 C.ar      10 UNK        -0.0863 
     10 C10        17.2914  -30.0549  -44.8564 C.ar      10 UNK        -0.1009 
     11 C11        18.4425  -30.3314  -44.1137 C.ar      10 UNK        -0.0712 
     12 C12        19.6999  -30.1574  -44.6988 C.ar      10 UNK        -0.0894 
     13 C13        19.8105  -29.7126  -46.0188 C.ar      10 UNK        -0.0745 
     14 C14        18.6510  -29.4243  -46.7465 C.ar      10 UNK        -0.0972 
     15 C15        21.1750  -29.5965  -46.6835 C.3       10 UNK         0.0209 
     16 S16        21.8857  -27.9292  -46.5223 S.3       10 UNK        -0.2568 
     17 C17        22.8126  -28.0462  -44.9548 C.3       10 UNK        -0.0983 
     18 CA         22.3852  -26.9546  -43.9406 C.3       3 UNK         0.0876 
     19 N          21.0392  -27.1864  -43.4188 N.am      3 UNK        -0.4424 
     20 C          19.9882  -26.3901  -43.6229 C.2       2 UNK         0.4918 
     21 O          20.0117  -25.3667  -44.3119 O.2       2 UNK        -0.4875 
     22 CA         18.6995  -26.7787  -42.8942 C.3       2 UNK         0.0481 
     23 CB         18.6692  -26.1835  -41.4743 C.3       2 UNK        -0.1831 
     24 N          17.5740  -26.2895  -43.6797 N.am      2 UNK        -0.4498 
     25 C          16.3183  -26.7417  -43.6148 C.2       1 UNK         0.5027 
     26 O          15.9381  -27.6046  -42.8177 O.2       1 UNK        -0.4969 
     27 C          23.3172  -26.8810  -42.7216 C.2       3 UNK         0.5005 
     28 O          24.1706  -27.7501  -42.5440 O.2       3 UNK        -0.5279 
     29 N          23.0974  -25.8693  -41.8679 N.am      4 UNK        -0.4463 
     30 CA         23.6514  -25.7115  -40.5134 C.3       4 UNK         0.0283 
     31 CB         23.1656  -24.3743  -39.9307 C.3       4 UNK        -0.1875 
     32 C          25.1810  -25.8324  -40.3608 C.2       4 UNK         0.4949 
     33 O          25.6434  -26.1464  -39.2642 O.2       4 UNK        -0.5039 
     34 N          25.9373  -25.6102  -41.4444 N.am      5 UNK        -0.4663 
     35 CA         27.3852  -25.8354  -41.5074 C.3       5 UNK         0.0242 
     36 CB         27.9324  -25.2387  -42.8141 C.3       5 UNK        -0.1982 
     37 C          27.7820  -27.3210  -41.3867 C.2       5 UNK         0.5017 
     38 O          28.8641  -27.6094  -40.8742 O.2       5 UNK        -0.5012 
     39 N          26.9087  -28.2242  -41.8530 N.am      6 UNK        -0.4439 
     40 CA         27.0680  -29.6803  -41.7776 C.3       6 UNK         0.0297 
     41 CB         26.9943  -30.2572  -43.2014 C.3       6 UNK        -0.2006 
     42 C          25.9954  -30.3412  -40.8935 C.2       6 UNK         0.4892 
     43 O          26.1918  -31.4805  -40.4680 O.2       6 UNK        -0.5089 
     44 N          24.8726  -29.6431  -40.6690 N.am      7 UNK        -0.4243 
     45 CA         23.6223  -30.0617  -40.0283 C.3       7 UNK         0.0196 
     46 CB         23.8296  -30.5798  -38.5914 C.3       7 UNK        -0.2007 
     47 C          22.8372  -31.0512  -40.9003 C.2       7 UNK         0.5020 
     48 O          21.7070  -30.7489  -41.2826 O.2       7 UNK        -0.5147 
     49 N          23.4589  -32.1967  -41.2116 N.am      8 UNK        -0.4734 
     50 CA         23.0077  -33.3121  -42.0582 C.3       8 UNK         0.0238 
     51 CB         22.7761  -32.8518  -43.5105 C.3       8 UNK        -0.1912 
     52 C          21.7886  -34.0847  -41.5215 C.2       8 UNK         0.5038 
     53 O          21.8342  -35.3144  -41.4708 O.2       8 UNK        -0.5046 
     54 N          20.7343  -33.3626  -41.1310 N.am      9 UNK        -0.4200 
     55 CA         19.4818  -33.9030  -40.5799 C.3       9 UNK         0.0839 
     56 C          19.5628  -34.3005  -39.0770 C.2       9 UNK         0.5513 
     57 N          20.6537  -34.0290  -38.3700 N.am      9 UNK        -0.7519 
     58 O          18.6175  -34.8753  -38.5434 O.2       9 UNK        -0.4960 
     59 C59        18.2806  -32.9570  -40.8467 C.3       10 UNK        -0.0876 
     60 S60        18.0419  -32.6163  -42.6247 S.3       10 UNK        -0.2414 
     61 C61        18.3264  -30.8217  -42.6802 C.3       10 UNK         0.0169 
     62 H62        11.5655  -26.4685  -43.2950 H         1 UNK         0.0903 
     63 H63        11.9941  -25.9057  -41.6784 H         1 UNK         0.0903 
     64 H64        11.4162  -24.7575  -42.8893 H         1 UNK         0.0903 
     65 H65        13.3941  -26.9304  -44.5160 H         1 UNK         0.3096 
     66 H66        15.6014  -25.0752  -44.7366 H         1 UNK         0.1121 
     67 H67        14.9290  -26.1656  -46.7652 H         1 UNK         0.0849 
     68 H68        16.5069  -26.7661  -46.3670 H         1 UNK         0.0849 
     69 H69        15.7548  -30.3301  -47.3407 H         1 UNK         0.0865 
     70 H70        16.3808  -28.8138  -47.9328 H         1 UNK         0.0865 
     71 H71        16.3199  -30.2045  -44.4052 H         1 UNK         0.1346 
     72 H72        20.5911  -30.3793  -44.1295 H         1 UNK         0.1412 
     73 H73        18.7377  -29.0916  -47.7722 H         1 UNK         0.1426 
     74 H74        21.8636  -30.3419  -46.2825 H         1 UNK         0.0716 
     75 H75        21.0798  -29.8260  -47.7459 H         1 UNK         0.0716 
     76 H76        22.7016  -29.0406  -44.5189 H         1 UNK         0.0695 
     77 H77        23.8703  -27.9423  -45.2046 H         1 UNK         0.0695 
     78 H78        22.4503  -25.9845  -44.4389 H         1 UNK         0.0983 
     79 H79        20.9394  -27.9882  -42.8122 H         1 UNK         0.3095 
     80 H80        18.6461  -27.8660  -42.8321 H         1 UNK         0.0454 
     81 H81        18.7045  -25.0936  -41.4945 H         1 UNK         0.0851 
     82 H82        17.7672  -26.4783  -40.9380 H         1 UNK         0.0851 
     83 H83        19.5200  -26.5280  -40.8852 H         1 UNK         0.0851 
     84 H84        17.8335  -25.5979  -44.3731 H         1 UNK         0.2976 
     85 H85        22.3835  -25.2013  -42.1231 H         1 UNK         0.3116 
     86 H86        23.2207  -26.5134  -39.9105 H         1 UNK         0.0646 
     87 H87        23.5294  -24.2345  -38.9115 H         1 UNK         0.0847 
     88 H88        22.0772  -24.3279  -39.8894 H         1 UNK         0.0847 
     89 H89        23.5177  -23.5268  -40.5201 H         1 UNK         0.0847 
     90 H90        25.4743  -25.3504  -42.3032 H         1 UNK         0.3040 
     91 H91        27.8453  -25.3071  -40.6691 H         1 UNK         0.1015 
     92 H92        27.7319  -24.1689  -42.8769 H         1 UNK         0.0786 
     93 H93        27.4943  -25.7162  -43.6916 H         1 UNK         0.0786 
     94 H94        29.0138  -25.3679  -42.8787 H         1 UNK         0.0786 
     95 H95        26.0329  -27.8870  -42.2457 H         1 UNK         0.3172 
     96 H96        28.0397  -29.9385  -41.3522 H         1 UNK         0.0595 
     97 H97        26.0351  -30.0412  -43.6749 H         1 UNK         0.0839 
     98 H98        27.1174  -31.3412  -43.1924 H         1 UNK         0.0839 
     99 H99        27.7808  -29.8478  -43.8355 H         1 UNK         0.0839 
    100 H100       24.7785  -28.7743  -41.1881 H         1 UNK         0.2998 
    101 H101       23.0155  -29.1572  -39.9603 H         1 UNK         0.0822 
    102 H102       24.3521  -29.8439  -37.9801 H         1 UNK         0.0787 
    103 H103       22.8706  -30.7780  -38.1111 H         1 UNK         0.0787 
    104 H104       24.4022  -31.5068  -38.5595 H         1 UNK         0.0787 
    105 H105       24.4010  -32.2930  -40.8415 H         1 UNK         0.3055 
    106 H106       23.8382  -34.0204  -42.0723 H         1 UNK         0.1106 
    107 H107       22.5564  -33.7022  -44.1573 H         1 UNK         0.0828 
    108 H108       21.9361  -32.1633  -43.5893 H         1 UNK         0.0828 
    109 H109       23.6574  -32.3543  -43.9154 H         1 UNK         0.0828 
    110 H110       20.8121  -32.3509  -41.1952 H         1 UNK         0.2931 
    111 H111       19.2727  -34.8335  -41.1114 H         1 UNK         0.0412 
    112 H112       20.6932  -34.2970  -37.3990 H         1 UNK         0.3472 
    113 H113       21.4386  -33.5684  -38.8008 H         1 UNK         0.3472 
    114 H114       18.4041  -32.0210  -40.2987 H         1 UNK         0.0970 
    115 H115       17.3557  -33.4021  -40.4749 H         1 UNK         0.0970 
    116 H116       19.2324  -30.5758  -42.1265 H         1 UNK         0.0612 
    117 H117       17.5062  -30.3081  -42.1758 H         1 UNK         0.0612 
@<TRIPOS>BOND
     1    1    2 1    
     2    1   62 1    
     3    1   63 1    
     4    1   64 1    
     5    2    3 2    
     6    2    4 am   BACKBONE|DICT|INTERRES
     7    4    5 1    
     8    4   65 1    
     9    5    6 1    
    10    5   25 1    
    11    5   66 1    
    12    6    7 1    
    13    6   67 1    
    14    6   68 1    
    15    7    8 1    
    16    8    9 1    
    17    8   69 1    
    18    8   70 1    
    19    9   10 ar   
    20    9   14 ar   
    21   10   11 ar   
    22   10   71 1    
    23   11   12 ar   
    24   11   61 1    
    25   12   13 ar   
    26   12   72 1    
    27   13   14 ar   
    28   13   15 1    
    29   14   73 1    
    30   15   16 1    
    31   15   74 1    
    32   15   75 1    
    33   16   17 1    
    34   17   18 1    
    35   17   76 1    
    36   17   77 1    
    37   18   19 1    
    38   18   27 1    
    39   18   78 1    
    40   19   20 am   BACKBONE|DICT|INTERRES
    41   19   79 1    
    42   20   21 2    
    43   20   22 1    
    44   22   23 1    
    45   22   24 1    
    46   22   80 1    
    47   23   81 1    
    48   23   82 1    
    49   23   83 1    
    50   24   25 am   BACKBONE|DICT|INTERRES
    51   24   84 1    
    52   25   26 2    
    53   27   28 2    
    54   27   29 am   BACKBONE|DICT|INTERRES
    55   29   30 1    
    56   29   85 1    
    57   30   31 1    
    58   30   32 1    
    59   30   86 1    
    60   31   87 1    
    61   31   88 1    
    62   31   89 1    
    63   32   33 2    
    64   32   34 am   BACKBONE|DICT|INTERRES
    65   34   35 1    
    66   34   90 1    
    67   35   36 1    
    68   35   37 1    
    69   35   91 1    
    70   36   92 1    
    71   36   93 1    
    72   36   94 1    
    73   37   38 2    
    74   37   39 am   BACKBONE|DICT|INTERRES
    75   39   40 1    
    76   39   95 1    
    77   40   41 1    
    78   40   42 1    
    79   40   96 1    
    80   41   97 1    
    81   41   98 1    
    82   41   99 1    
    83   42   43 2    
    84   42   44 am   BACKBONE|DICT|INTERRES
    85   44   45 1    
    86   44  100 1    
    87   45   46 1    
    88   45   47 1    
    89   45  101 1    
    90   46  102 1    
    91   46  103 1    
    92   46  104 1    
    93   47   48 2    
    94   47   49 am   BACKBONE|DICT|INTERRES
    95   49   50 1    
    96   49  105 1    
    97   50   51 1    
    98   50   52 1    
    99   50  106 1    
   100   51  107 1    
   101   51  108 1    
   102   51  109 1    
   103   52   53 2    
   104   52   54 am   BACKBONE|DICT|INTERRES
   105   54   55 1    
   106   54  110 1    
   107   55   56 1    
   108   55   59 1    
   109   55  111 1    
   110   56   57 am   BACKBONE|DICT|INTERRES
   111   56   58 2    
   112   57  112 1    
   113   57  113 1    
   114   59   60 1    
   115   59  114 1    
   116   59  115 1    
   117   60   61 1    
   118   61  116 1    
   119   61  117 1    
@<TRIPOS>SUBSTRUCTURE
     1 UNK         1 GROUP             0       ****    0 ROOT    
