@<TRIPOS>MOLECULE
3R8
117   119    1
SMALL
USER_CHARGES


@<TRIPOS>ATOM
      1 CA         15.0669  -22.6935  -46.4588 C.3       0 UNK        -0.2013 
      2 C          15.7632  -23.5574  -45.4180 C.2       0 UNK         0.4866 
      3 O          15.7454  -23.2175  -44.2350 O.2       0 UNK        -0.5176 
      4 N          16.3803  -24.6649  -45.8556 N.am      1 UNK        -0.4884 
      5 CA         17.0912  -25.6570  -45.0312 C.3       1 UNK         0.0853 
      6 C6         16.1610  -26.4432  -44.0648 C.3       10 UNK        -0.0849 
      7 S7         15.0158  -27.5180  -44.9942 S.3       10 UNK        -0.2776 
      8 C8         15.1746  -29.1090  -44.1052 C.3       10 UNK         0.0316 
      9 C9         16.5720  -29.7368  -44.0848 C.ar      10 UNK        -0.0863 
     10 C10        16.8810  -30.6347  -43.0585 C.ar      10 UNK        -0.1009 
     11 C11        18.1241  -31.2712  -43.0092 C.ar      10 UNK        -0.0712 
     12 C12        19.0828  -30.9777  -43.9823 C.ar      10 UNK        -0.0894 
     13 C13        18.8011  -30.0763  -45.0143 C.ar      10 UNK        -0.0745 
     14 C14        17.5336  -29.4807  -45.0716 C.ar      10 UNK        -0.0972 
     15 C15        19.8632  -29.8068  -46.0791 C.3       10 UNK         0.0209 
     16 S16        19.9111  -28.0707  -46.6444 S.3       10 UNK        -0.2568 
     17 C17        21.7031  -27.6947  -46.6290 C.3       10 UNK        -0.0983 
     18 CA         22.1344  -26.7841  -45.4503 C.3       3 UNK         0.0876 
     19 N          21.2994  -25.5835  -45.3813 N.am      3 UNK        -0.4424 
     20 C          21.4308  -24.5513  -44.5388 C.2       2 UNK         0.4918 
     21 O          22.3637  -24.4251  -43.7475 O.2       2 UNK        -0.4875 
     22 CA         20.2831  -23.5215  -44.5421 C.3       2 UNK         0.0481 
     23 CB         20.6371  -22.3240  -45.4369 C.3       2 UNK        -0.1831 
     24 N          18.9950  -24.0889  -44.9690 N.am      2 UNK        -0.4498 
     25 C          18.3501  -25.0862  -44.3405 C.2       1 UNK         0.5027 
     26 O          18.7632  -25.5934  -43.2977 O.2       1 UNK        -0.4969 
     27 C          22.2053  -27.5737  -44.1237 C.2       3 UNK         0.5005 
     28 O          23.2310  -28.2029  -43.8621 O.2       3 UNK        -0.5279 
     29 N          21.1569  -27.5001  -43.2859 N.am      4 UNK        -0.4463 
     30 CA         21.0925  -28.1567  -41.9753 C.3       4 UNK         0.0283 
     31 CB         19.6673  -28.0518  -41.4119 C.3       4 UNK        -0.1875 
     32 C          22.1185  -27.6172  -40.9609 C.2       4 UNK         0.4949 
     33 O          22.4259  -28.3140  -39.9946 O.2       4 UNK        -0.5039 
     34 N          22.6759  -26.4204  -41.2088 N.am      5 UNK        -0.4663 
     35 CA         23.7777  -25.8360  -40.4360 C.3       5 UNK         0.0242 
     36 CB         23.9889  -24.3772  -40.8696 C.3       5 UNK        -0.1982 
     37 C          25.0964  -26.6268  -40.5462 C.2       5 UNK         0.5017 
     38 O          25.9448  -26.4941  -39.6640 O.2       5 UNK        -0.5012 
     39 N          25.2388  -27.4540  -41.5942 N.am      6 UNK        -0.4439 
     40 CA         26.3409  -28.4066  -41.7587 C.3       6 UNK         0.0297 
     41 CB         26.5081  -28.7287  -43.2534 C.3       6 UNK        -0.2006 
     42 C          26.1500  -29.7012  -40.9395 C.2       6 UNK         0.4892 
     43 O          27.0500  -30.5425  -40.9503 O.2       6 UNK        -0.5089 
     44 N          25.0026  -29.8417  -40.2557 N.am      7 UNK        -0.4243 
     45 CA         24.5573  -31.0007  -39.4788 C.3       7 UNK         0.0196 
     46 CB         25.5025  -31.2741  -38.2850 C.3       7 UNK        -0.2007 
     47 C          24.2891  -32.2240  -40.3772 C.2       7 UNK         0.5020 
     48 O          23.8554  -32.0551  -41.5179 O.2       7 UNK        -0.5147 
     49 N          24.4954  -33.4302  -39.8278 N.am      8 UNK        -0.4734 
     50 CA         24.2476  -34.7500  -40.4325 C.3       8 UNK         0.0238 
     51 CB         25.1043  -34.9565  -41.7007 C.3       8 UNK        -0.1912 
     52 C          22.7574  -35.0776  -40.6716 C.2       8 UNK         0.5038 
     53 O          22.4599  -36.0654  -41.3460 O.2       8 UNK        -0.5046 
     54 N          21.8507  -34.2754  -40.0986 N.am      9 UNK        -0.4200 
     55 CA         20.4022  -34.5138  -40.0755 C.3       9 UNK         0.0839 
     56 C          20.0289  -35.7294  -39.1839 C.2       9 UNK         0.5513 
     57 N          19.0010  -36.4790  -39.5569 N.am      9 UNK        -0.7519 
     58 O          20.6325  -35.9709  -38.1401 O.2       9 UNK        -0.4960 
     59 C59        19.6252  -33.2487  -39.6258 C.3       10 UNK        -0.0876 
     60 S60        19.7533  -31.8729  -40.8192 S.3       10 UNK        -0.2414 
     61 C61        18.3980  -32.3265  -41.9465 C.3       10 UNK         0.0169 
     62 H62        15.1619  -23.1058  -47.4632 H         1 UNK         0.0903 
     63 H63        14.0056  -22.6101  -46.2264 H         1 UNK         0.0903 
     64 H64        15.4946  -21.6912  -46.4618 H         1 UNK         0.0903 
     65 H65        16.3434  -24.8819  -46.8427 H         1 UNK         0.3096 
     66 H66        17.4973  -26.3816  -45.7380 H         1 UNK         0.1121 
     67 H67        15.5867  -25.7672  -43.4302 H         1 UNK         0.0849 
     68 H68        16.7390  -27.0692  -43.3831 H         1 UNK         0.0849 
     69 H69        14.8258  -28.9562  -43.0825 H         1 UNK         0.0865 
     70 H70        14.4865  -29.8238  -44.5582 H         1 UNK         0.0865 
     71 H71        16.1361  -30.8622  -42.3078 H         1 UNK         0.1346 
     72 H72        20.0449  -31.4704  -43.9418 H         1 UNK         0.1412 
     73 H73        17.2971  -28.8187  -45.8915 H         1 UNK         0.1426 
     74 H74        20.8433  -30.0896  -45.6929 H         1 UNK         0.0716 
     75 H75        19.6732  -30.4506  -46.9386 H         1 UNK         0.0716 
     76 H76        22.2917  -28.6138  -46.6554 H         1 UNK         0.0695 
     77 H77        21.9299  -27.1876  -47.5681 H         1 UNK         0.0695 
     78 H78        23.1523  -26.4425  -45.6504 H         1 UNK         0.0983 
     79 H79        20.4944  -25.5928  -45.9899 H         1 UNK         0.3095 
     80 H80        20.1636  -23.1610  -43.5185 H         1 UNK         0.0454 
     81 H81        20.7489  -22.6170  -46.4815 H         1 UNK         0.0851 
     82 H82        19.8726  -21.5487  -45.3843 H         1 UNK         0.0851 
     83 H83        21.5781  -21.8691  -45.1240 H         1 UNK         0.0851 
     84 H84        18.5861  -23.7169  -45.8145 H         1 UNK         0.2976 
     85 H85        20.3579  -26.9299  -43.5411 H         1 UNK         0.3116 
     86 H86        21.3147  -29.2150  -42.1298 H         1 UNK         0.0646 
     87 H87        18.9295  -28.4302  -42.1199 H         1 UNK         0.0847 
     88 H88        19.5683  -28.6397  -40.4985 H         1 UNK         0.0847 
     89 H89        19.4036  -27.0229  -41.1661 H         1 UNK         0.0847 
     90 H90        22.3787  -25.9071  -42.0302 H         1 UNK         0.3040 
     91 H91        23.4845  -25.8421  -39.3838 H         1 UNK         0.1015 
     92 H92        24.3267  -24.3095  -41.9044 H         1 UNK         0.0786 
     93 H93        24.7440  -23.8919  -40.2496 H         1 UNK         0.0786 
     94 H94        23.0713  -23.7959  -40.7769 H         1 UNK         0.0786 
     95 H95        24.4868  -27.5188  -42.2732 H         1 UNK         0.3172 
     96 H96        27.2638  -27.9365  -41.4127 H         1 UNK         0.0595 
     97 H97        27.3904  -29.3474  -43.4223 H         1 UNK         0.0839 
     98 H98        26.6301  -27.8229  -43.8473 H         1 UNK         0.0839 
     99 H99        25.6507  -29.2768  -43.6457 H         1 UNK         0.0839 
    100 H100       24.3075  -29.1085  -40.3394 H         1 UNK         0.2998 
    101 H101       23.5869  -30.7184  -39.0676 H         1 UNK         0.0822 
    102 H102       25.0585  -31.9740  -37.5763 H         1 UNK         0.0787 
    103 H103       26.4593  -31.6878  -38.6058 H         1 UNK         0.0787 
    104 H104       25.7089  -30.3576  -37.7318 H         1 UNK         0.0787 
    105 H105       24.8467  -33.4515  -38.8796 H         1 UNK         0.3055 
    106 H106       24.5848  -35.4806  -39.6953 H         1 UNK         0.1106 
    107 H107       26.1544  -34.7341  -41.5116 H         1 UNK         0.0828 
    108 H108       25.0513  -35.9900  -42.0453 H         1 UNK         0.0828 
    109 H109       24.7704  -34.3257  -42.5248 H         1 UNK         0.0828 
    110 H110       22.1826  -33.4907  -39.5605 H         1 UNK         0.2931 
    111 H111       20.0995  -34.7523  -41.0972 H         1 UNK         0.0412 
    112 H112       18.7326  -37.2637  -38.9830 H         1 UNK         0.3472 
    113 H113       18.4947  -36.2856  -40.4074 H         1 UNK         0.3472 
    114 H114       18.5680  -33.4752  -39.4729 H         1 UNK         0.0970 
    115 H115       19.9916  -32.9010  -38.6582 H         1 UNK         0.0970 
    116 H116       18.6445  -33.2673  -42.4403 H         1 UNK         0.0612 
    117 H117       17.4968  -32.5136  -41.3607 H         1 UNK         0.0612 
@<TRIPOS>BOND
     1    1    2 1    
     2    1   62 1    
     3    1   63 1    
     4    1   64 1    
     5    2    3 2    
     6    2    4 am   BACKBONE|DICT|INTERRES
     7    4    5 1    
     8    4   65 1    
     9    5    6 1    
    10    5   25 1    
    11    5   66 1    
    12    6    7 1    
    13    6   67 1    
    14    6   68 1    
    15    7    8 1    
    16    8    9 1    
    17    8   69 1    
    18    8   70 1    
    19    9   10 ar   
    20    9   14 ar   
    21   10   11 ar   
    22   10   71 1    
    23   11   12 ar   
    24   11   61 1    
    25   12   13 ar   
    26   12   72 1    
    27   13   14 ar   
    28   13   15 1    
    29   14   73 1    
    30   15   16 1    
    31   15   74 1    
    32   15   75 1    
    33   16   17 1    
    34   17   18 1    
    35   17   76 1    
    36   17   77 1    
    37   18   19 1    
    38   18   27 1    
    39   18   78 1    
    40   19   20 am   BACKBONE|DICT|INTERRES
    41   19   79 1    
    42   20   21 2    
    43   20   22 1    
    44   22   23 1    
    45   22   24 1    
    46   22   80 1    
    47   23   81 1    
    48   23   82 1    
    49   23   83 1    
    50   24   25 am   BACKBONE|DICT|INTERRES
    51   24   84 1    
    52   25   26 2    
    53   27   28 2    
    54   27   29 am   BACKBONE|DICT|INTERRES
    55   29   30 1    
    56   29   85 1    
    57   30   31 1    
    58   30   32 1    
    59   30   86 1    
    60   31   87 1    
    61   31   88 1    
    62   31   89 1    
    63   32   33 2    
    64   32   34 am   BACKBONE|DICT|INTERRES
    65   34   35 1    
    66   34   90 1    
    67   35   36 1    
    68   35   37 1    
    69   35   91 1    
    70   36   92 1    
    71   36   93 1    
    72   36   94 1    
    73   37   38 2    
    74   37   39 am   BACKBONE|DICT|INTERRES
    75   39   40 1    
    76   39   95 1    
    77   40   41 1    
    78   40   42 1    
    79   40   96 1    
    80   41   97 1    
    81   41   98 1    
    82   41   99 1    
    83   42   43 2    
    84   42   44 am   BACKBONE|DICT|INTERRES
    85   44   45 1    
    86   44  100 1    
    87   45   46 1    
    88   45   47 1    
    89   45  101 1    
    90   46  102 1    
    91   46  103 1    
    92   46  104 1    
    93   47   48 2    
    94   47   49 am   BACKBONE|DICT|INTERRES
    95   49   50 1    
    96   49  105 1    
    97   50   51 1    
    98   50   52 1    
    99   50  106 1    
   100   51  107 1    
   101   51  108 1    
   102   51  109 1    
   103   52   53 2    
   104   52   54 am   BACKBONE|DICT|INTERRES
   105   54   55 1    
   106   54  110 1    
   107   55   56 1    
   108   55   59 1    
   109   55  111 1    
   110   56   57 am   BACKBONE|DICT|INTERRES
   111   56   58 2    
   112   57  112 1    
   113   57  113 1    
   114   59   60 1    
   115   59  114 1    
   116   59  115 1    
   117   60   61 1    
   118   61  116 1    
   119   61  117 1    
@<TRIPOS>SUBSTRUCTURE
     1 UNK         1 GROUP             0       ****    0 ROOT    
