@<TRIPOS>MOLECULE
3R8
117   119    1
SMALL
USER_CHARGES


@<TRIPOS>ATOM
      1 CA         18.4260  -28.7247  -49.1443 C.3       0 UNK        -0.2013 
      2 C          18.0667  -28.6115  -47.6712 C.2       0 UNK         0.4866 
      3 O          18.5923  -29.3640  -46.8520 O.2       0 UNK        -0.5176 
      4 N          17.1795  -27.6761  -47.3185 N.am      1 UNK        -0.4884 
      5 CA         16.7625  -27.4086  -45.9419 C.3       1 UNK         0.0853 
      6 C6         15.3020  -26.8960  -45.9118 C.3       10 UNK        -0.0849 
      7 S7         14.5445  -26.9562  -44.2563 S.3       10 UNK        -0.2776 
      8 C8         14.1809  -28.7343  -44.0729 C.3       10 UNK         0.0316 
      9 C9         15.2941  -29.4709  -43.3380 C.ar      10 UNK        -0.0863 
     10 C10        16.0124  -30.5029  -43.9561 C.ar      10 UNK        -0.1009 
     11 C11        16.9914  -31.2124  -43.2495 C.ar      10 UNK        -0.0712 
     12 C12        17.2301  -30.8878  -41.9097 C.ar      10 UNK        -0.0894 
     13 C13        16.5505  -29.8334  -41.2939 C.ar      10 UNK        -0.0745 
     14 C14        15.5780  -29.1362  -42.0112 C.ar      10 UNK        -0.0972 
     15 C15        16.8477  -29.4529  -39.8504 C.3       10 UNK         0.0209 
     16 S16        18.0772  -28.1113  -39.7430 S.3       10 UNK        -0.2568 
     17 C17        19.6161  -29.0205  -40.1099 C.3       10 UNK        -0.0983 
     18 CA         20.6465  -28.2454  -40.9665 C.3       3 UNK         0.0876 
     19 N          20.0578  -27.5566  -42.1298 N.am      3 UNK        -0.4424 
     20 C          20.7695  -27.0905  -43.1664 C.2       2 UNK         0.4918 
     21 O          21.9848  -27.2596  -43.2672 O.2       2 UNK        -0.4875 
     22 CA         20.0174  -26.2790  -44.2310 C.3       2 UNK         0.0481 
     23 CB         20.9302  -25.8319  -45.3921 C.3       2 UNK        -0.1831 
     24 N          18.8721  -27.0222  -44.7545 N.am      2 UNK        -0.4498 
     25 C          17.7799  -26.4548  -45.2849 C.2       1 UNK         0.5027 
     26 O          17.5949  -25.2365  -45.3288 O.2       1 UNK        -0.4969 
     27 C          21.5770  -27.3647  -40.1009 C.2       3 UNK         0.5005 
     28 O          22.3116  -27.9079  -39.2744 O.2       3 UNK        -0.5279 
     29 N          21.6077  -26.0463  -40.3511 N.am      4 UNK        -0.4463 
     30 CA         22.6279  -25.1186  -39.8513 C.3       4 UNK         0.0283 
     31 CB         22.3019  -23.6959  -40.3319 C.3       4 UNK        -0.1875 
     32 C          24.0628  -25.5096  -40.2625 C.2       4 UNK         0.4949 
     33 O          25.0017  -25.2123  -39.5232 O.2       4 UNK        -0.5039 
     34 N          24.2128  -26.2209  -41.3914 N.am      5 UNK        -0.4663 
     35 CA         25.4564  -26.8551  -41.8329 C.3       5 UNK         0.0242 
     36 CB         25.3839  -27.0906  -43.3536 C.3       5 UNK        -0.1982 
     37 C          25.7321  -28.1548  -41.0478 C.2       5 UNK         0.5017 
     38 O          25.7742  -29.2346  -41.6383 O.2       5 UNK        -0.5012 
     39 N          25.8885  -28.0263  -39.7218 N.am      6 UNK        -0.4439 
     40 CA         26.2625  -29.0671  -38.7525 C.3       6 UNK         0.0297 
     41 CB         27.7649  -29.3909  -38.8945 C.3       6 UNK        -0.2006 
     42 C          25.3821  -30.3360  -38.7963 C.2       6 UNK         0.4892 
     43 O          25.9000  -31.4432  -38.6395 O.2       6 UNK        -0.5089 
     44 N          24.0729  -30.1525  -39.0269 N.am      7 UNK        -0.4243 
     45 CA         23.0380  -31.1850  -39.1737 C.3       7 UNK         0.0196 
     46 CB         22.8513  -31.9735  -37.8598 C.3       7 UNK        -0.2007 
     47 C          23.2115  -32.1105  -40.3972 C.2       7 UNK         0.5020 
     48 O          22.5448  -33.1437  -40.4614 O.2       7 UNK        -0.5147 
     49 N          24.0647  -31.7347  -41.3621 N.am      8 UNK        -0.4734 
     50 CA         24.3023  -32.5031  -42.5906 C.3       8 UNK         0.0238 
     51 CB         25.7116  -32.1851  -43.1179 C.3       8 UNK        -0.1912 
     52 C          23.2502  -32.2450  -43.6854 C.2       8 UNK         0.5038 
     53 O          23.2295  -32.9837  -44.6715 O.2       8 UNK        -0.5046 
     54 N          22.4214  -31.2068  -43.5029 N.am      9 UNK        -0.4200 
     55 CA         21.4459  -30.6754  -44.4710 C.3       9 UNK         0.0839 
     56 C          22.1395  -29.9863  -45.6886 C.2       9 UNK         0.5513 
     57 N          21.3867  -29.5391  -46.6827 N.am      9 UNK        -0.7519 
     58 O          23.3565  -29.8173  -45.7390 O.2       9 UNK        -0.4960 
     59 C59        20.3488  -31.7050  -44.8855 C.3       10 UNK        -0.0876 
     60 S60        19.5018  -32.4910  -43.4690 S.3       10 UNK        -0.2414 
     61 C61        17.7289  -32.3748  -43.9138 C.3       10 UNK         0.0169 
     62 H62        18.2080  -29.7291  -49.5058 H         1 UNK         0.0903 
     63 H63        17.8696  -28.0150  -49.7562 H         1 UNK         0.0903 
     64 H64        19.4897  -28.5352  -49.2855 H         1 UNK         0.0903 
     65 H65        16.8033  -27.0549  -48.0214 H         1 UNK         0.3096 
     66 H66        16.7929  -28.3465  -45.3884 H         1 UNK         0.1121 
     67 H67        15.2340  -25.8751  -46.2923 H         1 UNK         0.0849 
     68 H68        14.6820  -27.4950  -46.5809 H         1 UNK         0.0849 
     69 H69        13.9836  -29.1851  -45.0466 H         1 UNK         0.0865 
     70 H70        13.2583  -28.8419  -43.5007 H         1 UNK         0.0865 
     71 H71        15.7962  -30.7681  -44.9823 H         1 UNK         0.1346 
     72 H72        17.9505  -31.4615  -41.3447 H         1 UNK         0.1412 
     73 H73        15.0340  -28.3321  -41.5336 H         1 UNK         0.1426 
     74 H74        17.1984  -30.3195  -39.2875 H         1 UNK         0.0716 
     75 H75        15.9291  -29.1262  -39.3606 H         1 UNK         0.0716 
     76 H76        19.3749  -29.9397  -40.6366 H         1 UNK         0.0695 
     77 H77        20.0464  -29.3527  -39.1632 H         1 UNK         0.0695 
     78 H78        21.3179  -29.0016  -41.3792 H         1 UNK         0.0983 
     79 H79        19.0615  -27.3893  -42.0886 H         1 UNK         0.3095 
     80 H80        19.6559  -25.3834  -43.7218 H         1 UNK         0.0454 
     81 H81        20.3986  -25.1931  -46.0972 H         1 UNK         0.0851 
     82 H82        21.3224  -26.6864  -45.9445 H         1 UNK         0.0851 
     83 H83        21.7839  -25.2610  -45.0246 H         1 UNK         0.0851 
     84 H84        18.9665  -28.0290  -44.7972 H         1 UNK         0.2976 
     85 H85        20.9536  -25.6798  -41.0262 H         1 UNK         0.3116 
     86 H86        22.5830  -25.1344  -38.7604 H         1 UNK         0.0646 
     87 H87        23.0325  -22.9801  -39.9523 H         1 UNK         0.0847 
     88 H88        21.3223  -23.3712  -39.9807 H         1 UNK         0.0847 
     89 H89        22.3118  -23.6237  -41.4203 H         1 UNK         0.0847 
     90 H90        23.3877  -26.4512  -41.9348 H         1 UNK         0.3040 
     91 H91        26.2898  -26.1755  -41.6408 H         1 UNK         0.1015 
     92 H92        25.2025  -26.1607  -43.8926 H         1 UNK         0.0786 
     93 H93        24.5905  -27.7909  -43.6194 H         1 UNK         0.0786 
     94 H94        26.3202  -27.5059  -43.7286 H         1 UNK         0.0786 
     95 H95        25.7618  -27.0920  -39.3432 H         1 UNK         0.3172 
     96 H96        26.1100  -28.6307  -37.7644 H         1 UNK         0.0595 
     97 H97        27.9835  -29.8678  -39.8509 H         1 UNK         0.0839 
     98 H98        28.0987  -30.0689  -38.1079 H         1 UNK         0.0839 
     99 H99        28.3748  -28.4906  -38.8215 H         1 UNK         0.0839 
    100 H100       23.7301  -29.1993  -39.1270 H         1 UNK         0.2998 
    101 H101       22.1095  -30.6443  -39.3540 H         1 UNK         0.0822 
    102 H102       23.7103  -32.6085  -37.6415 H         1 UNK         0.0787 
    103 H103       22.7042  -31.3032  -37.0130 H         1 UNK         0.0787 
    104 H104       21.9756  -32.6217  -37.9119 H         1 UNK         0.0787 
    105 H105       24.6020  -30.8791  -41.2518 H         1 UNK         0.3055 
    106 H106       24.2651  -33.5688  -42.3527 H         1 UNK         0.1106 
    107 H107       25.9654  -32.8277  -43.9619 H         1 UNK         0.0828 
    108 H108       25.7890  -31.1536  -43.4638 H         1 UNK         0.0828 
    109 H109       26.4704  -32.3411  -42.3509 H         1 UNK         0.0828 
    110 H110       22.5638  -30.6513  -42.6749 H         1 UNK         0.2931 
    111 H111       20.9401  -29.8718  -43.9383 H         1 UNK         0.0412 
    112 H112       20.3721  -29.6169  -46.6724 H         1 UNK         0.3472 
    113 H113       21.8413  -29.0926  -47.4624 H         1 UNK         0.3472 
    114 H114       19.5953  -31.2218  -45.5036 H         1 UNK         0.0970 
    115 H115       20.7767  -32.4927  -45.5071 H         1 UNK         0.0970 
    116 H116       17.6238  -32.3333  -44.9989 H         1 UNK         0.0612 
    117 H117       17.2431  -33.2992  -43.5994 H         1 UNK         0.0612 
@<TRIPOS>BOND
     1    1    2 1    
     2    1   62 1    
     3    1   63 1    
     4    1   64 1    
     5    2    3 2    
     6    2    4 am   BACKBONE|DICT|INTERRES
     7    4    5 1    
     8    4   65 1    
     9    5    6 1    
    10    5   25 1    
    11    5   66 1    
    12    6    7 1    
    13    6   67 1    
    14    6   68 1    
    15    7    8 1    
    16    8    9 1    
    17    8   69 1    
    18    8   70 1    
    19    9   10 ar   
    20    9   14 ar   
    21   10   11 ar   
    22   10   71 1    
    23   11   12 ar   
    24   11   61 1    
    25   12   13 ar   
    26   12   72 1    
    27   13   14 ar   
    28   13   15 1    
    29   14   73 1    
    30   15   16 1    
    31   15   74 1    
    32   15   75 1    
    33   16   17 1    
    34   17   18 1    
    35   17   76 1    
    36   17   77 1    
    37   18   19 1    
    38   18   27 1    
    39   18   78 1    
    40   19   20 am   BACKBONE|DICT|INTERRES
    41   19   79 1    
    42   20   21 2    
    43   20   22 1    
    44   22   23 1    
    45   22   24 1    
    46   22   80 1    
    47   23   81 1    
    48   23   82 1    
    49   23   83 1    
    50   24   25 am   BACKBONE|DICT|INTERRES
    51   24   84 1    
    52   25   26 2    
    53   27   28 2    
    54   27   29 am   BACKBONE|DICT|INTERRES
    55   29   30 1    
    56   29   85 1    
    57   30   31 1    
    58   30   32 1    
    59   30   86 1    
    60   31   87 1    
    61   31   88 1    
    62   31   89 1    
    63   32   33 2    
    64   32   34 am   BACKBONE|DICT|INTERRES
    65   34   35 1    
    66   34   90 1    
    67   35   36 1    
    68   35   37 1    
    69   35   91 1    
    70   36   92 1    
    71   36   93 1    
    72   36   94 1    
    73   37   38 2    
    74   37   39 am   BACKBONE|DICT|INTERRES
    75   39   40 1    
    76   39   95 1    
    77   40   41 1    
    78   40   42 1    
    79   40   96 1    
    80   41   97 1    
    81   41   98 1    
    82   41   99 1    
    83   42   43 2    
    84   42   44 am   BACKBONE|DICT|INTERRES
    85   44   45 1    
    86   44  100 1    
    87   45   46 1    
    88   45   47 1    
    89   45  101 1    
    90   46  102 1    
    91   46  103 1    
    92   46  104 1    
    93   47   48 2    
    94   47   49 am   BACKBONE|DICT|INTERRES
    95   49   50 1    
    96   49  105 1    
    97   50   51 1    
    98   50   52 1    
    99   50  106 1    
   100   51  107 1    
   101   51  108 1    
   102   51  109 1    
   103   52   53 2    
   104   52   54 am   BACKBONE|DICT|INTERRES
   105   54   55 1    
   106   54  110 1    
   107   55   56 1    
   108   55   59 1    
   109   55  111 1    
   110   56   57 am   BACKBONE|DICT|INTERRES
   111   56   58 2    
   112   57  112 1    
   113   57  113 1    
   114   59   60 1    
   115   59  114 1    
   116   59  115 1    
   117   60   61 1    
   118   61  116 1    
   119   61  117 1    
@<TRIPOS>SUBSTRUCTURE
     1 UNK         1 GROUP             0       ****    0 ROOT    
