@<TRIPOS>MOLECULE
3R8
117   119    1
SMALL
USER_CHARGES


@<TRIPOS>ATOM
      1 CA         16.9361  -26.1591  -47.1286 C.3       0 UNK        -0.2013 
      2 C          18.4453  -26.1495  -47.3188 C.2       0 UNK         0.4866 
      3 O          19.0010  -25.1267  -47.7180 O.2       0 UNK        -0.5176 
      4 N          19.1084  -27.2839  -47.0552 N.am      1 UNK        -0.4884 
      5 CA         20.5597  -27.4598  -47.1817 C.3       1 UNK         0.0853 
      6 C6         20.9615  -28.9613  -47.2097 C.3       10 UNK        -0.0849 
      7 S7         20.6005  -29.9048  -45.6824 S.3       10 UNK        -0.2776 
      8 C8         18.9448  -30.5978  -45.9848 C.3       10 UNK         0.0316 
      9 C9         18.0883  -30.4383  -44.7381 C.ar      10 UNK        -0.0863 
     10 C10        18.2529  -31.3110  -43.6595 C.ar      10 UNK        -0.1009 
     11 C11        17.5196  -31.1313  -42.4825 C.ar      10 UNK        -0.0712 
     12 C12        16.5954  -30.0862  -42.3961 C.ar      10 UNK        -0.0894 
     13 C13        16.4191  -29.2101  -43.4708 C.ar      10 UNK        -0.0745 
     14 C14        17.1605  -29.3978  -44.6409 C.ar      10 UNK        -0.0972 
     15 C15        15.4446  -28.0465  -43.3699 C.3       10 UNK         0.0209 
     16 S16        16.3184  -26.4515  -43.2681 S.3       10 UNK        -0.2568 
     17 C17        16.9448  -26.4560  -41.5531 C.3       10 UNK        -0.0983 
     18 CA         18.3813  -27.0222  -41.4133 C.3       3 UNK         0.0876 
     19 N          19.3327  -26.3997  -42.3387 N.am      3 UNK        -0.4424 
     20 C          20.5958  -26.8045  -42.5192 C.2       2 UNK         0.4918 
     21 O          21.1085  -27.7431  -41.9067 O.2       2 UNK        -0.4875 
     22 CA         21.3656  -26.1156  -43.6518 C.3       2 UNK         0.0481 
     23 CB         22.8949  -26.1432  -43.4226 C.3       2 UNK        -0.1831 
     24 N          20.9572  -26.8281  -44.8585 N.am      2 UNK        -0.4498 
     25 C          21.3247  -26.6261  -46.1286 C.2       1 UNK         0.5027 
     26 O          22.1644  -25.8027  -46.4916 O.2       1 UNK        -0.4969 
     27 C          18.8779  -26.9085  -39.9582 C.2       3 UNK         0.5005 
     28 O          19.0535  -25.7907  -39.4672 O.2       3 UNK        -0.5279 
     29 N          19.1184  -28.0640  -39.3202 N.am      4 UNK        -0.4463 
     30 CA         19.7095  -28.2368  -37.9863 C.3       4 UNK         0.0283 
     31 CB         18.7479  -27.7278  -36.8913 C.3       4 UNK        -0.1875 
     32 C          21.1309  -27.6460  -37.8589 C.2       4 UNK         0.4949 
     33 O          21.5129  -27.2068  -36.7727 O.2       4 UNK        -0.5039 
     34 N          21.8897  -27.6427  -38.9620 N.am      5 UNK        -0.4663 
     35 CA         23.2359  -27.0846  -39.0585 C.3       5 UNK         0.0242 
     36 CB         23.1343  -25.6187  -39.5244 C.3       5 UNK        -0.1982 
     37 C          24.1234  -27.9650  -39.9559 C.2       5 UNK         0.5017 
     38 O          23.7454  -29.0922  -40.2860 O.2       5 UNK        -0.5012 
     39 N          25.3196  -27.4556  -40.2783 N.am      6 UNK        -0.4439 
     40 CA         26.4116  -28.1547  -40.9605 C.3       6 UNK         0.0297 
     41 CB         27.7152  -27.3663  -40.7334 C.3       6 UNK        -0.2006 
     42 C          26.1489  -28.4256  -42.4560 C.2       6 UNK         0.4892 
     43 O          26.7733  -27.8033  -43.3193 O.2       6 UNK        -0.5089 
     44 N          25.2545  -29.3785  -42.7271 N.am      7 UNK        -0.4243 
     45 CA         25.0186  -29.9961  -44.0298 C.3       7 UNK         0.0196 
     46 CB         24.0932  -29.1215  -44.8994 C.3       7 UNK        -0.2007 
     47 C          24.5015  -31.4217  -43.7858 C.2       7 UNK         0.5020 
     48 O          24.9547  -32.0715  -42.8407 O.2       7 UNK        -0.5147 
     49 N          23.5471  -31.8904  -44.6028 N.am      8 UNK        -0.4734 
     50 CA         22.9305  -33.2207  -44.4902 C.3       8 UNK         0.0238 
     51 CB         22.0434  -33.4813  -45.7181 C.3       8 UNK        -0.1912 
     52 C          22.1346  -33.4389  -43.1884 C.2       8 UNK         0.5038 
     53 O          21.9096  -34.5889  -42.8097 O.2       8 UNK        -0.5046 
     54 N          21.7484  -32.3424  -42.5232 N.am      9 UNK        -0.4200 
     55 CA         21.1694  -32.3325  -41.1738 C.3       9 UNK         0.0839 
     56 C          22.1853  -32.6330  -40.0298 C.2       9 UNK         0.5513 
     57 N          23.4879  -32.6964  -40.2844 N.am      9 UNK        -0.7519 
     58 O          21.7812  -32.8300  -38.8872 O.2       9 UNK        -0.4960 
     59 C59        20.3737  -31.0208  -40.9248 C.3       10 UNK        -0.0876 
     60 S60        18.8083  -31.2979  -40.0251 S.3       10 UNK        -0.2414 
     61 C61        17.7429  -32.0553  -41.2965 C.3       10 UNK         0.0169 
     62 H62        16.5305  -27.1695  -47.1251 H         1 UNK         0.0903 
     63 H63        16.6728  -25.6752  -46.1893 H         1 UNK         0.0903 
     64 H64        16.4521  -25.6128  -47.9375 H         1 UNK         0.0903 
     65 H65        18.6037  -28.0899  -46.7238 H         1 UNK         0.3096 
     66 H66        20.8413  -27.0456  -48.1530 H         1 UNK         0.1121 
     67 H67        20.4796  -29.4569  -48.0536 H         1 UNK         0.0849 
     68 H68        22.0313  -29.0464  -47.4067 H         1 UNK         0.0849 
     69 H69        18.4698  -30.1170  -46.8404 H         1 UNK         0.0865 
     70 H70        19.0354  -31.6536  -46.2436 H         1 UNK         0.0865 
     71 H71        18.9788  -32.1102  -43.7244 H         1 UNK         0.1346 
     72 H72        16.0322  -29.9439  -41.4838 H         1 UNK         0.1412 
     73 H73        17.0223  -28.7146  -45.4643 H         1 UNK         0.1426 
     74 H74        14.7792  -28.1596  -42.5126 H         1 UNK         0.0716 
     75 H75        14.8050  -28.0400  -44.2536 H         1 UNK         0.0716 
     76 H76        16.2521  -27.0160  -40.9223 H         1 UNK         0.0695 
     77 H77        16.9081  -25.4246  -41.1966 H         1 UNK         0.0695 
     78 H78        18.3495  -28.0801  -41.6784 H         1 UNK         0.0983 
     79 H79        18.9720  -25.6368  -42.8924 H         1 UNK         0.3095 
     80 H80        21.0376  -25.0784  -43.7380 H         1 UNK         0.0454 
     81 H81        23.2558  -27.1292  -43.1360 H         1 UNK         0.0851 
     82 H82        23.1716  -25.4606  -42.6221 H         1 UNK         0.0851 
     83 H83        23.4581  -25.8258  -44.2982 H         1 UNK         0.0851 
     84 H84        20.2839  -27.5657  -44.6965 H         1 UNK         0.2976 
     85 H85        18.9425  -28.9293  -39.8158 H         1 UNK         0.3116 
     86 H86        19.8240  -29.3123  -37.8440 H         1 UNK         0.0646 
     87 H87        18.6330  -26.6440  -36.9252 H         1 UNK         0.0847 
     88 H88        19.1159  -27.9835  -35.8969 H         1 UNK         0.0847 
     89 H89        17.7589  -28.1744  -36.9921 H         1 UNK         0.0847 
     90 H90        21.5297  -28.0329  -39.8271 H         1 UNK         0.3040 
     91 H91        23.7075  -27.1025  -38.0737 H         1 UNK         0.1015 
     92 H92        22.5857  -25.5368  -40.4601 H         1 UNK         0.0786 
     93 H93        24.1100  -25.1528  -39.6620 H         1 UNK         0.0786 
     94 H94        22.6014  -25.0178  -38.7877 H         1 UNK         0.0786 
     95 H95        25.5243  -26.5129  -39.9807 H         1 UNK         0.3172 
     96 H96        26.5352  -29.1272  -40.4794 H         1 UNK         0.0595 
     97 H97        27.6594  -26.3614  -41.1532 H         1 UNK         0.0839 
     98 H98        28.5618  -27.8683  -41.2041 H         1 UNK         0.0839 
     99 H99        27.9468  -27.2755  -39.6721 H         1 UNK         0.0839 
    100 H100       24.7652  -29.8033  -41.9432 H         1 UNK         0.2998 
    101 H101       25.9772  -30.1005  -44.5422 H         1 UNK         0.0822 
    102 H102       24.5032  -28.1201  -45.0284 H         1 UNK         0.0787 
    103 H103       23.9734  -29.5374  -45.8998 H         1 UNK         0.0787 
    104 H104       23.1036  -29.0222  -44.4538 H         1 UNK         0.0787 
    105 H105       23.2003  -31.2901  -45.3380 H         1 UNK         0.3055 
    106 H106       23.7376  -33.9568  -44.4920 H         1 UNK         0.1106 
    107 H107       21.6352  -34.4926  -45.6952 H         1 UNK         0.0828 
    108 H108       21.1992  -32.7944  -45.7601 H         1 UNK         0.0828 
    109 H109       22.6060  -33.3826  -46.6464 H         1 UNK         0.0828 
    110 H110       21.9880  -31.4442  -42.9150 H         1 UNK         0.2931 
    111 H111       20.4661  -33.1660  -41.1516 H         1 UNK         0.0412 
    112 H112       23.8541  -32.5279  -41.2145 H         1 UNK         0.3472 
    113 H113       24.1232  -32.8942  -39.5285 H         1 UNK         0.3472 
    114 H114       20.9765  -30.2986  -40.3704 H         1 UNK         0.0970 
    115 H115       20.1416  -30.5123  -41.8609 H         1 UNK         0.0970 
    116 H116       18.1759  -33.0016  -41.6229 H         1 UNK         0.0612 
    117 H117       16.7818  -32.3039  -40.8443 H         1 UNK         0.0612 
@<TRIPOS>BOND
     1    1    2 1    
     2    1   62 1    
     3    1   63 1    
     4    1   64 1    
     5    2    3 2    
     6    2    4 am   BACKBONE|DICT|INTERRES
     7    4    5 1    
     8    4   65 1    
     9    5    6 1    
    10    5   25 1    
    11    5   66 1    
    12    6    7 1    
    13    6   67 1    
    14    6   68 1    
    15    7    8 1    
    16    8    9 1    
    17    8   69 1    
    18    8   70 1    
    19    9   10 ar   
    20    9   14 ar   
    21   10   11 ar   
    22   10   71 1    
    23   11   12 ar   
    24   11   61 1    
    25   12   13 ar   
    26   12   72 1    
    27   13   14 ar   
    28   13   15 1    
    29   14   73 1    
    30   15   16 1    
    31   15   74 1    
    32   15   75 1    
    33   16   17 1    
    34   17   18 1    
    35   17   76 1    
    36   17   77 1    
    37   18   19 1    
    38   18   27 1    
    39   18   78 1    
    40   19   20 am   BACKBONE|DICT|INTERRES
    41   19   79 1    
    42   20   21 2    
    43   20   22 1    
    44   22   23 1    
    45   22   24 1    
    46   22   80 1    
    47   23   81 1    
    48   23   82 1    
    49   23   83 1    
    50   24   25 am   BACKBONE|DICT|INTERRES
    51   24   84 1    
    52   25   26 2    
    53   27   28 2    
    54   27   29 am   BACKBONE|DICT|INTERRES
    55   29   30 1    
    56   29   85 1    
    57   30   31 1    
    58   30   32 1    
    59   30   86 1    
    60   31   87 1    
    61   31   88 1    
    62   31   89 1    
    63   32   33 2    
    64   32   34 am   BACKBONE|DICT|INTERRES
    65   34   35 1    
    66   34   90 1    
    67   35   36 1    
    68   35   37 1    
    69   35   91 1    
    70   36   92 1    
    71   36   93 1    
    72   36   94 1    
    73   37   38 2    
    74   37   39 am   BACKBONE|DICT|INTERRES
    75   39   40 1    
    76   39   95 1    
    77   40   41 1    
    78   40   42 1    
    79   40   96 1    
    80   41   97 1    
    81   41   98 1    
    82   41   99 1    
    83   42   43 2    
    84   42   44 am   BACKBONE|DICT|INTERRES
    85   44   45 1    
    86   44  100 1    
    87   45   46 1    
    88   45   47 1    
    89   45  101 1    
    90   46  102 1    
    91   46  103 1    
    92   46  104 1    
    93   47   48 2    
    94   47   49 am   BACKBONE|DICT|INTERRES
    95   49   50 1    
    96   49  105 1    
    97   50   51 1    
    98   50   52 1    
    99   50  106 1    
   100   51  107 1    
   101   51  108 1    
   102   51  109 1    
   103   52   53 2    
   104   52   54 am   BACKBONE|DICT|INTERRES
   105   54   55 1    
   106   54  110 1    
   107   55   56 1    
   108   55   59 1    
   109   55  111 1    
   110   56   57 am   BACKBONE|DICT|INTERRES
   111   56   58 2    
   112   57  112 1    
   113   57  113 1    
   114   59   60 1    
   115   59  114 1    
   116   59  115 1    
   117   60   61 1    
   118   61  116 1    
   119   61  117 1    
@<TRIPOS>SUBSTRUCTURE
     1 UNK         1 GROUP             0       ****    0 ROOT    
