@<TRIPOS>MOLECULE
3R8
117   119    1
SMALL
USER_CHARGES


@<TRIPOS>ATOM
      1 CA         14.8250  -25.9209  -41.7761 C.3       0 UNK        -0.2013 
      2 C          15.9677  -26.1739  -42.7473 C.2       0 UNK         0.4866 
      3 O          16.7855  -27.0612  -42.5043 O.2       0 UNK        -0.5176 
      4 N          16.0302  -25.3949  -43.8373 N.am      1 UNK        -0.4884 
      5 CA         17.0013  -25.4396  -44.9466 C.3       1 UNK         0.0853 
      6 C6         17.0912  -26.8066  -45.6684 C.3       10 UNK        -0.0849 
      7 S7         15.4948  -27.4842  -46.2538 S.3       10 UNK        -0.2776 
      8 C8         15.3026  -29.0175  -45.2618 C.3       10 UNK         0.0316 
      9 C9         16.5775  -29.8514  -45.1201 C.ar      10 UNK        -0.0863 
     10 C10        16.8859  -30.4426  -43.8905 C.ar      10 UNK        -0.1009 
     11 C11        18.0935  -31.1251  -43.7080 C.ar      10 UNK        -0.0712 
     12 C12        19.0098  -31.1968  -44.7621 C.ar      10 UNK        -0.0894 
     13 C13        18.7168  -30.6008  -45.9923 C.ar      10 UNK        -0.0745 
     14 C14        17.4826  -29.9759  -46.1791 C.ar      10 UNK        -0.0972 
     15 C15        19.7428  -30.5670  -47.1122 C.3       10 UNK         0.0209 
     16 S16        20.5166  -28.9185  -47.2260 S.3       10 UNK        -0.2568 
     17 C17        21.8139  -29.0514  -45.9561 C.3       10 UNK        -0.0983 
     18 CA         22.2834  -27.6747  -45.4194 C.3       3 UNK         0.0876 
     19 N          21.2767  -27.0370  -44.5549 N.am      3 UNK        -0.4424 
     20 C          21.4212  -25.8613  -43.9203 C.2       2 UNK         0.4918 
     21 O          22.4037  -25.1286  -44.0538 O.2       2 UNK        -0.4875 
     22 CA         20.3066  -25.4661  -42.9315 C.3       2 UNK         0.0481 
     23 CB         20.5022  -24.0603  -42.3264 C.3       2 UNK        -0.1831 
     24 N          18.9619  -25.6166  -43.4876 N.am      2 UNK        -0.4498 
     25 C          18.4223  -24.9910  -44.5427 C.2       1 UNK         0.5027 
     26 O          18.9932  -24.1194  -45.1991 O.2       1 UNK        -0.4969 
     27 C          23.6146  -27.8470  -44.6606 C.2       3 UNK         0.5005 
     28 O          23.6552  -28.6131  -43.6966 O.2       3 UNK        -0.5279 
     29 N          24.6493  -27.0954  -45.0687 N.am      4 UNK        -0.4463 
     30 CA         25.9818  -27.0250  -44.4502 C.3       4 UNK         0.0283 
     31 CB         26.7832  -28.3074  -44.7554 C.3       4 UNK        -0.1875 
     32 C          25.9328  -26.6859  -42.9441 C.2       4 UNK         0.4949 
     33 O          26.6319  -27.3127  -42.1476 O.2       4 UNK        -0.5039 
     34 N          25.0769  -25.7132  -42.5915 N.am      5 UNK        -0.4663 
     35 CA         24.7430  -25.2764  -41.2281 C.3       5 UNK         0.0242 
     36 CB         25.9771  -24.7113  -40.4911 C.3       5 UNK        -0.1982 
     37 C          23.9902  -26.3576  -40.4251 C.2       5 UNK         0.5017 
     38 O          24.2198  -26.5080  -39.2243 O.2       5 UNK        -0.5012 
     39 N          23.0866  -27.0657  -41.1181 N.am      6 UNK        -0.4439 
     40 CA         22.2074  -28.1377  -40.6370 C.3       6 UNK         0.0297 
     41 CB         21.2664  -27.6362  -39.5196 C.3       6 UNK        -0.2006 
     42 C          22.9916  -29.4061  -40.2543 C.2       6 UNK         0.4892 
     43 O          22.7674  -29.9810  -39.1862 O.2       6 UNK        -0.5089 
     44 N          23.9033  -29.8206  -41.1433 N.am      7 UNK        -0.4243 
     45 CA         24.7205  -31.0225  -40.9996 C.3       7 UNK         0.0196 
     46 CB         25.8340  -31.0135  -42.0580 C.3       7 UNK        -0.2007 
     47 C          23.8583  -32.2873  -41.1243 C.2       7 UNK         0.5020 
     48 O          23.1762  -32.4617  -42.1353 O.2       7 UNK        -0.5147 
     49 N          23.9124  -33.1377  -40.0901 N.am      8 UNK        -0.4734 
     50 CA         23.1934  -34.4126  -39.9439 C.3       8 UNK         0.0238 
     51 CB         23.6383  -35.4242  -41.0229 C.3       8 UNK        -0.1912 
     52 C          21.6564  -34.2866  -39.8595 C.2       8 UNK         0.5038 
     53 O          20.9681  -35.3015  -39.9836 O.2       8 UNK        -0.5046 
     54 N          21.1395  -33.0731  -39.6193 N.am      9 UNK        -0.4200 
     55 CA         19.7049  -32.8074  -39.4192 C.3       9 UNK         0.0839 
     56 C          19.1677  -33.2167  -38.0162 C.2       9 UNK         0.5513 
     57 N          20.0112  -33.5500  -37.0461 N.am      9 UNK        -0.7519 
     58 O          17.9576  -33.2392  -37.8073 O.2       9 UNK        -0.4960 
     59 C59        19.3307  -31.3373  -39.7428 C.3       10 UNK        -0.0876 
     60 S60        19.6909  -30.8411  -41.4616 S.3       10 UNK        -0.2414 
     61 C61        18.4117  -31.7676  -42.3660 C.3       10 UNK         0.0169 
     62 H62        15.2188  -25.6566  -40.7951 H         1 UNK         0.0903 
     63 H63        14.1745  -25.1129  -42.1104 H         1 UNK         0.0903 
     64 H64        14.2201  -26.8209  -41.6693 H         1 UNK         0.0903 
     65 H65        15.3279  -24.6752  -43.9413 H         1 UNK         0.3096 
     66 H66        16.6440  -24.7107  -45.6764 H         1 UNK         0.1121 
     67 H67        17.5852  -27.5220  -45.0127 H         1 UNK         0.0849 
     68 H68        17.7399  -26.7248  -46.5432 H         1 UNK         0.0849 
     69 H69        14.9346  -28.7310  -44.2754 H         1 UNK         0.0865 
     70 H70        14.5249  -29.6352  -45.7124 H         1 UNK         0.0865 
     71 H71        16.1949  -30.3501  -43.0636 H         1 UNK         0.1346 
     72 H72        19.9606  -31.6899  -44.6107 H         1 UNK         0.1412 
     73 H73        17.2650  -29.5117  -47.1313 H         1 UNK         0.1426 
     74 H74        19.2528  -30.7947  -48.0600 H         1 UNK         0.0716 
     75 H75        20.5083  -31.3316  -46.9701 H         1 UNK         0.0716 
     76 H76        22.6434  -29.5932  -46.4159 H         1 UNK         0.0695 
     77 H77        21.4632  -29.6780  -45.1340 H         1 UNK         0.0695 
     78 H78        22.4541  -27.0111  -46.2696 H         1 UNK         0.0983 
     79 H79        20.4409  -27.5771  -44.3866 H         1 UNK         0.3095 
     80 H80        20.3648  -26.1819  -42.1121 H         1 UNK         0.0454 
     81 H81        20.5031  -23.2846  -43.0928 H         1 UNK         0.0851 
     82 H82        21.4520  -23.9923  -41.7952 H         1 UNK         0.0851 
     83 H83        19.7154  -23.8238  -41.6104 H         1 UNK         0.0851 
     84 H84        18.3586  -26.2952  -43.0233 H         1 UNK         0.2976 
     85 H85        24.5001  -26.4635  -45.8442 H         1 UNK         0.3116 
     86 H86        26.5019  -26.1930  -44.9274 H         1 UNK         0.0646 
     87 H87        26.8666  -28.4761  -45.8289 H         1 UNK         0.0847 
     88 H88        26.3170  -29.1877  -44.3156 H         1 UNK         0.0847 
     89 H89        27.7975  -28.2426  -44.3597 H         1 UNK         0.0847 
     90 H90        24.5219  -25.2892  -43.3273 H         1 UNK         0.3040 
     91 H91        24.0360  -24.4531  -41.3440 H         1 UNK         0.1015 
     92 H92        26.7030  -25.4891  -40.2529 H         1 UNK         0.0786 
     93 H93        25.6868  -24.2438  -39.5494 H         1 UNK         0.0786 
     94 H94        26.4819  -23.9508  -41.0867 H         1 UNK         0.0786 
     95 H95        23.0840  -26.9283  -42.1191 H         1 UNK         0.3172 
     96 H96        21.5838  -28.4142  -41.4883 H         1 UNK         0.0595 
     97 H97        20.5010  -28.3789  -39.2961 H         1 UNK         0.0839 
     98 H98        20.7513  -26.7202  -39.8064 H         1 UNK         0.0839 
     99 H99        21.8047  -27.4401  -38.5919 H         1 UNK         0.0839 
    100 H100       23.9549  -29.3397  -42.0402 H         1 UNK         0.2998 
    101 H101       25.1881  -30.9952  -40.0130 H         1 UNK         0.0822 
    102 H102       26.4643  -30.1291  -41.9622 H         1 UNK         0.0787 
    103 H103       26.4791  -31.8869  -41.9544 H         1 UNK         0.0787 
    104 H104       25.4234  -31.0276  -43.0685 H         1 UNK         0.0787 
    105 H105       24.4913  -32.8806  -39.3012 H         1 UNK         0.3055 
    106 H106       23.5002  -34.8174  -38.9781 H         1 UNK         0.1106 
    107 H107       23.2956  -35.1349  -42.0167 H         1 UNK         0.0828 
    108 H108       23.2360  -36.4175  -40.8201 H         1 UNK         0.0828 
    109 H109       24.7236  -35.5190  -41.0561 H         1 UNK         0.0828 
    110 H110       21.7616  -32.2806  -39.5387 H         1 UNK         0.2931 
    111 H111       19.1591  -33.4356  -40.1255 H         1 UNK         0.0412 
    112 H112       19.6464  -33.8169  -36.1449 H         1 UNK         0.3472 
    113 H113       21.0060  -33.5299  -37.2018 H         1 UNK         0.3472 
    114 H114       19.8690  -30.6638  -39.0744 H         1 UNK         0.0970 
    115 H115       18.2703  -31.1542  -39.5577 H         1 UNK         0.0970 
    116 H116       18.7554  -32.7912  -42.5221 H         1 UNK         0.0612 
    117 H117       17.5081  -31.8343  -41.7583 H         1 UNK         0.0612 
@<TRIPOS>BOND
     1    1    2 1    
     2    1   62 1    
     3    1   63 1    
     4    1   64 1    
     5    2    3 2    
     6    2    4 am   BACKBONE|DICT|INTERRES
     7    4    5 1    
     8    4   65 1    
     9    5    6 1    
    10    5   25 1    
    11    5   66 1    
    12    6    7 1    
    13    6   67 1    
    14    6   68 1    
    15    7    8 1    
    16    8    9 1    
    17    8   69 1    
    18    8   70 1    
    19    9   10 ar   
    20    9   14 ar   
    21   10   11 ar   
    22   10   71 1    
    23   11   12 ar   
    24   11   61 1    
    25   12   13 ar   
    26   12   72 1    
    27   13   14 ar   
    28   13   15 1    
    29   14   73 1    
    30   15   16 1    
    31   15   74 1    
    32   15   75 1    
    33   16   17 1    
    34   17   18 1    
    35   17   76 1    
    36   17   77 1    
    37   18   19 1    
    38   18   27 1    
    39   18   78 1    
    40   19   20 am   BACKBONE|DICT|INTERRES
    41   19   79 1    
    42   20   21 2    
    43   20   22 1    
    44   22   23 1    
    45   22   24 1    
    46   22   80 1    
    47   23   81 1    
    48   23   82 1    
    49   23   83 1    
    50   24   25 am   BACKBONE|DICT|INTERRES
    51   24   84 1    
    52   25   26 2    
    53   27   28 2    
    54   27   29 am   BACKBONE|DICT|INTERRES
    55   29   30 1    
    56   29   85 1    
    57   30   31 1    
    58   30   32 1    
    59   30   86 1    
    60   31   87 1    
    61   31   88 1    
    62   31   89 1    
    63   32   33 2    
    64   32   34 am   BACKBONE|DICT|INTERRES
    65   34   35 1    
    66   34   90 1    
    67   35   36 1    
    68   35   37 1    
    69   35   91 1    
    70   36   92 1    
    71   36   93 1    
    72   36   94 1    
    73   37   38 2    
    74   37   39 am   BACKBONE|DICT|INTERRES
    75   39   40 1    
    76   39   95 1    
    77   40   41 1    
    78   40   42 1    
    79   40   96 1    
    80   41   97 1    
    81   41   98 1    
    82   41   99 1    
    83   42   43 2    
    84   42   44 am   BACKBONE|DICT|INTERRES
    85   44   45 1    
    86   44  100 1    
    87   45   46 1    
    88   45   47 1    
    89   45  101 1    
    90   46  102 1    
    91   46  103 1    
    92   46  104 1    
    93   47   48 2    
    94   47   49 am   BACKBONE|DICT|INTERRES
    95   49   50 1    
    96   49  105 1    
    97   50   51 1    
    98   50   52 1    
    99   50  106 1    
   100   51  107 1    
   101   51  108 1    
   102   51  109 1    
   103   52   53 2    
   104   52   54 am   BACKBONE|DICT|INTERRES
   105   54   55 1    
   106   54  110 1    
   107   55   56 1    
   108   55   59 1    
   109   55  111 1    
   110   56   57 am   BACKBONE|DICT|INTERRES
   111   56   58 2    
   112   57  112 1    
   113   57  113 1    
   114   59   60 1    
   115   59  114 1    
   116   59  115 1    
   117   60   61 1    
   118   61  116 1    
   119   61  117 1    
@<TRIPOS>SUBSTRUCTURE
     1 UNK         1 GROUP             0       ****    0 ROOT    
