@<TRIPOS>MOLECULE
3R8
117   119    1
SMALL
USER_CHARGES


@<TRIPOS>ATOM
      1 CA         16.9389  -26.7509  -41.5353 C.3       0 UNK        -0.2013 
      2 C          17.2700  -26.6730  -43.0171 C.2       0 UNK         0.4866 
      3 O          18.4148  -26.9236  -43.3925 O.2       0 UNK        -0.5176 
      4 N          16.2874  -26.2922  -43.8501 N.am      1 UNK        -0.4884 
      5 CA         16.3155  -26.2657  -45.3281 C.3       1 UNK         0.0853 
      6 C6         16.3976  -27.6847  -45.9519 C.3       10 UNK        -0.0849 
      7 S7         15.1021  -28.8357  -45.3725 S.3       10 UNK        -0.2776 
      8 C8         15.7462  -30.4342  -45.9762 C.3       10 UNK         0.0316 
      9 C9         17.1035  -30.7559  -45.3678 C.ar      10 UNK        -0.0863 
     10 C10        17.1916  -31.2277  -44.0556 C.ar      10 UNK        -0.1009 
     11 C11        18.4397  -31.4364  -43.4633 C.ar      10 UNK        -0.0712 
     12 C12        19.6043  -31.1662  -44.1892 C.ar      10 UNK        -0.0894 
     13 C13        19.5270  -30.7003  -45.5046 C.ar      10 UNK        -0.0745 
     14 C14        18.2742  -30.5259  -46.0979 C.ar      10 UNK        -0.0972 
     15 C15        20.7906  -30.3502  -46.2776 C.3       10 UNK         0.0209 
     16 S16        20.9811  -28.5479  -46.4822 S.3       10 UNK        -0.2568 
     17 C17        21.3407  -28.0290  -44.7733 C.3       10 UNK        -0.0983 
     18 CA         21.6029  -26.5058  -44.6641 C.3       3 UNK         0.0876 
     19 N          20.4254  -25.6948  -44.9843 N.am      3 UNK        -0.4424 
     20 C          20.4633  -24.4146  -45.3846 C.2       2 UNK         0.4918 
     21 O          21.5025  -23.8426  -45.7162 O.2       2 UNK        -0.4875 
     22 CA         19.1439  -23.6074  -45.3612 C.3       2 UNK         0.0481 
     23 CB         18.9859  -22.7009  -46.6005 C.3       2 UNK        -0.1831 
     24 N          17.9443  -24.4209  -45.1201 N.am      2 UNK        -0.4498 
     25 C          17.4097  -25.3474  -45.9298 C.2       1 UNK         0.5027 
     26 O          17.7731  -25.5183  -47.0946 O.2       1 UNK        -0.4969 
     27 C          22.0736  -26.1192  -43.2512 C.2       3 UNK         0.5005 
     28 O          23.2285  -25.7249  -43.0852 O.2       3 UNK        -0.5279 
     29 N          21.1385  -26.1750  -42.2870 N.am      4 UNK        -0.4463 
     30 CA         21.1644  -25.6501  -40.9111 C.3       4 UNK         0.0283 
     31 CB         21.1969  -24.1106  -40.9324 C.3       4 UNK        -0.1875 
     32 C          22.2494  -26.1921  -39.9575 C.2       4 UNK         0.4949 
     33 O          21.9578  -26.3877  -38.7770 O.2       4 UNK        -0.5039 
     34 N          23.4681  -26.4105  -40.4529 N.am      5 UNK        -0.4663 
     35 CA         24.6270  -26.8910  -39.7033 C.3       5 UNK         0.0242 
     36 CB         25.4658  -25.6903  -39.2242 C.3       5 UNK        -0.1982 
     37 C          25.4215  -27.8884  -40.5587 C.2       5 UNK         0.5017 
     38 O          26.6453  -27.7832  -40.6629 O.2       5 UNK        -0.5012 
     39 N          24.7000  -28.8371  -41.1630 N.am      6 UNK        -0.4439 
     40 CA         25.2448  -29.9897  -41.8750 C.3       6 UNK         0.0297 
     41 CB         24.3241  -30.2987  -43.0701 C.3       6 UNK        -0.2006 
     42 C          25.3399  -31.1921  -40.9205 C.2       6 UNK         0.4892 
     43 O          24.8893  -31.1177  -39.7745 O.2       6 UNK        -0.5089 
     44 N          25.9005  -32.3017  -41.4191 N.am      7 UNK        -0.4243 
     45 CA         25.9792  -33.5765  -40.6963 C.3       7 UNK         0.0196 
     46 CB         26.8760  -34.5509  -41.4772 C.3       7 UNK        -0.2007 
     47 C          24.6009  -34.2106  -40.4255 C.2       7 UNK         0.5020 
     48 O          24.4458  -34.9109  -39.4249 O.2       7 UNK        -0.5147 
     49 N          23.6312  -33.9574  -41.3164 N.am      8 UNK        -0.4734 
     50 CA         22.2529  -34.4356  -41.1965 C.3       8 UNK         0.0238 
     51 CB         21.5730  -34.3904  -42.5749 C.3       8 UNK        -0.1912 
     52 C          21.4381  -33.6551  -40.1502 C.2       8 UNK         0.5038 
     53 O          20.7075  -34.2777  -39.3788 O.2       8 UNK        -0.5046 
     54 N          21.5734  -32.3230  -40.1398 N.am      9 UNK        -0.4200 
     55 CA         20.9056  -31.4004  -39.2125 C.3       9 UNK         0.0839 
     56 C          21.5520  -29.9923  -39.2759 C.2       9 UNK         0.5513 
     57 N          21.4228  -29.2059  -38.2170 N.am      9 UNK        -0.7519 
     58 O          22.1200  -29.5902  -40.2899 O.2       9 UNK        -0.4960 
     59 C59        19.3557  -31.3488  -39.3892 C.3       10 UNK        -0.0876 
     60 S60        18.7784  -30.5097  -40.9074 S.3       10 UNK        -0.2414 
     61 C61        18.5351  -31.9161  -42.0267 C.3       10 UNK         0.0169 
     62 H62        17.1499  -27.7525  -41.1611 H         1 UNK         0.0903 
     63 H63        17.5493  -26.0428  -40.9758 H         1 UNK         0.0903 
     64 H64        15.8904  -26.5295  -41.3379 H         1 UNK         0.0903 
     65 H65        15.3834  -26.0768  -43.4518 H         1 UNK         0.3096 
     66 H66        15.3674  -25.8251  -45.6408 H         1 UNK         0.1121 
     67 H67        17.3792  -28.0992  -45.7256 H         1 UNK         0.0849 
     68 H68        16.3261  -27.6404  -47.0403 H         1 UNK         0.0849 
     69 H69        15.0358  -31.2233  -45.7256 H         1 UNK         0.0865 
     70 H70        15.8063  -30.4122  -47.0655 H         1 UNK         0.0865 
     71 H71        16.2889  -31.3989  -43.4850 H         1 UNK         0.1346 
     72 H72        20.5689  -31.2913  -43.7180 H         1 UNK         0.1412 
     73 H73        18.2137  -30.1480  -47.1096 H         1 UNK         0.1426 
     74 H74        20.7481  -30.8148  -47.2638 H         1 UNK         0.0716 
     75 H75        21.6763  -30.7555  -45.7856 H         1 UNK         0.0716 
     76 H76        22.2113  -28.5898  -44.4322 H         1 UNK         0.0695 
     77 H77        20.5111  -28.3324  -44.1327 H         1 UNK         0.0695 
     78 H78        22.4065  -26.2519  -45.3592 H         1 UNK         0.0983 
     79 H79        19.5376  -26.0869  -44.6836 H         1 UNK         0.3095 
     80 H80        19.2218  -22.9510  -44.4934 H         1 UNK         0.0454 
     81 H81        19.0112  -23.2699  -47.5299 H         1 UNK         0.0851 
     82 H82        19.7929  -21.9692  -46.6526 H         1 UNK         0.0851 
     83 H83        18.0491  -22.1449  -46.5707 H         1 UNK         0.0851 
     84 H84        17.5682  -24.3717  -44.1830 H         1 UNK         0.2976 
     85 H85        20.2383  -26.5566  -42.5660 H         1 UNK         0.3116 
     86 H86        20.2085  -25.9490  -40.4778 H         1 UNK         0.0646 
     87 H87        20.3579  -23.7035  -41.4968 H         1 UNK         0.0847 
     88 H88        22.1169  -23.7318  -41.3790 H         1 UNK         0.0847 
     89 H89        21.1351  -23.7038  -39.9221 H         1 UNK         0.0847 
     90 H90        23.6088  -26.2231  -41.4465 H         1 UNK         0.3040 
     91 H91        24.2924  -27.4484  -38.8253 H         1 UNK         0.1015 
     92 H92        26.3249  -26.0200  -38.6386 H         1 UNK         0.0786 
     93 H93        24.8789  -25.0259  -38.5898 H         1 UNK         0.0786 
     94 H94        25.8438  -25.1054  -40.0636 H         1 UNK         0.0786 
     95 H95        23.7129  -28.9077  -40.9174 H         1 UNK         0.3172 
     96 H96        26.2462  -29.7668  -42.2487 H         1 UNK         0.0595 
     97 H97        23.3033  -30.5157  -42.7525 H         1 UNK         0.0839 
     98 H98        24.6800  -31.1541  -43.6450 H         1 UNK         0.0839 
     99 H99        24.2882  -29.4529  -43.7562 H         1 UNK         0.0839 
    100 H100       26.2679  -32.2868  -42.3600 H         1 UNK         0.2998 
    101 H101       26.4456  -33.3843  -39.7274 H         1 UNK         0.0822 
    102 H102       27.8820  -34.1502  -41.6044 H         1 UNK         0.0787 
    103 H103       26.9724  -35.5004  -40.9485 H         1 UNK         0.0787 
    104 H104       26.4721  -34.7689  -42.4667 H         1 UNK         0.0787 
    105 H105       23.8562  -33.3890  -42.1191 H         1 UNK         0.3055 
    106 H106       22.2799  -35.4790  -40.8725 H         1 UNK         0.1106 
    107 H107       22.0894  -35.0298  -43.2911 H         1 UNK         0.0828 
    108 H108       21.5499  -33.3810  -42.9853 H         1 UNK         0.0828 
    109 H109       20.5430  -34.7448  -42.5146 H         1 UNK         0.0828 
    110 H110       22.2217  -31.8746  -40.7717 H         1 UNK         0.2931 
    111 H111       21.1116  -31.7860  -38.2119 H         1 UNK         0.0412 
    112 H112       21.7631  -28.2517  -38.2763 H         1 UNK         0.3472 
    113 H113       20.9461  -29.5169  -37.3857 H         1 UNK         0.3472 
    114 H114       18.9241  -32.3488  -39.3413 H         1 UNK         0.0970 
    115 H115       18.9177  -30.8162  -38.5437 H         1 UNK         0.0970 
    116 H116       17.6351  -32.4604  -41.7367 H         1 UNK         0.0612 
    117 H117       19.3646  -32.6140  -41.9320 H         1 UNK         0.0612 
@<TRIPOS>BOND
     1    1    2 1    
     2    1   62 1    
     3    1   63 1    
     4    1   64 1    
     5    2    3 2    
     6    2    4 am   BACKBONE|DICT|INTERRES
     7    4    5 1    
     8    4   65 1    
     9    5    6 1    
    10    5   25 1    
    11    5   66 1    
    12    6    7 1    
    13    6   67 1    
    14    6   68 1    
    15    7    8 1    
    16    8    9 1    
    17    8   69 1    
    18    8   70 1    
    19    9   10 ar   
    20    9   14 ar   
    21   10   11 ar   
    22   10   71 1    
    23   11   12 ar   
    24   11   61 1    
    25   12   13 ar   
    26   12   72 1    
    27   13   14 ar   
    28   13   15 1    
    29   14   73 1    
    30   15   16 1    
    31   15   74 1    
    32   15   75 1    
    33   16   17 1    
    34   17   18 1    
    35   17   76 1    
    36   17   77 1    
    37   18   19 1    
    38   18   27 1    
    39   18   78 1    
    40   19   20 am   BACKBONE|DICT|INTERRES
    41   19   79 1    
    42   20   21 2    
    43   20   22 1    
    44   22   23 1    
    45   22   24 1    
    46   22   80 1    
    47   23   81 1    
    48   23   82 1    
    49   23   83 1    
    50   24   25 am   BACKBONE|DICT|INTERRES
    51   24   84 1    
    52   25   26 2    
    53   27   28 2    
    54   27   29 am   BACKBONE|DICT|INTERRES
    55   29   30 1    
    56   29   85 1    
    57   30   31 1    
    58   30   32 1    
    59   30   86 1    
    60   31   87 1    
    61   31   88 1    
    62   31   89 1    
    63   32   33 2    
    64   32   34 am   BACKBONE|DICT|INTERRES
    65   34   35 1    
    66   34   90 1    
    67   35   36 1    
    68   35   37 1    
    69   35   91 1    
    70   36   92 1    
    71   36   93 1    
    72   36   94 1    
    73   37   38 2    
    74   37   39 am   BACKBONE|DICT|INTERRES
    75   39   40 1    
    76   39   95 1    
    77   40   41 1    
    78   40   42 1    
    79   40   96 1    
    80   41   97 1    
    81   41   98 1    
    82   41   99 1    
    83   42   43 2    
    84   42   44 am   BACKBONE|DICT|INTERRES
    85   44   45 1    
    86   44  100 1    
    87   45   46 1    
    88   45   47 1    
    89   45  101 1    
    90   46  102 1    
    91   46  103 1    
    92   46  104 1    
    93   47   48 2    
    94   47   49 am   BACKBONE|DICT|INTERRES
    95   49   50 1    
    96   49  105 1    
    97   50   51 1    
    98   50   52 1    
    99   50  106 1    
   100   51  107 1    
   101   51  108 1    
   102   51  109 1    
   103   52   53 2    
   104   52   54 am   BACKBONE|DICT|INTERRES
   105   54   55 1    
   106   54  110 1    
   107   55   56 1    
   108   55   59 1    
   109   55  111 1    
   110   56   57 am   BACKBONE|DICT|INTERRES
   111   56   58 2    
   112   57  112 1    
   113   57  113 1    
   114   59   60 1    
   115   59  114 1    
   116   59  115 1    
   117   60   61 1    
   118   61  116 1    
   119   61  117 1    
@<TRIPOS>SUBSTRUCTURE
     1 UNK         1 GROUP             0       ****    0 ROOT    
