@<TRIPOS>MOLECULE
3R8
117   119    1
SMALL
USER_CHARGES


@<TRIPOS>ATOM
      1 CA         17.2130  -22.2095  -46.1694 C.3       0 UNK        -0.2013 
      2 C          17.7880  -23.6040  -45.9752 C.2       0 UNK         0.4866 
      3 O          18.4185  -24.1410  -46.8870 O.2       0 UNK        -0.5176 
      4 N          17.5888  -24.1953  -44.7904 N.am      1 UNK        -0.4884 
      5 CA         18.0439  -25.5404  -44.4141 C.3       1 UNK         0.0853 
      6 C6         17.1692  -26.1403  -43.2809 C.3       10 UNK        -0.0849 
      7 S7         15.4665  -26.4773  -43.8519 S.3       10 UNK        -0.2776 
      8 C8         15.0719  -28.0688  -43.0324 C.3       10 UNK         0.0316 
      9 C9         15.9951  -29.2465  -43.3609 C.ar      10 UNK        -0.0863 
     10 C10        16.0603  -30.3201  -42.4666 C.ar      10 UNK        -0.1009 
     11 C11        16.9250  -31.3968  -42.6946 C.ar      10 UNK        -0.0712 
     12 C12        17.7239  -31.4048  -43.8416 C.ar      10 UNK        -0.0894 
     13 C13        17.6574  -30.3494  -44.7537 C.ar      10 UNK        -0.0745 
     14 C14        16.7784  -29.2880  -44.5199 C.ar      10 UNK        -0.0972 
     15 C15        18.5247  -30.3437  -46.0007 C.3       10 UNK         0.0209 
     16 S16        19.7240  -28.9760  -45.9594 S.3       10 UNK        -0.2568 
     17 C17        21.2485  -29.7674  -45.3263 C.3       10 UNK        -0.0983 
     18 CA         22.0419  -28.9598  -44.2548 C.3       3 UNK         0.0876 
     19 N          21.8759  -27.5145  -44.3112 N.am      3 UNK        -0.4424 
     20 C          22.3905  -26.6477  -45.1789 C.2       2 UNK         0.4918 
     21 O          23.2017  -26.9449  -46.0563 O.2       2 UNK        -0.4875 
     22 CA         21.8602  -25.2037  -45.0303 C.3       2 UNK         0.0481 
     23 CB         22.4046  -24.2602  -46.1172 C.3       2 UNK        -0.1831 
     24 N          20.3904  -25.1471  -45.0415 N.am      2 UNK        -0.4498 
     25 C          19.5529  -25.5609  -44.0780 C.2       1 UNK         0.5027 
     26 O          19.9433  -25.9899  -42.9869 O.2       1 UNK        -0.4969 
     27 C          21.7511  -29.3670  -42.8064 C.2       3 UNK         0.5005 
     28 O          22.6371  -29.9144  -42.1516 O.2       3 UNK        -0.5279 
     29 N          20.5725  -28.9955  -42.2808 N.am      4 UNK        -0.4463 
     30 CA         20.2616  -29.0528  -40.8454 C.3       4 UNK         0.0283 
     31 CB         18.7844  -28.7178  -40.6064 C.3       4 UNK        -0.1875 
     32 C          21.1442  -28.1024  -40.0226 C.2       4 UNK         0.4949 
     33 O          21.6682  -28.5007  -38.9836 O.2       4 UNK        -0.5039 
     34 N          21.3199  -26.8752  -40.5333 N.am      5 UNK        -0.4663 
     35 CA         22.1831  -25.8393  -39.9590 C.3       5 UNK         0.0242 
     36 CB         21.7452  -24.4752  -40.5195 C.3       5 UNK        -0.1982 
     37 C          23.6861  -26.0719  -40.2131 C.2       5 UNK         0.5017 
     38 O          24.5026  -25.3284  -39.6675 O.2       5 UNK        -0.5012 
     39 N          24.0222  -27.0701  -41.0400 N.am      6 UNK        -0.4439 
     40 CA         25.3817  -27.4791  -41.3762 C.3       6 UNK         0.0297 
     41 CB         25.5606  -27.4319  -42.9078 C.3       6 UNK        -0.2006 
     42 C          25.6437  -28.8556  -40.7429 C.2       6 UNK         0.4892 
     43 O          25.5904  -28.9697  -39.5175 O.2       6 UNK        -0.5089 
     44 N          25.9210  -29.8764  -41.5640 N.am      7 UNK        -0.4243 
     45 CA         26.2938  -31.2364  -41.1609 C.3       7 UNK         0.0196 
     46 CB         27.0586  -31.8957  -42.3250 C.3       7 UNK        -0.2007 
     47 C          25.1141  -32.1034  -40.6658 C.2       7 UNK         0.5020 
     48 O          25.0275  -33.2742  -41.0386 O.2       7 UNK        -0.5147 
     49 N          24.2390  -31.5281  -39.8287 N.am      8 UNK        -0.4734 
     50 CA         23.1193  -32.1605  -39.1141 C.3       8 UNK         0.0238 
     51 CB         23.6621  -32.9548  -37.9077 C.3       8 UNK        -0.1912 
     52 C          22.1920  -33.0081  -40.0111 C.2       8 UNK         0.5038 
     53 O          21.9120  -34.1645  -39.6890 O.2       8 UNK        -0.5046 
     54 N          21.7611  -32.4128  -41.1292 N.am      9 UNK        -0.4200 
     55 CA         20.9367  -33.0063  -42.1975 C.3       9 UNK         0.0839 
     56 C          21.7174  -33.9433  -43.1660 C.2       9 UNK         0.5513 
     57 N          23.0232  -34.1350  -43.0234 N.am      9 UNK        -0.7519 
     58 O          21.1287  -34.4836  -44.0987 O.2       9 UNK        -0.4960 
     59 C59        19.6077  -33.6571  -41.7083 C.3       10 UNK        -0.0876 
     60 S60        18.5414  -32.5341  -40.7370 S.3       10 UNK        -0.2414 
     61 C61        16.9910  -32.5447  -41.6967 C.3       10 UNK         0.0169 
     62 H62        18.0117  -21.5017  -46.3900 H         1 UNK         0.0903 
     63 H63        16.5138  -22.2060  -47.0051 H         1 UNK         0.0903 
     64 H64        16.6839  -21.8590  -45.2833 H         1 UNK         0.0903 
     65 H65        17.0740  -23.7004  -44.0755 H         1 UNK         0.3096 
     66 H66        17.9342  -26.1923  -45.2844 H         1 UNK         0.1121 
     67 H67        17.5997  -27.0762  -42.9258 H         1 UNK         0.0849 
     68 H68        17.1359  -25.4751  -42.4163 H         1 UNK         0.0849 
     69 H69        15.0708  -27.8980  -41.9545 H         1 UNK         0.0865 
     70 H70        14.0519  -28.3485  -43.2988 H         1 UNK         0.0865 
     71 H71        15.4506  -30.3069  -41.5732 H         1 UNK         0.1346 
     72 H72        18.3963  -32.2309  -44.0234 H         1 UNK         0.1412 
     73 H73        16.7302  -28.4837  -45.2400 H         1 UNK         0.1426 
     74 H74        17.8824  -30.2164  -46.8732 H         1 UNK         0.0716 
     75 H75        19.0381  -31.2965  -46.1384 H         1 UNK         0.0716 
     76 H76        21.0264  -30.7752  -44.9705 H         1 UNK         0.0695 
     77 H77        21.8926  -29.9109  -46.1951 H         1 UNK         0.0695 
     78 H78        23.0997  -29.1725  -44.4194 H         1 UNK         0.0983 
     79 H79        21.2169  -27.1242  -43.6444 H         1 UNK         0.3095 
     80 H80        22.2079  -24.8329  -44.0642 H         1 UNK         0.0454 
     81 H81        23.4951  -24.2388  -46.1076 H         1 UNK         0.0851 
     82 H82        22.0922  -24.5726  -47.1145 H         1 UNK         0.0851 
     83 H83        22.0612  -23.2372  -45.9632 H         1 UNK         0.0851 
     84 H84        19.9574  -24.8227  -45.9022 H         1 UNK         0.2976 
     85 H85        19.8706  -28.5884  -42.8830 H         1 UNK         0.3116 
     86 H86        20.4393  -30.0705  -40.4955 H         1 UNK         0.0646 
     87 H87        18.5266  -28.8296  -39.5525 H         1 UNK         0.0847 
     88 H88        18.1407  -29.3899  -41.1643 H         1 UNK         0.0847 
     89 H89        18.5421  -27.6947  -40.8932 H         1 UNK         0.0847 
     90 H90        20.8094  -26.6170  -41.3732 H         1 UNK         0.3040 
     91 H91        22.0384  -25.8292  -38.8763 H         1 UNK         0.1015 
     92 H92        22.3208  -23.6634  -40.0727 H         1 UNK         0.0786 
     93 H93        20.6936  -24.2785  -40.3094 H         1 UNK         0.0786 
     94 H94        21.8861  -24.4189  -41.5994 H         1 UNK         0.0786 
     95 H95        23.2839  -27.6828  -41.3558 H         1 UNK         0.3172 
     96 H96        26.1084  -26.7923  -40.9377 H         1 UNK         0.0595 
     97 H97        25.3722  -26.4284  -43.2902 H         1 UNK         0.0839 
     98 H98        24.8828  -28.1085  -43.4256 H         1 UNK         0.0839 
     99 H99        26.5803  -27.6919  -43.1953 H         1 UNK         0.0839 
    100 H100       25.8903  -29.7039  -42.5578 H         1 UNK         0.2998 
    101 H101       26.9861  -31.1582  -40.3198 H         1 UNK         0.0822 
    102 H102       27.9186  -31.2974  -42.6265 H         1 UNK         0.0787 
    103 H103       27.4383  -32.8781  -42.0407 H         1 UNK         0.0787 
    104 H104       26.4199  -32.0328  -43.1986 H         1 UNK         0.0787 
    105 H105       24.4098  -30.5515  -39.6060 H         1 UNK         0.3055 
    106 H106       22.5020  -31.3481  -38.7260 H         1 UNK         0.1106 
    107 H107       24.2828  -33.7935  -38.2253 H         1 UNK         0.0828 
    108 H108       24.2621  -32.3223  -37.2535 H         1 UNK         0.0828 
    109 H109       22.8480  -33.3601  -37.3054 H         1 UNK         0.0828 
    110 H110       22.1209  -31.4842  -41.3389 H         1 UNK         0.2931 
    111 H111       20.6525  -32.1572  -42.8187 H         1 UNK         0.0412 
    112 H112       23.5012  -34.7364  -43.6749 H         1 UNK         0.3472 
    113 H113       23.5400  -33.7257  -42.2515 H         1 UNK         0.3472 
    114 H114       19.8117  -34.5400  -41.1017 H         1 UNK         0.0970 
    115 H115       19.0413  -34.0293  -42.5625 H         1 UNK         0.0970 
    116 H116       16.1612  -32.4749  -40.9918 H         1 UNK         0.0612 
    117 H117       16.8599  -33.4967  -42.2122 H         1 UNK         0.0612 
@<TRIPOS>BOND
     1    1    2 1    
     2    1   62 1    
     3    1   63 1    
     4    1   64 1    
     5    2    3 2    
     6    2    4 am   BACKBONE|DICT|INTERRES
     7    4    5 1    
     8    4   65 1    
     9    5    6 1    
    10    5   25 1    
    11    5   66 1    
    12    6    7 1    
    13    6   67 1    
    14    6   68 1    
    15    7    8 1    
    16    8    9 1    
    17    8   69 1    
    18    8   70 1    
    19    9   10 ar   
    20    9   14 ar   
    21   10   11 ar   
    22   10   71 1    
    23   11   12 ar   
    24   11   61 1    
    25   12   13 ar   
    26   12   72 1    
    27   13   14 ar   
    28   13   15 1    
    29   14   73 1    
    30   15   16 1    
    31   15   74 1    
    32   15   75 1    
    33   16   17 1    
    34   17   18 1    
    35   17   76 1    
    36   17   77 1    
    37   18   19 1    
    38   18   27 1    
    39   18   78 1    
    40   19   20 am   BACKBONE|DICT|INTERRES
    41   19   79 1    
    42   20   21 2    
    43   20   22 1    
    44   22   23 1    
    45   22   24 1    
    46   22   80 1    
    47   23   81 1    
    48   23   82 1    
    49   23   83 1    
    50   24   25 am   BACKBONE|DICT|INTERRES
    51   24   84 1    
    52   25   26 2    
    53   27   28 2    
    54   27   29 am   BACKBONE|DICT|INTERRES
    55   29   30 1    
    56   29   85 1    
    57   30   31 1    
    58   30   32 1    
    59   30   86 1    
    60   31   87 1    
    61   31   88 1    
    62   31   89 1    
    63   32   33 2    
    64   32   34 am   BACKBONE|DICT|INTERRES
    65   34   35 1    
    66   34   90 1    
    67   35   36 1    
    68   35   37 1    
    69   35   91 1    
    70   36   92 1    
    71   36   93 1    
    72   36   94 1    
    73   37   38 2    
    74   37   39 am   BACKBONE|DICT|INTERRES
    75   39   40 1    
    76   39   95 1    
    77   40   41 1    
    78   40   42 1    
    79   40   96 1    
    80   41   97 1    
    81   41   98 1    
    82   41   99 1    
    83   42   43 2    
    84   42   44 am   BACKBONE|DICT|INTERRES
    85   44   45 1    
    86   44  100 1    
    87   45   46 1    
    88   45   47 1    
    89   45  101 1    
    90   46  102 1    
    91   46  103 1    
    92   46  104 1    
    93   47   48 2    
    94   47   49 am   BACKBONE|DICT|INTERRES
    95   49   50 1    
    96   49  105 1    
    97   50   51 1    
    98   50   52 1    
    99   50  106 1    
   100   51  107 1    
   101   51  108 1    
   102   51  109 1    
   103   52   53 2    
   104   52   54 am   BACKBONE|DICT|INTERRES
   105   54   55 1    
   106   54  110 1    
   107   55   56 1    
   108   55   59 1    
   109   55  111 1    
   110   56   57 am   BACKBONE|DICT|INTERRES
   111   56   58 2    
   112   57  112 1    
   113   57  113 1    
   114   59   60 1    
   115   59  114 1    
   116   59  115 1    
   117   60   61 1    
   118   61  116 1    
   119   61  117 1    
@<TRIPOS>SUBSTRUCTURE
     1 UNK         1 GROUP             0       ****    0 ROOT    
