@<TRIPOS>MOLECULE
3R8
117   119    1
SMALL
USER_CHARGES


@<TRIPOS>ATOM
      1 CA         15.8311  -25.4654  -46.6166 C.3       0 UNK        -0.2013 
      2 C          17.1640  -26.1409  -46.3345 C.2       0 UNK         0.4866 
      3 O          17.6596  -26.0584  -45.2096 O.2       0 UNK        -0.5176 
      4 N          17.7395  -26.8107  -47.3462 N.am      1 UNK        -0.4884 
      5 CA         19.0159  -27.5416  -47.2995 C.3       1 UNK         0.0853 
      6 C6         18.9318  -28.8403  -46.4421 C.3       10 UNK        -0.0849 
      7 S7         17.7658  -30.0739  -47.1086 S.3       10 UNK        -0.2776 
      8 C8         16.2768  -29.8174  -46.0822 C.3       10 UNK         0.0316 
      9 C9         16.5201  -29.9785  -44.5839 C.ar      10 UNK        -0.0863 
     10 C10        17.1248  -31.1337  -44.0763 C.ar      10 UNK        -0.1009 
     11 C11        17.3209  -31.2863  -42.7004 C.ar      10 UNK        -0.0712 
     12 C12        16.8860  -30.2857  -41.8273 C.ar      10 UNK        -0.0894 
     13 C13        16.2770  -29.1284  -42.3188 C.ar      10 UNK        -0.0745 
     14 C14        16.1050  -28.9770  -43.6986 C.ar      10 UNK        -0.0972 
     15 C15        15.7662  -28.0656  -41.3539 C.3       10 UNK         0.0209 
     16 S16        17.1065  -27.2414  -40.4348 S.3       10 UNK        -0.2568 
     17 C17        17.9150  -26.2655  -41.7455 C.3       10 UNK        -0.0983 
     18 CA         19.4477  -26.4834  -41.7805 C.3       3 UNK         0.0876 
     19 N          19.9992  -26.1817  -43.1071 N.am      3 UNK        -0.4424 
     20 C          21.2962  -26.2368  -43.4534 C.2       2 UNK         0.4918 
     21 O          22.2044  -26.5421  -42.6798 O.2       2 UNK        -0.4875 
     22 CA         21.6078  -25.9781  -44.9344 C.3       2 UNK         0.0481 
     23 CB         23.0864  -26.1945  -45.3069 C.3       2 UNK        -0.1831 
     24 N          20.7573  -26.8721  -45.7074 N.am      2 UNK        -0.4498 
     25 C          20.1528  -26.5867  -46.8638 C.2       1 UNK         0.5027 
     26 O          20.4138  -25.5970  -47.5515 O.2       1 UNK        -0.4969 
     27 C          20.1492  -25.6830  -40.6615 C.2       3 UNK         0.5005 
     28 O          20.3430  -24.4735  -40.8101 O.2       3 UNK        -0.5279 
     29 N          20.5475  -26.3817  -39.5887 N.am      4 UNK        -0.4463 
     30 CA         21.2964  -25.9178  -38.4098 C.3       4 UNK         0.0283 
     31 CB         20.5417  -24.8032  -37.6587 C.3       4 UNK        -0.1875 
     32 C          22.7591  -25.5113  -38.6819 C.2       4 UNK         0.4949 
     33 O          23.5983  -25.7016  -37.8011 O.2       4 UNK        -0.5039 
     34 N          23.0520  -24.9714  -39.8718 N.am      5 UNK        -0.4663 
     35 CA         24.3975  -24.6184  -40.3281 C.3       5 UNK         0.0242 
     36 CB         24.2986  -23.7270  -41.5771 C.3       5 UNK        -0.1982 
     37 C          25.2609  -25.8598  -40.6060 C.2       5 UNK         0.5017 
     38 O          26.4192  -25.8965  -40.1882 O.2       5 UNK        -0.5012 
     39 N          24.6762  -26.8497  -41.2901 N.am      6 UNK        -0.4439 
     40 CA         25.2692  -28.1576  -41.5564 C.3       6 UNK         0.0297 
     41 CB         24.9782  -28.5449  -43.0160 C.3       6 UNK        -0.2006 
     42 C          24.6858  -29.2107  -40.6033 C.2       6 UNK         0.4892 
     43 O          23.6121  -29.0093  -40.0293 O.2       6 UNK        -0.5089 
     44 N          25.3992  -30.3345  -40.4932 N.am      7 UNK        -0.4243 
     45 CA         24.9807  -31.5481  -39.7952 C.3       7 UNK         0.0196 
     46 CB         25.9817  -31.8434  -38.6649 C.3       7 UNK        -0.2007 
     47 C          24.9411  -32.7069  -40.8019 C.2       7 UNK         0.5020 
     48 O          25.5439  -32.6060  -41.8739 O.2       7 UNK        -0.5147 
     49 N          24.2425  -33.7893  -40.4291 N.am      8 UNK        -0.4734 
     50 CA         24.0186  -35.0083  -41.2242 C.3       8 UNK         0.0238 
     51 CB         25.3394  -35.7790  -41.4419 C.3       8 UNK        -0.1912 
     52 C          23.2547  -34.7345  -42.5372 C.2       8 UNK         0.5038 
     53 O          23.5939  -35.2904  -43.5837 O.2       8 UNK        -0.5046 
     54 N          22.2350  -33.8717  -42.4463 N.am      9 UNK        -0.4200 
     55 CA         21.3444  -33.4670  -43.5453 C.3       9 UNK         0.0839 
     56 C          20.3798  -34.5715  -44.0704 C.2       9 UNK         0.5513 
     57 N          20.2144  -35.6965  -43.3850 N.am      9 UNK        -0.7519 
     58 O          19.7732  -34.4023  -45.1247 O.2       9 UNK        -0.4960 
     59 C59        20.5890  -32.1537  -43.2017 C.3       10 UNK        -0.0876 
     60 S60        19.6910  -32.2215  -41.6091 S.3       10 UNK        -0.2414 
     61 C61        17.9805  -32.5388  -42.1458 C.3       10 UNK         0.0169 
     62 H62        15.9155  -24.3908  -46.4571 H         1 UNK         0.0903 
     63 H63        15.4963  -25.6322  -47.6402 H         1 UNK         0.0903 
     64 H64        15.0668  -25.8509  -45.9424 H         1 UNK         0.0903 
     65 H65        17.2872  -26.8101  -48.2499 H         1 UNK         0.3096 
     66 H66        19.2513  -27.8319  -48.3249 H         1 UNK         0.1121 
     67 H67        18.6713  -28.6127  -45.4074 H         1 UNK         0.0849 
     68 H68        19.9038  -29.3364  -46.4098 H         1 UNK         0.0849 
     69 H69        15.8643  -28.8330  -46.3047 H         1 UNK         0.0865 
     70 H70        15.5167  -30.5373  -46.3882 H         1 UNK         0.0865 
     71 H71        17.4446  -31.9130  -44.7551 H         1 UNK         0.1346 
     72 H72        17.0236  -30.4071  -40.7613 H         1 UNK         0.1412 
     73 H73        15.6320  -28.0832  -44.0822 H         1 UNK         0.1426 
     74 H74        15.0911  -28.5363  -40.6379 H         1 UNK         0.0716 
     75 H75        15.1757  -27.3118  -41.8774 H         1 UNK         0.0716 
     76 H76        17.6600  -25.2108  -41.6237 H         1 UNK         0.0695 
     77 H77        17.4786  -26.5630  -42.6981 H         1 UNK         0.0695 
     78 H78        19.6479  -27.5458  -41.6232 H         1 UNK         0.0983 
     79 H79        19.3181  -25.9412  -43.8197 H         1 UNK         0.3095 
     80 H80        21.3415  -24.9389  -45.1386 H         1 UNK         0.0454 
     81 H81        23.3855  -27.2334  -45.1714 H         1 UNK         0.0851 
     82 H82        23.7428  -25.5781  -44.6914 H         1 UNK         0.0851 
     83 H83        23.2730  -25.9280  -46.3471 H         1 UNK         0.0851 
     84 H84        20.4606  -27.7018  -45.2130 H         1 UNK         0.2976 
     85 H85        20.3619  -27.3757  -39.5936 H         1 UNK         0.3116 
     86 H86        21.3419  -26.7815  -37.7443 H         1 UNK         0.0646 
     87 H87        20.4857  -23.8825  -38.2400 H         1 UNK         0.0847 
     88 H88        19.5246  -25.1079  -37.4126 H         1 UNK         0.0847 
     89 H89        21.0433  -24.5603  -36.7211 H         1 UNK         0.0847 
     90 H90        22.2827  -24.8143  -40.5152 H         1 UNK         0.3040 
     91 H91        24.8857  -24.0452  -39.5366 H         1 UNK         0.1015 
     92 H92        25.2899  -23.4415  -41.9318 H         1 UNK         0.0786 
     93 H93        23.7532  -22.8074  -41.3645 H         1 UNK         0.0786 
     94 H94        23.7913  -24.2340  -42.3986 H         1 UNK         0.0786 
     95 H95        23.7076  -26.7362  -41.5832 H         1 UNK         0.3172 
     96 H96        26.3514  -28.1188  -41.4152 H         1 UNK         0.0595 
     97 H97        23.9080  -28.6510  -43.1980 H         1 UNK         0.0839 
     98 H98        25.4464  -29.4958  -43.2739 H         1 UNK         0.0839 
     99 H99        25.3654  -27.7967  -43.7076 H         1 UNK         0.0839 
    100 H100       26.2190  -30.4449  -41.0751 H         1 UNK         0.2998 
    101 H101       23.9817  -31.4249  -39.3710 H         1 UNK         0.0822 
    102 H102       25.6947  -32.7350  -38.1059 H         1 UNK         0.0787 
    103 H103       26.9888  -32.0094  -39.0500 H         1 UNK         0.0787 
    104 H104       26.0279  -31.0181  -37.9540 H         1 UNK         0.0787 
    105 H105       23.7942  -33.7743  -39.5224 H         1 UNK         0.3055 
    106 H106       23.3654  -35.6496  -40.6298 H         1 UNK         0.1106 
    107 H107       25.8461  -35.9736  -40.4967 H         1 UNK         0.0828 
    108 H108       25.1544  -36.7451  -41.9133 H         1 UNK         0.0828 
    109 H109       26.0290  -35.2328  -42.0861 H         1 UNK         0.0828 
    110 H110       22.0187  -33.4702  -41.5458 H         1 UNK         0.2931 
    111 H111       21.9941  -33.2366  -44.3920 H         1 UNK         0.0412 
    112 H112       19.5905  -36.4041  -43.7400 H         1 UNK         0.3472 
    113 H113       20.7010  -35.8428  -42.5157 H         1 UNK         0.3472 
    114 H114       21.3094  -31.3374  -43.1307 H         1 UNK         0.0970 
    115 H115       19.9124  -31.8649  -44.0077 H         1 UNK         0.0970 
    116 H116       17.9640  -33.3465  -42.8785 H         1 UNK         0.0612 
    117 H117       17.4075  -32.8957  -41.2889 H         1 UNK         0.0612 
@<TRIPOS>BOND
     1    1    2 1    
     2    1   62 1    
     3    1   63 1    
     4    1   64 1    
     5    2    3 2    
     6    2    4 am   BACKBONE|DICT|INTERRES
     7    4    5 1    
     8    4   65 1    
     9    5    6 1    
    10    5   25 1    
    11    5   66 1    
    12    6    7 1    
    13    6   67 1    
    14    6   68 1    
    15    7    8 1    
    16    8    9 1    
    17    8   69 1    
    18    8   70 1    
    19    9   10 ar   
    20    9   14 ar   
    21   10   11 ar   
    22   10   71 1    
    23   11   12 ar   
    24   11   61 1    
    25   12   13 ar   
    26   12   72 1    
    27   13   14 ar   
    28   13   15 1    
    29   14   73 1    
    30   15   16 1    
    31   15   74 1    
    32   15   75 1    
    33   16   17 1    
    34   17   18 1    
    35   17   76 1    
    36   17   77 1    
    37   18   19 1    
    38   18   27 1    
    39   18   78 1    
    40   19   20 am   BACKBONE|DICT|INTERRES
    41   19   79 1    
    42   20   21 2    
    43   20   22 1    
    44   22   23 1    
    45   22   24 1    
    46   22   80 1    
    47   23   81 1    
    48   23   82 1    
    49   23   83 1    
    50   24   25 am   BACKBONE|DICT|INTERRES
    51   24   84 1    
    52   25   26 2    
    53   27   28 2    
    54   27   29 am   BACKBONE|DICT|INTERRES
    55   29   30 1    
    56   29   85 1    
    57   30   31 1    
    58   30   32 1    
    59   30   86 1    
    60   31   87 1    
    61   31   88 1    
    62   31   89 1    
    63   32   33 2    
    64   32   34 am   BACKBONE|DICT|INTERRES
    65   34   35 1    
    66   34   90 1    
    67   35   36 1    
    68   35   37 1    
    69   35   91 1    
    70   36   92 1    
    71   36   93 1    
    72   36   94 1    
    73   37   38 2    
    74   37   39 am   BACKBONE|DICT|INTERRES
    75   39   40 1    
    76   39   95 1    
    77   40   41 1    
    78   40   42 1    
    79   40   96 1    
    80   41   97 1    
    81   41   98 1    
    82   41   99 1    
    83   42   43 2    
    84   42   44 am   BACKBONE|DICT|INTERRES
    85   44   45 1    
    86   44  100 1    
    87   45   46 1    
    88   45   47 1    
    89   45  101 1    
    90   46  102 1    
    91   46  103 1    
    92   46  104 1    
    93   47   48 2    
    94   47   49 am   BACKBONE|DICT|INTERRES
    95   49   50 1    
    96   49  105 1    
    97   50   51 1    
    98   50   52 1    
    99   50  106 1    
   100   51  107 1    
   101   51  108 1    
   102   51  109 1    
   103   52   53 2    
   104   52   54 am   BACKBONE|DICT|INTERRES
   105   54   55 1    
   106   54  110 1    
   107   55   56 1    
   108   55   59 1    
   109   55  111 1    
   110   56   57 am   BACKBONE|DICT|INTERRES
   111   56   58 2    
   112   57  112 1    
   113   57  113 1    
   114   59   60 1    
   115   59  114 1    
   116   59  115 1    
   117   60   61 1    
   118   61  116 1    
   119   61  117 1    
@<TRIPOS>SUBSTRUCTURE
     1 UNK         1 GROUP             0       ****    0 ROOT    
