@<TRIPOS>MOLECULE
3R8
117   119    1
SMALL
USER_CHARGES


@<TRIPOS>ATOM
      1 CA         15.3572  -22.9309  -46.4733 C.3       0 UNK        -0.2013 
      2 C          16.3292  -24.0074  -46.0156 C.2       0 UNK         0.4866 
      3 O          17.3909  -24.1735  -46.6180 O.2       0 UNK        -0.5176 
      4 N          15.9856  -24.7370  -44.9466 N.am      1 UNK        -0.4884 
      5 CA         16.7745  -25.8325  -44.3658 C.3       1 UNK         0.0853 
      6 C6         15.8791  -26.8337  -43.5901 C.3       10 UNK        -0.0849 
      7 S7         14.6935  -27.6649  -44.7039 S.3       10 UNK        -0.2776 
      8 C8         14.6998  -29.3819  -44.0741 C.3       10 UNK         0.0316 
      9 C9         16.0240  -30.1419  -44.1941 C.ar      10 UNK        -0.0863 
     10 C10        16.2241  -31.2574  -43.3733 C.ar      10 UNK        -0.1009 
     11 C11        17.4076  -31.9983  -43.4384 C.ar      10 UNK        -0.0712 
     12 C12        18.4139  -31.5974  -44.3245 C.ar      10 UNK        -0.0894 
     13 C13        18.2253  -30.5004  -45.1692 C.ar      10 UNK        -0.0745 
     14 C14        17.0258  -29.7840  -45.1072 C.ar      10 UNK        -0.0972 
     15 C15        19.3023  -30.1160  -46.1765 C.3       10 UNK         0.0209 
     16 S16        20.0240  -28.4771  -45.8479 S.3       10 UNK        -0.2568 
     17 C17        20.8926  -28.7619  -44.2676 C.3       10 UNK        -0.0983 
     18 CA         21.7150  -27.5299  -43.8068 C.3       3 UNK         0.0876 
     19 N          20.8947  -26.3139  -43.8306 N.am      3 UNK        -0.4424 
     20 C          21.1898  -25.0754  -43.4115 C.2       2 UNK         0.4918 
     21 O          22.2570  -24.7641  -42.8810 O.2       2 UNK        -0.4875 
     22 CA         20.0963  -24.0035  -43.6059 C.3       2 UNK         0.0481 
     23 CB         20.6030  -22.8732  -44.5162 C.3       2 UNK        -0.1831 
     24 N          18.8435  -24.5335  -44.1620 N.am      2 UNK        -0.4498 
     25 C          17.9464  -25.2914  -43.5153 C.2       1 UNK         0.5027 
     26 O          18.0394  -25.5778  -42.3206 O.2       1 UNK        -0.4969 
     27 C          22.3727  -27.8199  -42.4428 C.2       3 UNK         0.5005 
     28 O          23.4608  -28.3939  -42.4105 O.2       3 UNK        -0.5279 
     29 N          21.7264  -27.3839  -41.3488 N.am      4 UNK        -0.4463 
     30 CA         22.1875  -27.4897  -39.9605 C.3       4 UNK         0.0283 
     31 CB         21.1531  -26.8346  -39.0331 C.3       4 UNK        -0.1875 
     32 C          23.5861  -26.9019  -39.7069 C.2       4 UNK         0.4949 
     33 O          24.2932  -27.4039  -38.8336 O.2       4 UNK        -0.5039 
     34 N          23.9895  -25.9059  -40.5098 N.am      5 UNK        -0.4663 
     35 CA         25.3367  -25.3267  -40.5170 C.3       5 UNK         0.0242 
     36 CB         25.3464  -24.1035  -41.4479 C.3       5 UNK        -0.1982 
     37 C          26.4480  -26.3180  -40.9211 C.2       5 UNK         0.5017 
     38 O          27.6072  -26.0794  -40.5813 O.2       5 UNK        -0.5012 
     39 N          26.0844  -27.4023  -41.6204 N.am      6 UNK        -0.4439 
     40 CA         26.9728  -28.4878  -42.0392 C.3       6 UNK         0.0297 
     41 CB         27.0682  -28.4754  -43.5763 C.3       6 UNK        -0.2006 
     42 C          26.4902  -29.8530  -41.5074 C.2       6 UNK         0.4892 
     43 O          26.9194  -30.8771  -42.0400 O.2       6 UNK        -0.5089 
     44 N          25.6283  -29.8380  -40.4753 N.am      7 UNK        -0.4243 
     45 CA         24.8792  -30.9544  -39.8830 C.3       7 UNK         0.0196 
     46 CB         25.8036  -32.0786  -39.3723 C.3       7 UNK        -0.2007 
     47 C          23.7967  -31.4819  -40.8436 C.2       7 UNK         0.5020 
     48 O          24.1095  -32.1148  -41.8533 O.2       7 UNK        -0.5147 
     49 N          22.5303  -31.2020  -40.5135 N.am      8 UNK        -0.4734 
     50 CA         21.3681  -31.5872  -41.3125 C.3       8 UNK         0.0238 
     51 CB         20.1655  -30.7143  -40.9079 C.3       8 UNK        -0.1912 
     52 C          21.0468  -33.0780  -41.1229 C.2       8 UNK         0.5038 
     53 O          20.7313  -33.4820  -40.0011 O.2       8 UNK        -0.5046 
     54 N          21.0878  -33.8447  -42.2210 N.am      9 UNK        -0.4200 
     55 CA         20.7342  -35.2745  -42.2950 C.3       9 UNK         0.0839 
     56 C          21.6295  -36.1834  -41.3936 C.2       9 UNK         0.5513 
     57 N          21.1818  -37.3791  -41.0311 N.am      9 UNK        -0.7519 
     58 O          22.7641  -35.8417  -41.0658 O.2       9 UNK        -0.4960 
     59 C59        19.2001  -35.5135  -42.1328 C.3       10 UNK        -0.0876 
     60 S60        18.2259  -34.6693  -43.4274 S.3       10 UNK        -0.2414 
     61 C61        17.5996  -33.2103  -42.5304 C.3       10 UNK         0.0169 
     62 H62        15.8355  -21.9526  -46.4340 H         1 UNK         0.0903 
     63 H63        15.0481  -23.1182  -47.5012 H         1 UNK         0.0903 
     64 H64        14.4630  -22.8972  -45.8512 H         1 UNK         0.0903 
     65 H65        15.1069  -24.5486  -44.4846 H         1 UNK         0.3096 
     66 H66        17.2366  -26.3892  -45.1851 H         1 UNK         0.1121 
     67 H67        16.4925  -27.5926  -43.1004 H         1 UNK         0.0849 
     68 H68        15.3271  -26.3295  -42.7949 H         1 UNK         0.0849 
     69 H69        14.3839  -29.3584  -43.0297 H         1 UNK         0.0865 
     70 H70        13.9353  -29.9445  -44.6114 H         1 UNK         0.0865 
     71 H71        15.4492  -31.5531  -42.6786 H         1 UNK         0.1346 
     72 H72        19.3369  -32.1579  -44.3728 H         1 UNK         0.1412 
     73 H73        16.8840  -28.9458  -45.7745 H         1 UNK         0.1426 
     74 H74        18.8638  -30.1101  -47.1753 H         1 UNK         0.0716 
     75 H75        20.1013  -30.8588  -46.1999 H         1 UNK         0.0716 
     76 H76        20.1442  -29.0276  -43.5181 H         1 UNK         0.0695 
     77 H77        21.5419  -29.6323  -44.3816 H         1 UNK         0.0695 
     78 H78        22.5266  -27.3712  -44.5196 H         1 UNK         0.0983 
     79 H79        19.9999  -26.4343  -44.2801 H         1 UNK         0.3095 
     80 H80        19.8817  -23.5800  -42.6229 H         1 UNK         0.0454 
     81 H81        21.5108  -22.4215  -44.1136 H         1 UNK         0.0851 
     82 H82        19.8635  -22.0779  -44.6107 H         1 UNK         0.0851 
     83 H83        20.8360  -23.2359  -45.5181 H         1 UNK         0.0851 
     84 H84        18.6491  -24.3270  -45.1390 H         1 UNK         0.2976 
     85 H85        20.8482  -26.9053  -41.4917 H         1 UNK         0.3116 
     86 H86        22.2390  -28.5503  -39.7148 H         1 UNK         0.0646 
     87 H87        21.0275  -25.7738  -39.2540 H         1 UNK         0.0847 
     88 H88        20.1782  -27.3146  -39.1214 H         1 UNK         0.0847 
     89 H89        21.4575  -26.9158  -37.9885 H         1 UNK         0.0847 
     90 H90        23.3475  -25.5650  -41.2182 H         1 UNK         0.3040 
     91 H91        25.5597  -24.9905  -39.5021 H         1 UNK         0.1015 
     92 H92        26.3250  -23.6214  -41.4522 H         1 UNK         0.0786 
     93 H93        24.6191  -23.3563  -41.1297 H         1 UNK         0.0786 
     94 H94        25.1130  -24.3798  -42.4771 H         1 UNK         0.0786 
     95 H95        25.1019  -27.5358  -41.8528 H         1 UNK         0.3172 
     96 H96        27.9752  -28.3378  -41.6339 H         1 UNK         0.0595 
     97 H97        26.1012  -28.6812  -44.0376 H         1 UNK         0.0839 
     98 H98        27.7700  -29.2292  -43.9354 H         1 UNK         0.0839 
     99 H99        27.4174  -27.5106  -43.9442 H         1 UNK         0.0839 
    100 H100       25.3726  -28.9272  -40.1142 H         1 UNK         0.2998 
    101 H101       24.3797  -30.5341  -39.0084 H         1 UNK         0.0822 
    102 H102       25.2314  -32.8262  -38.8217 H         1 UNK         0.0787 
    103 H103       26.5668  -31.6903  -38.6979 H         1 UNK         0.0787 
    104 H104       26.3076  -32.5997  -40.1866 H         1 UNK         0.0787 
    105 H105       22.3396  -30.7417  -39.6360 H         1 UNK         0.3055 
    106 H106       21.5906  -31.3915  -42.3641 H         1 UNK         0.1106 
    107 H107       19.3100  -30.8992  -41.5551 H         1 UNK         0.0828 
    108 H108       19.8474  -30.9058  -39.8823 H         1 UNK         0.0828 
    109 H109       20.3885  -29.6543  -40.9904 H         1 UNK         0.0828 
    110 H110       21.4155  -33.4393  -43.0848 H         1 UNK         0.2931 
    111 H111       20.9977  -35.5725  -43.3105 H         1 UNK         0.0412 
    112 H112       21.7749  -37.9699  -40.4688 H         1 UNK         0.3472 
    113 H113       20.2704  -37.7075  -41.3079 H         1 UNK         0.3472 
    114 H114       18.9615  -36.5737  -42.2222 H         1 UNK         0.0970 
    115 H115       18.8592  -35.2123  -41.1408 H         1 UNK         0.0970 
    116 H116       18.2806  -32.9419  -41.7261 H         1 UNK         0.0612 
    117 H117       16.6598  -33.4869  -42.0502 H         1 UNK         0.0612 
@<TRIPOS>BOND
     1    1    2 1    
     2    1   62 1    
     3    1   63 1    
     4    1   64 1    
     5    2    3 2    
     6    2    4 am   BACKBONE|DICT|INTERRES
     7    4    5 1    
     8    4   65 1    
     9    5    6 1    
    10    5   25 1    
    11    5   66 1    
    12    6    7 1    
    13    6   67 1    
    14    6   68 1    
    15    7    8 1    
    16    8    9 1    
    17    8   69 1    
    18    8   70 1    
    19    9   10 ar   
    20    9   14 ar   
    21   10   11 ar   
    22   10   71 1    
    23   11   12 ar   
    24   11   61 1    
    25   12   13 ar   
    26   12   72 1    
    27   13   14 ar   
    28   13   15 1    
    29   14   73 1    
    30   15   16 1    
    31   15   74 1    
    32   15   75 1    
    33   16   17 1    
    34   17   18 1    
    35   17   76 1    
    36   17   77 1    
    37   18   19 1    
    38   18   27 1    
    39   18   78 1    
    40   19   20 am   BACKBONE|DICT|INTERRES
    41   19   79 1    
    42   20   21 2    
    43   20   22 1    
    44   22   23 1    
    45   22   24 1    
    46   22   80 1    
    47   23   81 1    
    48   23   82 1    
    49   23   83 1    
    50   24   25 am   BACKBONE|DICT|INTERRES
    51   24   84 1    
    52   25   26 2    
    53   27   28 2    
    54   27   29 am   BACKBONE|DICT|INTERRES
    55   29   30 1    
    56   29   85 1    
    57   30   31 1    
    58   30   32 1    
    59   30   86 1    
    60   31   87 1    
    61   31   88 1    
    62   31   89 1    
    63   32   33 2    
    64   32   34 am   BACKBONE|DICT|INTERRES
    65   34   35 1    
    66   34   90 1    
    67   35   36 1    
    68   35   37 1    
    69   35   91 1    
    70   36   92 1    
    71   36   93 1    
    72   36   94 1    
    73   37   38 2    
    74   37   39 am   BACKBONE|DICT|INTERRES
    75   39   40 1    
    76   39   95 1    
    77   40   41 1    
    78   40   42 1    
    79   40   96 1    
    80   41   97 1    
    81   41   98 1    
    82   41   99 1    
    83   42   43 2    
    84   42   44 am   BACKBONE|DICT|INTERRES
    85   44   45 1    
    86   44  100 1    
    87   45   46 1    
    88   45   47 1    
    89   45  101 1    
    90   46  102 1    
    91   46  103 1    
    92   46  104 1    
    93   47   48 2    
    94   47   49 am   BACKBONE|DICT|INTERRES
    95   49   50 1    
    96   49  105 1    
    97   50   51 1    
    98   50   52 1    
    99   50  106 1    
   100   51  107 1    
   101   51  108 1    
   102   51  109 1    
   103   52   53 2    
   104   52   54 am   BACKBONE|DICT|INTERRES
   105   54   55 1    
   106   54  110 1    
   107   55   56 1    
   108   55   59 1    
   109   55  111 1    
   110   56   57 am   BACKBONE|DICT|INTERRES
   111   56   58 2    
   112   57  112 1    
   113   57  113 1    
   114   59   60 1    
   115   59  114 1    
   116   59  115 1    
   117   60   61 1    
   118   61  116 1    
   119   61  117 1    
@<TRIPOS>SUBSTRUCTURE
     1 UNK         1 GROUP             0       ****    0 ROOT    
