@<TRIPOS>MOLECULE
3R8
117   119    1
SMALL
USER_CHARGES


@<TRIPOS>ATOM
      1 CA         13.7970  -28.2890  -46.7808 C.3       0 UNK        -0.2013 
      2 C          15.0873  -27.8944  -46.0789 C.2       0 UNK         0.4866 
      3 O          16.1168  -28.5401  -46.2770 O.2       0 UNK        -0.5176 
      4 N          15.0503  -26.8276  -45.2709 N.am      1 UNK        -0.4884 
      5 CA         16.1721  -26.3055  -44.4755 C.3       1 UNK         0.0853 
      6 C6         15.6655  -25.5426  -43.2239 C.3       10 UNK        -0.0849 
      7 S7         14.8807  -26.6914  -42.0406 S.3       10 UNK        -0.2776 
      8 C8         16.0535  -26.6845  -40.6422 C.3       10 UNK         0.0316 
      9 C9         17.4820  -27.0236  -41.0543 C.ar      10 UNK        -0.0863 
     10 C10        17.8236  -28.3223  -41.4434 C.ar      10 UNK        -0.1009 
     11 C11        19.1399  -28.6327  -41.8028 C.ar      10 UNK        -0.0712 
     12 C12        20.1195  -27.6351  -41.7667 C.ar      10 UNK        -0.0894 
     13 C13        19.7887  -26.3328  -41.3805 C.ar      10 UNK        -0.0745 
     14 C14        18.4704  -26.0355  -41.0248 C.ar      10 UNK        -0.0972 
     15 C15        20.8458  -25.2408  -41.3238 C.3       10 UNK         0.0209 
     16 S16        20.8207  -24.2112  -42.8255 S.3       10 UNK        -0.2568 
     17 C17        22.1723  -24.9315  -43.8164 C.3       10 UNK        -0.0983 
     18 CA         21.6993  -26.0127  -44.8184 C.3       3 UNK         0.0876 
     19 N          20.6582  -25.5220  -45.7231 N.am      3 UNK        -0.4424 
     20 C          19.9940  -26.2706  -46.6108 C.2       2 UNK         0.4918 
     21 O          20.2507  -27.4502  -46.8583 O.2       2 UNK        -0.4875 
     22 CA         18.7524  -25.6244  -47.2386 C.3       2 UNK         0.0481 
     23 CB         18.5550  -26.0487  -48.7043 C.3       2 UNK        -0.1831 
     24 N          17.6073  -26.0676  -46.4500 N.am      2 UNK        -0.4498 
     25 C          17.1635  -25.4824  -45.3311 C.2       1 UNK         0.5027 
     26 O          17.5215  -24.3601  -44.9692 O.2       1 UNK        -0.4969 
     27 C          22.9099  -26.6102  -45.5637 C.2       3 UNK         0.5005 
     28 O          23.5605  -25.9106  -46.3440 O.2       3 UNK        -0.5279 
     29 N          23.2069  -27.8766  -45.2636 N.am      4 UNK        -0.4463 
     30 CA         24.3988  -28.6121  -45.6608 C.3       4 UNK         0.0283 
     31 CB         24.2239  -29.2193  -47.0637 C.3       4 UNK        -0.1875 
     32 C          24.5759  -29.6904  -44.5907 C.2       4 UNK         0.4949 
     33 O          23.6057  -30.3936  -44.2985 O.2       4 UNK        -0.5039 
     34 N          25.7742  -29.7574  -43.9904 N.am      5 UNK        -0.4663 
     35 CA         26.1166  -30.5800  -42.8176 C.3       5 UNK         0.0242 
     36 CB         26.1597  -32.0771  -43.1959 C.3       5 UNK        -0.1982 
     37 C          25.1779  -30.2922  -41.6271 C.2       5 UNK         0.5017 
     38 O          24.5642  -31.2158  -41.0937 O.2       5 UNK        -0.5012 
     39 N          25.0376  -29.0001  -41.2912 N.am      6 UNK        -0.4439 
     40 CA         24.0588  -28.4394  -40.3511 C.3       6 UNK         0.0297 
     41 CB         24.3593  -26.9462  -40.1442 C.3       6 UNK        -0.2006 
     42 C          23.9776  -29.1620  -38.9941 C.2       6 UNK         0.4892 
     43 O          25.0027  -29.5933  -38.4626 O.2       6 UNK        -0.5089 
     44 N          22.7460  -29.2831  -38.4808 N.am      7 UNK        -0.4243 
     45 CA         22.3141  -29.9983  -37.2709 C.3       7 UNK         0.0196 
     46 CB         23.0652  -29.5275  -36.0094 C.3       7 UNK        -0.2007 
     47 C          22.3369  -31.5323  -37.4040 C.2       7 UNK         0.5020 
     48 O          21.4319  -32.1824  -36.8803 O.2       7 UNK        -0.5147 
     49 N          23.3326  -32.0915  -38.1044 N.am      8 UNK        -0.4734 
     50 CA         23.3867  -33.5118  -38.4617 C.3       8 UNK         0.0238 
     51 CB         24.8347  -33.9161  -38.7858 C.3       8 UNK        -0.1912 
     52 C          22.4440  -33.8248  -39.6351 C.2       8 UNK         0.5038 
     53 O          21.6784  -34.7865  -39.5590 O.2       8 UNK        -0.5046 
     54 N          22.5102  -32.9878  -40.6789 N.am      9 UNK        -0.4200 
     55 CA         21.6855  -33.0121  -41.8970 C.3       9 UNK         0.0839 
     56 C          21.8934  -34.2682  -42.7963 C.2       9 UNK         0.5513 
     57 N          23.0088  -34.9799  -42.6828 N.am      9 UNK        -0.7519 
     58 O          21.0497  -34.5914  -43.6288 O.2       9 UNK        -0.4960 
     59 C59        20.1888  -32.6947  -41.6163 C.3       10 UNK        -0.0876 
     60 S60        19.9549  -31.0737  -40.8050 S.3       10 UNK        -0.2414 
     61 C61        19.4992  -30.0457  -42.2338 C.3       10 UNK         0.0169 
     62 H62        12.9698  -27.6314  -46.5145 H         1 UNK         0.0903 
     63 H63        13.9299  -28.2471  -47.8616 H         1 UNK         0.0903 
     64 H64        13.5205  -29.3078  -46.5106 H         1 UNK         0.0903 
     65 H65        14.1795  -26.3267  -45.1623 H         1 UNK         0.3096 
     66 H66        16.7563  -27.1562  -44.1150 H         1 UNK         0.1121 
     67 H67        16.4772  -25.0158  -42.7204 H         1 UNK         0.0849 
     68 H68        14.9448  -24.7732  -43.5060 H         1 UNK         0.0849 
     69 H69        15.7161  -27.4057  -39.8964 H         1 UNK         0.0865 
     70 H70        16.0139  -25.7087  -40.1554 H         1 UNK         0.0865 
     71 H71        17.0638  -29.0918  -41.4654 H         1 UNK         0.1346 
     72 H72        21.1375  -27.8747  -42.0378 H         1 UNK         0.1412 
     73 H73        18.2164  -25.0279  -40.7239 H         1 UNK         0.1426 
     74 H74        21.8352  -25.6683  -41.1623 H         1 UNK         0.0716 
     75 H75        20.6559  -24.5992  -40.4619 H         1 UNK         0.0716 
     76 H76        22.9335  -25.3328  -43.1449 H         1 UNK         0.0695 
     77 H77        22.6545  -24.1106  -44.3512 H         1 UNK         0.0695 
     78 H78        21.2337  -26.8125  -44.2407 H         1 UNK         0.0983 
     79 H79        20.3449  -24.5766  -45.5546 H         1 UNK         0.3095 
     80 H80        18.8453  -24.5368  -47.2037 H         1 UNK         0.0454 
     81 H81        18.4286  -27.1275  -48.8052 H         1 UNK         0.0851 
     82 H82        19.4152  -25.7625  -49.3105 H         1 UNK         0.0851 
     83 H83        17.6777  -25.5693  -49.1385 H         1 UNK         0.0851 
     84 H84        17.2674  -27.0075  -46.6363 H         1 UNK         0.2976 
     85 H85        22.6118  -28.3979  -44.6314 H         1 UNK         0.3116 
     86 H86        25.2605  -27.9410  -45.6561 H         1 UNK         0.0646 
     87 H87        23.3660  -29.8917  -47.1076 H         1 UNK         0.0847 
     88 H88        25.1054  -29.7927  -47.3524 H         1 UNK         0.0847 
     89 H89        24.0785  -28.4442  -47.8163 H         1 UNK         0.0847 
     90 H90        26.5011  -29.1307  -44.3095 H         1 UNK         0.3040 
     91 H91        27.1194  -30.2891  -42.4998 H         1 UNK         0.1015 
     92 H92        25.1781  -32.4521  -43.4888 H         1 UNK         0.0786 
     93 H93        26.4982  -32.6819  -42.3536 H         1 UNK         0.0786 
     94 H94        26.8474  -32.2580  -44.0218 H         1 UNK         0.0786 
     95 H95        25.6064  -28.3299  -41.7868 H         1 UNK         0.3172 
     96 H96        23.0863  -28.5288  -40.8379 H         1 UNK         0.0595 
     97 H97        23.6317  -26.4878  -39.4727 H         1 UNK         0.0839 
     98 H98        24.3224  -26.3951  -41.0839 H         1 UNK         0.0839 
     99 H99        25.3458  -26.7943  -39.7038 H         1 UNK         0.0839 
    100 H100       21.9830  -28.9063  -39.0267 H         1 UNK         0.2998 
    101 H101       21.2663  -29.7220  -37.1403 H         1 UNK         0.0822 
    102 H102       22.6220  -29.9623  -35.1126 H         1 UNK         0.0787 
    103 H103       24.1148  -29.8219  -36.0215 H         1 UNK         0.0787 
    104 H104       23.0202  -28.4438  -35.9009 H         1 UNK         0.0787 
    105 H105       24.0445  -31.4817  -38.4928 H         1 UNK         0.3055 
    106 H106       23.0564  -34.1033  -37.6044 H         1 UNK         0.1106 
    107 H107       24.8937  -34.9732  -39.0486 H         1 UNK         0.0828 
    108 H108       25.2422  -33.3489  -39.6229 H         1 UNK         0.0828 
    109 H109       25.4889  -33.7596  -37.9281 H         1 UNK         0.0828 
    110 H110       23.2291  -32.2653  -40.6743 H         1 UNK         0.2931 
    111 H111       22.0694  -32.1914  -42.5044 H         1 UNK         0.0412 
    112 H112       23.7141  -34.7157  -42.0141 H         1 UNK         0.3472 
    113 H113       23.1442  -35.7864  -43.2719 H         1 UNK         0.3472 
    114 H114       19.6099  -32.7099  -42.5411 H         1 UNK         0.0970 
    115 H115       19.7499  -33.4657  -40.9814 H         1 UNK         0.0970 
    116 H116       18.6535  -30.4974  -42.7546 H         1 UNK         0.0612 
    117 H117       20.3282  -30.0274  -42.9435 H         1 UNK         0.0612 
@<TRIPOS>BOND
     1    1    2 1    
     2    1   62 1    
     3    1   63 1    
     4    1   64 1    
     5    2    3 2    
     6    2    4 am   BACKBONE|DICT|INTERRES
     7    4    5 1    
     8    4   65 1    
     9    5    6 1    
    10    5   25 1    
    11    5   66 1    
    12    6    7 1    
    13    6   67 1    
    14    6   68 1    
    15    7    8 1    
    16    8    9 1    
    17    8   69 1    
    18    8   70 1    
    19    9   10 ar   
    20    9   14 ar   
    21   10   11 ar   
    22   10   71 1    
    23   11   12 ar   
    24   11   61 1    
    25   12   13 ar   
    26   12   72 1    
    27   13   14 ar   
    28   13   15 1    
    29   14   73 1    
    30   15   16 1    
    31   15   74 1    
    32   15   75 1    
    33   16   17 1    
    34   17   18 1    
    35   17   76 1    
    36   17   77 1    
    37   18   19 1    
    38   18   27 1    
    39   18   78 1    
    40   19   20 am   BACKBONE|DICT|INTERRES
    41   19   79 1    
    42   20   21 2    
    43   20   22 1    
    44   22   23 1    
    45   22   24 1    
    46   22   80 1    
    47   23   81 1    
    48   23   82 1    
    49   23   83 1    
    50   24   25 am   BACKBONE|DICT|INTERRES
    51   24   84 1    
    52   25   26 2    
    53   27   28 2    
    54   27   29 am   BACKBONE|DICT|INTERRES
    55   29   30 1    
    56   29   85 1    
    57   30   31 1    
    58   30   32 1    
    59   30   86 1    
    60   31   87 1    
    61   31   88 1    
    62   31   89 1    
    63   32   33 2    
    64   32   34 am   BACKBONE|DICT|INTERRES
    65   34   35 1    
    66   34   90 1    
    67   35   36 1    
    68   35   37 1    
    69   35   91 1    
    70   36   92 1    
    71   36   93 1    
    72   36   94 1    
    73   37   38 2    
    74   37   39 am   BACKBONE|DICT|INTERRES
    75   39   40 1    
    76   39   95 1    
    77   40   41 1    
    78   40   42 1    
    79   40   96 1    
    80   41   97 1    
    81   41   98 1    
    82   41   99 1    
    83   42   43 2    
    84   42   44 am   BACKBONE|DICT|INTERRES
    85   44   45 1    
    86   44  100 1    
    87   45   46 1    
    88   45   47 1    
    89   45  101 1    
    90   46  102 1    
    91   46  103 1    
    92   46  104 1    
    93   47   48 2    
    94   47   49 am   BACKBONE|DICT|INTERRES
    95   49   50 1    
    96   49  105 1    
    97   50   51 1    
    98   50   52 1    
    99   50  106 1    
   100   51  107 1    
   101   51  108 1    
   102   51  109 1    
   103   52   53 2    
   104   52   54 am   BACKBONE|DICT|INTERRES
   105   54   55 1    
   106   54  110 1    
   107   55   56 1    
   108   55   59 1    
   109   55  111 1    
   110   56   57 am   BACKBONE|DICT|INTERRES
   111   56   58 2    
   112   57  112 1    
   113   57  113 1    
   114   59   60 1    
   115   59  114 1    
   116   59  115 1    
   117   60   61 1    
   118   61  116 1    
   119   61  117 1    
@<TRIPOS>SUBSTRUCTURE
     1 UNK         1 GROUP             0       ****    0 ROOT    
