@<TRIPOS>MOLECULE
3R8
117   119    1
SMALL
USER_CHARGES


@<TRIPOS>ATOM
      1 CA         17.2365  -26.3736  -39.4190 C.3       0 UNK        -0.2013 
      2 C          16.3627  -27.6140  -39.2438 C.2       0 UNK         0.4866 
      3 O          16.0635  -27.9801  -38.1095 O.2       0 UNK        -0.5176 
      4 N          15.9158  -28.2873  -40.3143 N.am      1 UNK        -0.4884 
      5 CA         16.2422  -28.0523  -41.7263 C.3       1 UNK         0.0853 
      6 C6         15.3460  -28.9208  -42.6414 C.3       10 UNK        -0.0849 
      7 S7         15.3436  -28.3630  -44.3807 S.3       10 UNK        -0.2776 
      8 C8         15.8282  -29.8754  -45.2774 C.3       10 UNK         0.0316 
      9 C9         17.3011  -29.8836  -45.6672 C.ar      10 UNK        -0.0863 
     10 C10        18.2255  -30.6780  -44.9807 C.ar      10 UNK        -0.1009 
     11 C11        19.5568  -30.7544  -45.4093 C.ar      10 UNK        -0.0712 
     12 C12        19.9651  -30.0137  -46.5235 C.ar      10 UNK        -0.0894 
     13 C13        19.0506  -29.2095  -47.2115 C.ar      10 UNK        -0.0745 
     14 C14        17.7244  -29.1465  -46.7758 C.ar      10 UNK        -0.0972 
     15 C15        19.4663  -28.4472  -48.4603 C.3       10 UNK         0.0209 
     16 S16        19.7971  -26.6933  -48.1100 S.3       10 UNK        -0.2568 
     17 C17        21.5345  -26.7409  -47.5616 C.3       10 UNK        -0.0983 
     18 CA         21.7274  -26.1769  -46.1301 C.3       3 UNK         0.0876 
     19 N          21.0744  -27.0061  -45.1113 N.am      3 UNK        -0.4424 
     20 C          20.1093  -26.6092  -44.2764 C.2       2 UNK         0.4918 
     21 O          19.5536  -25.5095  -44.3089 O.2       2 UNK        -0.4875 
     22 CA         19.7774  -27.5965  -43.1577 C.3       2 UNK         0.0481 
     23 CB         20.7531  -27.4226  -41.9757 C.3       2 UNK        -0.1831 
     24 N          18.3973  -27.4354  -42.7228 N.am      2 UNK        -0.4498 
     25 C          17.7302  -28.3381  -41.9958 C.2       1 UNK         0.5027 
     26 O          18.2319  -29.3700  -41.5427 O.2       1 UNK        -0.4969 
     27 C          23.2210  -26.0150  -45.7648 C.2       3 UNK         0.5005 
     28 O          24.0780  -26.0119  -46.6498 O.2       3 UNK        -0.5279 
     29 N          23.5101  -25.9172  -44.4561 N.am      4 UNK        -0.4463 
     30 CA         24.8354  -25.7883  -43.8311 C.3       4 UNK         0.0283 
     31 CB         25.5199  -24.4693  -44.2501 C.3       4 UNK        -0.1875 
     32 C          25.7601  -27.0123  -44.0114 C.2       4 UNK         0.4949 
     33 O          26.9656  -26.8924  -43.7886 O.2       4 UNK        -0.5039 
     34 N          25.1940  -28.1726  -44.3775 N.am      5 UNK        -0.4663 
     35 CA         25.9100  -29.4497  -44.4854 C.3       5 UNK         0.0242 
     36 CB         25.0413  -30.4638  -45.2479 C.3       5 UNK        -0.1982 
     37 C          26.3162  -30.0011  -43.1075 C.2       5 UNK         0.5017 
     38 O          27.4281  -30.5069  -42.9529 O.2       5 UNK        -0.5012 
     39 N          25.4144  -29.8488  -42.1335 N.am      6 UNK        -0.4439 
     40 CA         25.5930  -30.0901  -40.7080 C.3       6 UNK         0.0297 
     41 CB         25.6341  -31.5983  -40.3946 C.3       6 UNK        -0.2006 
     42 C          24.4296  -29.3917  -39.9937 C.2       6 UNK         0.4892 
     43 O          23.4306  -29.0574  -40.6397 O.2       6 UNK        -0.5089 
     44 N          24.5800  -29.1719  -38.6822 N.am      7 UNK        -0.4243 
     45 CA         23.5762  -28.5362  -37.8277 C.3       7 UNK         0.0196 
     46 CB         24.1873  -28.2550  -36.4439 C.3       7 UNK        -0.2007 
     47 C          22.3115  -29.4044  -37.7175 C.2       7 UNK         0.5020 
     48 O          22.3559  -30.4547  -37.0745 O.2       7 UNK        -0.5147 
     49 N          21.2284  -28.9486  -38.3635 N.am      8 UNK        -0.4734 
     50 CA         19.9165  -29.6011  -38.4670 C.3       8 UNK         0.0238 
     51 CB         19.1904  -29.5782  -37.1051 C.3       8 UNK        -0.1912 
     52 C          19.9988  -31.0117  -39.0860 C.2       8 UNK         0.5038 
     53 O          19.5098  -31.9747  -38.4905 O.2       8 UNK        -0.5046 
     54 N          20.6373  -31.1069  -40.2614 N.am      9 UNK        -0.4200 
     55 CA         20.7698  -32.3441  -41.0486 C.3       9 UNK         0.0839 
     56 C          19.4324  -32.9838  -41.5259 C.2       9 UNK         0.5513 
     57 N          18.3346  -32.2440  -41.6207 N.am      9 UNK        -0.7519 
     58 O          19.3942  -34.1792  -41.8060 O.2       9 UNK        -0.4960 
     59 C59        21.7855  -32.1920  -42.2148 C.3       10 UNK        -0.0876 
     60 S60        21.4168  -30.8166  -43.3561 S.3       10 UNK        -0.2414 
     61 C61        20.5377  -31.6757  -44.6971 C.3       10 UNK         0.0169 
     62 H62        17.2415  -25.7846  -38.5019 H         1 UNK         0.0903 
     63 H63        16.8708  -25.7271  -40.2152 H         1 UNK         0.0903 
     64 H64        18.2665  -26.6544  -39.6360 H         1 UNK         0.0903 
     65 H65        15.3567  -29.1109  -40.1437 H         1 UNK         0.3096 
     66 H66        16.0321  -27.0035  -41.9446 H         1 UNK         0.1121 
     67 H67        15.6241  -29.9743  -42.5697 H         1 UNK         0.0849 
     68 H68        14.3109  -28.8676  -42.2995 H         1 UNK         0.0849 
     69 H69        15.5743  -30.7664  -44.7016 H         1 UNK         0.0865 
     70 H70        15.2259  -29.9387  -46.1851 H         1 UNK         0.0865 
     71 H71        17.9047  -31.2585  -44.1276 H         1 UNK         0.1346 
     72 H72        20.9884  -30.0806  -46.8665 H         1 UNK         0.1412 
     73 H73        17.0123  -28.5376  -47.3167 H         1 UNK         0.1426 
     74 H74        18.6649  -28.5055  -49.1984 H         1 UNK         0.0716 
     75 H75        20.3358  -28.9093  -48.9302 H         1 UNK         0.0716 
     76 H76        21.9260  -27.7574  -47.6270 H         1 UNK         0.0695 
     77 H77        22.0993  -26.1526  -48.2873 H         1 UNK         0.0695 
     78 H78        21.3111  -25.1672  -46.1113 H         1 UNK         0.0983 
     79 H79        21.4376  -27.9428  -45.0094 H         1 UNK         0.3095 
     80 H80        19.8666  -28.5971  -43.5724 H         1 UNK         0.0454 
     81 H81        20.6481  -26.4434  -41.5077 H         1 UNK         0.0851 
     82 H82        20.5940  -28.1793  -41.2104 H         1 UNK         0.0851 
     83 H83        21.7893  -27.5249  -42.2989 H         1 UNK         0.0851 
     84 H84        17.9283  -26.6203  -43.0977 H         1 UNK         0.2976 
     85 H85        22.7312  -25.9193  -43.8130 H         1 UNK         0.3116 
     86 H86        24.6474  -25.7257  -42.7582 H         1 UNK         0.0646 
     87 H87        26.4220  -24.2913  -43.6635 H         1 UNK         0.0847 
     88 H88        24.8634  -23.6133  -44.0953 H         1 UNK         0.0847 
     89 H89        25.8156  -24.4809  -45.2995 H         1 UNK         0.0847 
     90 H90        24.2029  -28.1838  -44.5601 H         1 UNK         0.3040 
     91 H91        26.8250  -29.2822  -45.0586 H         1 UNK         0.1015 
     92 H92        24.7966  -30.1044  -46.2477 H         1 UNK         0.0786 
     93 H93        24.1064  -30.6723  -44.7275 H         1 UNK         0.0786 
     94 H94        25.5657  -31.4132  -45.3654 H         1 UNK         0.0786 
     95 H95        24.5253  -29.4096  -42.3445 H         1 UNK         0.3172 
     96 H96        26.5268  -29.6221  -40.3902 H         1 UNK         0.0595 
     97 H97        25.7750  -31.7725  -39.3273 H         1 UNK         0.0839 
     98 H98        26.4583  -32.0921  -40.9090 H         1 UNK         0.0839 
     99 H99        24.7133  -32.1014  -40.6838 H         1 UNK         0.0839 
    100 H100       25.4185  -29.5006  -38.2256 H         1 UNK         0.2998 
    101 H101       23.3103  -27.5763  -38.2763 H         1 UNK         0.0822 
    102 H102       24.5211  -29.1706  -35.9536 H         1 UNK         0.0787 
    103 H103       25.0421  -27.5823  -36.5163 H         1 UNK         0.0787 
    104 H104       23.4576  -27.7811  -35.7858 H         1 UNK         0.0787 
    105 H105       21.3324  -28.0943  -38.8933 H         1 UNK         0.3055 
    106 H106       19.3211  -29.0039  -39.1579 H         1 UNK         0.1106 
    107 H107       19.7093  -30.1774  -36.3564 H         1 UNK         0.0828 
    108 H108       19.1004  -28.5623  -36.7208 H         1 UNK         0.0828 
    109 H109       18.1789  -29.9763  -37.1977 H         1 UNK         0.0828 
    110 H110       21.0226  -30.2751  -40.6849 H         1 UNK         0.2931 
    111 H111       21.2036  -33.0758  -40.3641 H         1 UNK         0.0412 
    112 H112       18.3733  -31.2416  -41.4539 H         1 UNK         0.3472 
    113 H113       17.4722  -32.6765  -41.9072 H         1 UNK         0.3472 
    114 H114       21.8869  -33.1243  -42.7737 H         1 UNK         0.0970 
    115 H115       22.7732  -31.9974  -41.8010 H         1 UNK         0.0970 
    116 H116       21.2688  -32.0719  -45.4033 H         1 UNK         0.0612 
    117 H117       19.9996  -32.5382  -44.3036 H         1 UNK         0.0612 
@<TRIPOS>BOND
     1    1    2 1    
     2    1   62 1    
     3    1   63 1    
     4    1   64 1    
     5    2    3 2    
     6    2    4 am   BACKBONE|DICT|INTERRES
     7    4    5 1    
     8    4   65 1    
     9    5    6 1    
    10    5   25 1    
    11    5   66 1    
    12    6    7 1    
    13    6   67 1    
    14    6   68 1    
    15    7    8 1    
    16    8    9 1    
    17    8   69 1    
    18    8   70 1    
    19    9   10 ar   
    20    9   14 ar   
    21   10   11 ar   
    22   10   71 1    
    23   11   12 ar   
    24   11   61 1    
    25   12   13 ar   
    26   12   72 1    
    27   13   14 ar   
    28   13   15 1    
    29   14   73 1    
    30   15   16 1    
    31   15   74 1    
    32   15   75 1    
    33   16   17 1    
    34   17   18 1    
    35   17   76 1    
    36   17   77 1    
    37   18   19 1    
    38   18   27 1    
    39   18   78 1    
    40   19   20 am   BACKBONE|DICT|INTERRES
    41   19   79 1    
    42   20   21 2    
    43   20   22 1    
    44   22   23 1    
    45   22   24 1    
    46   22   80 1    
    47   23   81 1    
    48   23   82 1    
    49   23   83 1    
    50   24   25 am   BACKBONE|DICT|INTERRES
    51   24   84 1    
    52   25   26 2    
    53   27   28 2    
    54   27   29 am   BACKBONE|DICT|INTERRES
    55   29   30 1    
    56   29   85 1    
    57   30   31 1    
    58   30   32 1    
    59   30   86 1    
    60   31   87 1    
    61   31   88 1    
    62   31   89 1    
    63   32   33 2    
    64   32   34 am   BACKBONE|DICT|INTERRES
    65   34   35 1    
    66   34   90 1    
    67   35   36 1    
    68   35   37 1    
    69   35   91 1    
    70   36   92 1    
    71   36   93 1    
    72   36   94 1    
    73   37   38 2    
    74   37   39 am   BACKBONE|DICT|INTERRES
    75   39   40 1    
    76   39   95 1    
    77   40   41 1    
    78   40   42 1    
    79   40   96 1    
    80   41   97 1    
    81   41   98 1    
    82   41   99 1    
    83   42   43 2    
    84   42   44 am   BACKBONE|DICT|INTERRES
    85   44   45 1    
    86   44  100 1    
    87   45   46 1    
    88   45   47 1    
    89   45  101 1    
    90   46  102 1    
    91   46  103 1    
    92   46  104 1    
    93   47   48 2    
    94   47   49 am   BACKBONE|DICT|INTERRES
    95   49   50 1    
    96   49  105 1    
    97   50   51 1    
    98   50   52 1    
    99   50  106 1    
   100   51  107 1    
   101   51  108 1    
   102   51  109 1    
   103   52   53 2    
   104   52   54 am   BACKBONE|DICT|INTERRES
   105   54   55 1    
   106   54  110 1    
   107   55   56 1    
   108   55   59 1    
   109   55  111 1    
   110   56   57 am   BACKBONE|DICT|INTERRES
   111   56   58 2    
   112   57  112 1    
   113   57  113 1    
   114   59   60 1    
   115   59  114 1    
   116   59  115 1    
   117   60   61 1    
   118   61  116 1    
   119   61  117 1    
@<TRIPOS>SUBSTRUCTURE
     1 UNK         1 GROUP             0       ****    0 ROOT    
