@<TRIPOS>MOLECULE
3R8
117   119    1
SMALL
USER_CHARGES


@<TRIPOS>ATOM
      1 CA         16.5100  -24.0152  -39.4298 C.3       0 UNK        -0.2013 
      2 C          16.8606  -24.1868  -40.9001 C.2       0 UNK         0.4866 
      3 O          17.3298  -23.2399  -41.5332 O.2       0 UNK        -0.5176 
      4 N          16.6375  -25.3865  -41.4520 N.am      1 UNK        -0.4884 
      5 CA         16.9593  -25.7452  -42.8359 C.3       1 UNK         0.0853 
      6 C6         16.0383  -26.8856  -43.3492 C.3       10 UNK        -0.0849 
      7 S7         15.8829  -26.8823  -45.1684 S.3       10 UNK        -0.2776 
      8 C8         15.1993  -28.5428  -45.4909 C.3       10 UNK         0.0316 
      9 C9         16.2583  -29.6234  -45.3314 C.ar      10 UNK        -0.0863 
     10 C10        16.2986  -30.4130  -44.1795 C.ar      10 UNK        -0.1009 
     11 C11        17.3083  -31.3636  -44.0059 C.ar      10 UNK        -0.0712 
     12 C12        18.2843  -31.5198  -44.9951 C.ar      10 UNK        -0.0894 
     13 C13        18.2610  -30.7313  -46.1503 C.ar      10 UNK        -0.0745 
     14 C14        17.2213  -29.8099  -46.3266 C.ar      10 UNK        -0.0972 
     15 C15        19.4037  -30.8409  -47.1607 C.3       10 UNK         0.0209 
     16 S16        19.9973  -29.2344  -47.8148 S.3       10 UNK        -0.2568 
     17 C17        20.0949  -28.1905  -46.3159 C.3       10 UNK        -0.0983 
     18 CA         21.5148  -27.7707  -45.8689 C.3       3 UNK         0.0876 
     19 N          21.4260  -26.9417  -44.6750 N.am      3 UNK        -0.4424 
     20 C          21.0521  -25.6633  -44.6346 C.2       2 UNK         0.4918 
     21 O          20.8852  -24.9581  -45.6313 O.2       2 UNK        -0.4875 
     22 CA         20.7434  -25.1001  -43.2378 C.3       2 UNK         0.0481 
     23 CB         21.3707  -23.7114  -43.0326 C.3       2 UNK        -0.1831 
     24 N          19.2952  -25.0182  -43.0379 N.am      2 UNK        -0.4498 
     25 C          18.4656  -26.0687  -42.9463 C.2       1 UNK         0.5027 
     26 O          18.8529  -27.2371  -42.8953 O.2       1 UNK        -0.4969 
     27 C          22.3996  -28.9682  -45.4891 C.2       3 UNK         0.5005 
     28 O          22.3777  -29.3903  -44.3279 O.2       3 UNK        -0.5279 
     29 N          23.1755  -29.4788  -46.4564 N.am      4 UNK        -0.4463 
     30 CA         24.1941  -30.5222  -46.2935 C.3       4 UNK         0.0283 
     31 CB         23.5419  -31.8919  -46.0005 C.3       4 UNK        -0.1875 
     32 C          25.2612  -30.0810  -45.2719 C.2       4 UNK         0.4949 
     33 O          25.9979  -29.1378  -45.5630 O.2       4 UNK        -0.5039 
     34 N          25.3133  -30.7260  -44.0988 N.am      5 UNK        -0.4663 
     35 CA         26.2004  -30.3447  -42.9934 C.3       5 UNK         0.0242 
     36 CB         26.6258  -31.6076  -42.2264 C.3       5 UNK        -0.1982 
     37 C          25.5929  -29.2772  -42.0588 C.2       5 UNK         0.5017 
     38 O          26.2977  -28.8035  -41.1663 O.2       5 UNK        -0.5012 
     39 N          24.3218  -28.9035  -42.2773 N.am      6 UNK        -0.4439 
     40 CA         23.5287  -27.8608  -41.6108 C.3       6 UNK         0.0297 
     41 CB         24.1407  -26.4620  -41.8162 C.3       6 UNK        -0.2006 
     42 C          23.2001  -28.1205  -40.1319 C.2       6 UNK         0.4892 
     43 O          22.0256  -28.0504  -39.7678 O.2       6 UNK        -0.5089 
     44 N          24.2155  -28.4163  -39.3113 N.am      7 UNK        -0.4243 
     45 CA         24.1076  -28.7157  -37.8807 C.3       7 UNK         0.0196 
     46 CB         25.5211  -28.8088  -37.2807 C.3       7 UNK        -0.2007 
     47 C          23.3092  -30.0096  -37.6558 C.2       7 UNK         0.5020 
     48 O          23.8568  -31.0979  -37.8366 O.2       7 UNK        -0.5147 
     49 N          22.0092  -29.8619  -37.3580 N.am      8 UNK        -0.4734 
     50 CA         20.9870  -30.9212  -37.3347 C.3       8 UNK         0.0238 
     51 CB         21.2159  -31.8781  -36.1448 C.3       8 UNK        -0.1912 
     52 C          20.8757  -31.6571  -38.6887 C.2       8 UNK         0.5038 
     53 O          20.7050  -32.8771  -38.7144 O.2       8 UNK        -0.5046 
     54 N          21.0239  -30.8922  -39.7809 N.am      9 UNK        -0.4200 
     55 CA         21.1690  -31.3497  -41.1745 C.3       9 UNK         0.0839 
     56 C          22.5309  -32.0459  -41.4805 C.2       9 UNK         0.5513 
     57 N          23.4752  -32.1312  -40.5518 N.am      9 UNK        -0.7519 
     58 O          22.7564  -32.4984  -42.5986 O.2       9 UNK        -0.4960 
     59 C59        19.9681  -32.1905  -41.6980 C.3       10 UNK        -0.0876 
     60 S60        18.3408  -31.4038  -41.4382 S.3       10 UNK        -0.2414 
     61 C61        17.3461  -32.2022  -42.7374 C.3       10 UNK         0.0169 
     62 H62        15.7741  -23.2206  -39.3104 H         1 UNK         0.0903 
     63 H63        16.0971  -24.9272  -38.9991 H         1 UNK         0.0903 
     64 H64        17.3995  -23.7441  -38.8618 H         1 UNK         0.0903 
     65 H65        16.2822  -26.1377  -40.8770 H         1 UNK         0.3096 
     66 H66        16.7663  -24.8686  -43.4596 H         1 UNK         0.1121 
     67 H67        15.0299  -26.7560  -42.9529 H         1 UNK         0.0849 
     68 H68        16.3713  -27.8618  -42.9937 H         1 UNK         0.0849 
     69 H69        14.3502  -28.7256  -44.8304 H         1 UNK         0.0865 
     70 H70        14.8050  -28.5715  -46.5078 H         1 UNK         0.0865 
     71 H71        15.5566  -30.2737  -43.4051 H         1 UNK         0.1346 
     72 H72        19.0790  -32.2384  -44.8534 H         1 UNK         0.1412 
     73 H73        17.1971  -29.1881  -47.2111 H         1 UNK         0.1426 
     74 H74        19.0797  -31.4637  -47.9951 H         1 UNK         0.0716 
     75 H75        20.2572  -31.3488  -46.7083 H         1 UNK         0.0716 
     76 H76        19.5943  -28.6690  -45.4742 H         1 UNK         0.0695 
     77 H77        19.5010  -27.2997  -46.5260 H         1 UNK         0.0695 
     78 H78        22.0036  -27.2024  -46.6632 H         1 UNK         0.0983 
     79 H79        21.5281  -27.4695  -43.8176 H         1 UNK         0.3095 
     80 H80        21.1553  -25.7703  -42.4805 H         1 UNK         0.0454 
     81 H81        20.9719  -22.9770  -43.7337 H         1 UNK         0.0851 
     82 H82        22.4511  -23.7475  -43.1784 H         1 UNK         0.0851 
     83 H83        21.1927  -23.3413  -42.0229 H         1 UNK         0.0851 
     84 H84        18.8911  -24.0909  -43.0018 H         1 UNK         0.2976 
     85 H85        23.1279  -29.0608  -47.3757 H         1 UNK         0.3116 
     86 H86        24.7105  -30.6071  -47.2509 H         1 UNK         0.0646 
     87 H87        22.9165  -31.8739  -45.1091 H         1 UNK         0.0847 
     88 H88        24.2948  -32.6694  -45.8646 H         1 UNK         0.0847 
     89 H89        22.9092  -32.2040  -46.8312 H         1 UNK         0.0847 
     90 H90        24.6400  -31.4598  -43.9152 H         1 UNK         0.3040 
     91 H91        27.1100  -29.8978  -43.4015 H         1 UNK         0.1015 
     92 H92        25.7706  -32.1937  -41.8991 H         1 UNK         0.0786 
     93 H93        27.2145  -31.3584  -41.3422 H         1 UNK         0.0786 
     94 H94        27.2441  -32.2521  -42.8514 H         1 UNK         0.0786 
     95 H95        23.8267  -29.3666  -43.0364 H         1 UNK         0.3172 
     96 H96        22.5692  -27.8651  -42.1277 H         1 UNK         0.0595 
     97 H97        25.1246  -26.3733  -41.3549 H         1 UNK         0.0839 
     98 H98        23.5082  -25.6904  -41.3752 H         1 UNK         0.0839 
     99 H99        24.2459  -26.2285  -42.8758 H         1 UNK         0.0839 
    100 H100       25.1355  -28.5057  -39.7360 H         1 UNK         0.2998 
    101 H101       23.5860  -27.8886  -37.3946 H         1 UNK         0.0822 
    102 H102       25.4787  -29.0491  -36.2176 H         1 UNK         0.0787 
    103 H103       26.1174  -29.5820  -37.7675 H         1 UNK         0.0787 
    104 H104       26.0559  -27.8640  -37.3792 H         1 UNK         0.0787 
    105 H105       21.6532  -28.9173  -37.2856 H         1 UNK         0.3055 
    106 H106       20.0259  -30.4272  -37.1820 H         1 UNK         0.1106 
    107 H107       20.3937  -32.5886  -36.0513 H         1 UNK         0.0828 
    108 H108       22.1325  -32.4573  -36.2599 H         1 UNK         0.0828 
    109 H109       21.2794  -31.3329  -35.2033 H         1 UNK         0.0828 
    110 H110       21.1879  -29.9003  -39.6441 H         1 UNK         0.2931 
    111 H111       21.1927  -30.4310  -41.7623 H         1 UNK         0.0412 
    112 H112       24.3322  -32.6068  -40.7764 H         1 UNK         0.3472 
    113 H113       23.3433  -31.7678  -39.6144 H         1 UNK         0.3472 
    114 H114       20.0942  -32.3739  -42.7654 H         1 UNK         0.0970 
    115 H115       19.9518  -33.1744  -41.2268 H         1 UNK         0.0970 
    116 H116       16.3324  -32.3435  -42.3595 H         1 UNK         0.0612 
    117 H117       17.7302  -33.2014  -42.9484 H         1 UNK         0.0612 
@<TRIPOS>BOND
     1    1    2 1    
     2    1   62 1    
     3    1   63 1    
     4    1   64 1    
     5    2    3 2    
     6    2    4 am   BACKBONE|DICT|INTERRES
     7    4    5 1    
     8    4   65 1    
     9    5    6 1    
    10    5   25 1    
    11    5   66 1    
    12    6    7 1    
    13    6   67 1    
    14    6   68 1    
    15    7    8 1    
    16    8    9 1    
    17    8   69 1    
    18    8   70 1    
    19    9   10 ar   
    20    9   14 ar   
    21   10   11 ar   
    22   10   71 1    
    23   11   12 ar   
    24   11   61 1    
    25   12   13 ar   
    26   12   72 1    
    27   13   14 ar   
    28   13   15 1    
    29   14   73 1    
    30   15   16 1    
    31   15   74 1    
    32   15   75 1    
    33   16   17 1    
    34   17   18 1    
    35   17   76 1    
    36   17   77 1    
    37   18   19 1    
    38   18   27 1    
    39   18   78 1    
    40   19   20 am   BACKBONE|DICT|INTERRES
    41   19   79 1    
    42   20   21 2    
    43   20   22 1    
    44   22   23 1    
    45   22   24 1    
    46   22   80 1    
    47   23   81 1    
    48   23   82 1    
    49   23   83 1    
    50   24   25 am   BACKBONE|DICT|INTERRES
    51   24   84 1    
    52   25   26 2    
    53   27   28 2    
    54   27   29 am   BACKBONE|DICT|INTERRES
    55   29   30 1    
    56   29   85 1    
    57   30   31 1    
    58   30   32 1    
    59   30   86 1    
    60   31   87 1    
    61   31   88 1    
    62   31   89 1    
    63   32   33 2    
    64   32   34 am   BACKBONE|DICT|INTERRES
    65   34   35 1    
    66   34   90 1    
    67   35   36 1    
    68   35   37 1    
    69   35   91 1    
    70   36   92 1    
    71   36   93 1    
    72   36   94 1    
    73   37   38 2    
    74   37   39 am   BACKBONE|DICT|INTERRES
    75   39   40 1    
    76   39   95 1    
    77   40   41 1    
    78   40   42 1    
    79   40   96 1    
    80   41   97 1    
    81   41   98 1    
    82   41   99 1    
    83   42   43 2    
    84   42   44 am   BACKBONE|DICT|INTERRES
    85   44   45 1    
    86   44  100 1    
    87   45   46 1    
    88   45   47 1    
    89   45  101 1    
    90   46  102 1    
    91   46  103 1    
    92   46  104 1    
    93   47   48 2    
    94   47   49 am   BACKBONE|DICT|INTERRES
    95   49   50 1    
    96   49  105 1    
    97   50   51 1    
    98   50   52 1    
    99   50  106 1    
   100   51  107 1    
   101   51  108 1    
   102   51  109 1    
   103   52   53 2    
   104   52   54 am   BACKBONE|DICT|INTERRES
   105   54   55 1    
   106   54  110 1    
   107   55   56 1    
   108   55   59 1    
   109   55  111 1    
   110   56   57 am   BACKBONE|DICT|INTERRES
   111   56   58 2    
   112   57  112 1    
   113   57  113 1    
   114   59   60 1    
   115   59  114 1    
   116   59  115 1    
   117   60   61 1    
   118   61  116 1    
   119   61  117 1    
@<TRIPOS>SUBSTRUCTURE
     1 UNK         1 GROUP             0       ****    0 ROOT    
