@<TRIPOS>MOLECULE
3R8
117   119    1
SMALL
USER_CHARGES


@<TRIPOS>ATOM
      1 CA         14.5905  -26.3423  -47.8881 C.3       0 UNK        -0.2013 
      2 C          15.0612  -25.7248  -46.5795 C.2       0 UNK         0.4866 
      3 O          14.5894  -24.6480  -46.2152 O.2       0 UNK        -0.5176 
      4 N          15.9829  -26.4082  -45.8857 N.am      1 UNK        -0.4884 
      5 CA         16.6157  -26.0351  -44.6112 C.3       1 UNK         0.0853 
      6 C6         15.6048  -26.0818  -43.4298 C.3       10 UNK        -0.0849 
      7 S7         14.8833  -27.7442  -43.1960 S.3       10 UNK        -0.2776 
      8 C8         15.3337  -28.1228  -41.4730 C.3       10 UNK         0.0316 
      9 C9         16.8316  -28.3292  -41.3018 C.ar      10 UNK        -0.0863 
     10 C10        17.4289  -29.5222  -41.7223 C.ar      10 UNK        -0.1009 
     11 C11        18.7995  -29.7295  -41.5420 C.ar      10 UNK        -0.0712 
     12 C12        19.5671  -28.7358  -40.9318 C.ar      10 UNK        -0.0894 
     13 C13        18.9903  -27.5304  -40.5299 C.ar      10 UNK        -0.0745 
     14 C14        17.6179  -27.3366  -40.7075 C.ar      10 UNK        -0.0972 
     15 C15        19.8440  -26.4368  -39.9066 C.3       10 UNK         0.0209 
     16 S16        20.2694  -25.1524  -41.1255 S.3       10 UNK        -0.2568 
     17 C17        21.7804  -25.8225  -41.9047 C.3       10 UNK        -0.0983 
     18 CA         21.5094  -26.6555  -43.1859 C.3       3 UNK         0.0876 
     19 N          20.7234  -25.9008  -44.1658 N.am      3 UNK        -0.4424 
     20 C          20.0090  -26.4334  -45.1634 C.2       2 UNK         0.4918 
     21 O          19.8542  -27.6439  -45.3273 O.2       2 UNK        -0.4875 
     22 CA         19.3527  -25.4278  -46.1230 C.3       2 UNK         0.0481 
     23 CB         18.7201  -26.0754  -47.3719 C.3       2 UNK        -0.1831 
     24 N          18.4515  -24.4890  -45.4379 N.am      2 UNK        -0.4498 
     25 C          17.3375  -24.6626  -44.7018 C.2       1 UNK         0.5027 
     26 O          16.8501  -23.6999  -44.1087 O.2       1 UNK        -0.4969 
     27 C          22.8125  -27.1471  -43.8570 C.2       3 UNK         0.5005 
     28 O          23.8601  -26.5139  -43.7115 O.2       3 UNK        -0.5279 
     29 N          22.6953  -28.2133  -44.6614 N.am      4 UNK        -0.4463 
     30 CA         23.7076  -28.6975  -45.6068 C.3       4 UNK         0.0283 
     31 CB         23.0908  -29.8128  -46.4665 C.3       4 UNK        -0.1875 
     32 C          25.0245  -29.1825  -44.9769 C.2       4 UNK         0.4949 
     33 O          26.0686  -29.0854  -45.6224 O.2       4 UNK        -0.5039 
     34 N          24.9582  -29.6967  -43.7461 N.am      5 UNK        -0.4663 
     35 CA         26.0980  -30.1862  -42.9763 C.3       5 UNK         0.0242 
     36 CB         26.5145  -31.5962  -43.4411 C.3       5 UNK        -0.1982 
     37 C          25.6889  -30.1374  -41.5054 C.2       5 UNK         0.5017 
     38 O          25.2631  -31.1543  -40.9505 O.2       5 UNK        -0.5012 
     39 N          25.7365  -28.9236  -40.9377 N.am      6 UNK        -0.4439 
     40 CA         25.2367  -28.5622  -39.6065 C.3       6 UNK         0.0297 
     41 CB         26.1207  -29.1941  -38.5061 C.3       6 UNK        -0.2006 
     42 C          23.7352  -28.8886  -39.4714 C.2       6 UNK         0.4892 
     43 O          23.0093  -28.7911  -40.4609 O.2       6 UNK        -0.5089 
     44 N          23.2982  -29.2909  -38.2724 N.am      7 UNK        -0.4243 
     45 CA         21.9380  -29.7643  -38.0023 C.3       7 UNK         0.0196 
     46 CB         21.6734  -29.6686  -36.4904 C.3       7 UNK        -0.2007 
     47 C          21.6733  -31.1974  -38.5080 C.2       7 UNK         0.5020 
     48 O          20.5196  -31.6256  -38.5008 O.2       7 UNK        -0.5147 
     49 N          22.7279  -31.9295  -38.8951 N.am      8 UNK        -0.4734 
     50 CA         22.6476  -33.3249  -39.3285 C.3       8 UNK         0.0238 
     51 CB         23.9969  -34.0176  -39.0735 C.3       8 UNK        -0.1912 
     52 C          22.2352  -33.4696  -40.8004 C.2       8 UNK         0.5038 
     53 O          21.4141  -34.3348  -41.1060 O.2       8 UNK        -0.5046 
     54 N          22.8272  -32.6466  -41.6785 N.am      9 UNK        -0.4200 
     55 CA         22.6927  -32.7138  -43.1479 C.3       9 UNK         0.0839 
     56 C          23.2965  -34.0022  -43.7909 C.2       9 UNK         0.5513 
     57 N          24.1671  -34.7368  -43.1083 N.am      9 UNK        -0.7519 
     58 O          23.0027  -34.3266  -44.9385 O.2       9 UNK        -0.4960 
     59 C59        21.2550  -32.4074  -43.6606 C.3       10 UNK        -0.0876 
     60 S60        20.7169  -30.7108  -43.2739 S.3       10 UNK        -0.2414 
     61 C61        19.4583  -31.0224  -41.9984 C.3       10 UNK         0.0169 
     62 H62        15.0867  -27.2901  -48.0962 H         1 UNK         0.0903 
     63 H63        13.5165  -26.5233  -47.8521 H         1 UNK         0.0903 
     64 H64        14.7944  -25.6648  -48.7169 H         1 UNK         0.0903 
     65 H65        16.2943  -27.2949  -46.2556 H         1 UNK         0.3096 
     66 H66        17.3757  -26.7868  -44.3999 H         1 UNK         0.1121 
     67 H67        16.0875  -25.7630  -42.5053 H         1 UNK         0.0849 
     68 H68        14.7862  -25.3784  -43.5917 H         1 UNK         0.0849 
     69 H69        14.8092  -29.0281  -41.1636 H         1 UNK         0.0865 
     70 H70        14.9718  -27.3276  -40.8192 H         1 UNK         0.0865 
     71 H71        16.8236  -30.2872  -42.1894 H         1 UNK         0.1346 
     72 H72        20.6244  -28.8982  -40.7998 H         1 UNK         0.1412 
     73 H73        17.1659  -26.4081  -40.3858 H         1 UNK         0.1426 
     74 H74        20.7511  -26.8507  -39.4637 H         1 UNK         0.0716 
     75 H75        19.2925  -25.9725  -39.0878 H         1 UNK         0.0716 
     76 H76        22.3306  -26.4117  -41.1716 H         1 UNK         0.0695 
     77 H77        22.4199  -24.9687  -42.1361 H         1 UNK         0.0695 
     78 H78        20.9399  -27.5389  -42.8964 H         1 UNK         0.0983 
     79 H79        20.7879  -24.8959  -44.0961 H         1 UNK         0.3095 
     80 H80        20.1658  -24.8004  -46.4917 H         1 UNK         0.0454 
     81 H81        18.0774  -25.3786  -47.9096 H         1 UNK         0.0851 
     82 H82        18.1438  -26.9691  -47.1424 H         1 UNK         0.0851 
     83 H83        19.5007  -26.3920  -48.0642 H         1 UNK         0.0851 
     84 H84        18.7932  -23.5386  -45.4587 H         1 UNK         0.2976 
     85 H85        21.7728  -28.6263  -44.7458 H         1 UNK         0.3116 
     86 H86        23.9563  -27.8623  -46.2648 H         1 UNK         0.0646 
     87 H87        23.8018  -30.1705  -47.2127 H         1 UNK         0.0847 
     88 H88        22.2098  -29.4607  -47.0037 H         1 UNK         0.0847 
     89 H89        22.7947  -30.6708  -45.8621 H         1 UNK         0.0847 
     90 H90        24.0671  -29.6892  -43.2665 H         1 UNK         0.3040 
     91 H91        26.9479  -29.5137  -43.1149 H         1 UNK         0.1015 
     92 H92        26.8339  -31.5955  -44.4832 H         1 UNK         0.0786 
     93 H93        25.7039  -32.3153  -43.3421 H         1 UNK         0.0786 
     94 H94        27.3503  -31.9676  -42.8472 H         1 UNK         0.0786 
     95 H95        26.0278  -28.1465  -41.5149 H         1 UNK         0.3172 
     96 H96        25.3234  -27.4776  -39.5275 H         1 UNK         0.0595 
     97 H97        26.0099  -30.2785  -38.4621 H         1 UNK         0.0839 
     98 H98        25.8823  -28.7929  -37.5205 H         1 UNK         0.0839 
     99 H99        27.1751  -28.9807  -38.6824 H         1 UNK         0.0839 
    100 H100       23.9572  -29.3430  -37.5090 H         1 UNK         0.2998 
    101 H101       21.2307  -29.1057  -38.5085 H         1 UNK         0.0822 
    102 H102       22.3459  -30.3113  -35.9208 H         1 UNK         0.0787 
    103 H103       21.7963  -28.6472  -36.1295 H         1 UNK         0.0787 
    104 H104       20.6531  -29.9726  -36.2522 H         1 UNK         0.0787 
    105 H105       23.6399  -31.4953  -38.9139 H         1 UNK         0.3055 
    106 H106       21.8921  -33.8359  -38.7265 H         1 UNK         0.1106 
    107 H107       23.9633  -35.0635  -39.3823 H         1 UNK         0.0828 
    108 H108       24.8112  -33.5411  -39.6208 H         1 UNK         0.0828 
    109 H109       24.2540  -34.0036  -38.0143 H         1 UNK         0.0828 
    110 H110       23.5288  -32.0003  -41.3310 H         1 UNK         0.2931 
    111 H111       23.3301  -31.9148  -43.5230 H         1 UNK         0.0412 
    112 H112       24.4378  -34.4758  -42.1744 H         1 UNK         0.3472 
    113 H113       24.5594  -35.5604  -43.5371 H         1 UNK         0.3472 
    114 H114       21.2073  -32.4985  -44.7469 H         1 UNK         0.0970 
    115 H115       20.5380  -33.1333  -43.2754 H         1 UNK         0.0970 
    116 H116       18.7137  -31.7158  -42.3923 H         1 UNK         0.0612 
    117 H117       19.9235  -31.5126  -41.1436 H         1 UNK         0.0612 
@<TRIPOS>BOND
     1    1    2 1    
     2    1   62 1    
     3    1   63 1    
     4    1   64 1    
     5    2    3 2    
     6    2    4 am   BACKBONE|DICT|INTERRES
     7    4    5 1    
     8    4   65 1    
     9    5    6 1    
    10    5   25 1    
    11    5   66 1    
    12    6    7 1    
    13    6   67 1    
    14    6   68 1    
    15    7    8 1    
    16    8    9 1    
    17    8   69 1    
    18    8   70 1    
    19    9   10 ar   
    20    9   14 ar   
    21   10   11 ar   
    22   10   71 1    
    23   11   12 ar   
    24   11   61 1    
    25   12   13 ar   
    26   12   72 1    
    27   13   14 ar   
    28   13   15 1    
    29   14   73 1    
    30   15   16 1    
    31   15   74 1    
    32   15   75 1    
    33   16   17 1    
    34   17   18 1    
    35   17   76 1    
    36   17   77 1    
    37   18   19 1    
    38   18   27 1    
    39   18   78 1    
    40   19   20 am   BACKBONE|DICT|INTERRES
    41   19   79 1    
    42   20   21 2    
    43   20   22 1    
    44   22   23 1    
    45   22   24 1    
    46   22   80 1    
    47   23   81 1    
    48   23   82 1    
    49   23   83 1    
    50   24   25 am   BACKBONE|DICT|INTERRES
    51   24   84 1    
    52   25   26 2    
    53   27   28 2    
    54   27   29 am   BACKBONE|DICT|INTERRES
    55   29   30 1    
    56   29   85 1    
    57   30   31 1    
    58   30   32 1    
    59   30   86 1    
    60   31   87 1    
    61   31   88 1    
    62   31   89 1    
    63   32   33 2    
    64   32   34 am   BACKBONE|DICT|INTERRES
    65   34   35 1    
    66   34   90 1    
    67   35   36 1    
    68   35   37 1    
    69   35   91 1    
    70   36   92 1    
    71   36   93 1    
    72   36   94 1    
    73   37   38 2    
    74   37   39 am   BACKBONE|DICT|INTERRES
    75   39   40 1    
    76   39   95 1    
    77   40   41 1    
    78   40   42 1    
    79   40   96 1    
    80   41   97 1    
    81   41   98 1    
    82   41   99 1    
    83   42   43 2    
    84   42   44 am   BACKBONE|DICT|INTERRES
    85   44   45 1    
    86   44  100 1    
    87   45   46 1    
    88   45   47 1    
    89   45  101 1    
    90   46  102 1    
    91   46  103 1    
    92   46  104 1    
    93   47   48 2    
    94   47   49 am   BACKBONE|DICT|INTERRES
    95   49   50 1    
    96   49  105 1    
    97   50   51 1    
    98   50   52 1    
    99   50  106 1    
   100   51  107 1    
   101   51  108 1    
   102   51  109 1    
   103   52   53 2    
   104   52   54 am   BACKBONE|DICT|INTERRES
   105   54   55 1    
   106   54  110 1    
   107   55   56 1    
   108   55   59 1    
   109   55  111 1    
   110   56   57 am   BACKBONE|DICT|INTERRES
   111   56   58 2    
   112   57  112 1    
   113   57  113 1    
   114   59   60 1    
   115   59  114 1    
   116   59  115 1    
   117   60   61 1    
   118   61  116 1    
   119   61  117 1    
@<TRIPOS>SUBSTRUCTURE
     1 UNK         1 GROUP             0       ****    0 ROOT    
