@<TRIPOS>MOLECULE
3R8
117   119    1
SMALL
USER_CHARGES


@<TRIPOS>ATOM
      1 CA         13.0483  -24.1240  -43.7531 C.3       0 UNK        -0.2013 
      2 C          14.2085  -24.2565  -44.7283 C.2       0 UNK         0.4866 
      3 O          14.3206  -23.4585  -45.6599 O.2       0 UNK        -0.5176 
      4 N          15.0673  -25.2630  -44.5273 N.am      1 UNK        -0.4884 
      5 CA         16.2667  -25.5087  -45.3353 C.3       1 UNK         0.0853 
      6 C6         16.8467  -26.9288  -45.1107 C.3       10 UNK        -0.0849 
      7 S7         15.6626  -28.2860  -45.4009 S.3       10 UNK        -0.2776 
      8 C8         15.4216  -28.9504  -43.7183 C.3       10 UNK         0.0316 
      9 C9         16.7178  -29.4543  -43.0925 C.ar      10 UNK        -0.0863 
     10 C10        17.3022  -30.6449  -43.5397 C.ar      10 UNK        -0.1009 
     11 C11        18.4811  -31.1218  -42.9565 C.ar      10 UNK        -0.0712 
     12 C12        19.0633  -30.3982  -41.9116 C.ar      10 UNK        -0.0894 
     13 C13        18.5038  -29.1991  -41.4667 C.ar      10 UNK        -0.0745 
     14 C14        17.3247  -28.7353  -42.0554 C.ar      10 UNK        -0.0972 
     15 C15        19.1660  -28.4328  -40.3308 C.3       10 UNK         0.0209 
     16 S16        20.8054  -27.7914  -40.8017 S.3       10 UNK        -0.2568 
     17 C17        20.4061  -26.2115  -41.6293 C.3       10 UNK        -0.0983 
     18 CA         21.1024  -26.0430  -43.0073 C.3       3 UNK         0.0876 
     19 N          20.4578  -24.9777  -43.7866 N.am      3 UNK        -0.4424 
     20 C          20.5023  -24.8289  -45.1169 C.2       2 UNK         0.4918 
     21 O          21.1477  -25.5649  -45.8661 O.2       2 UNK        -0.4875 
     22 CA         19.6156  -23.7219  -45.7129 C.3       2 UNK         0.0481 
     23 CB         20.1881  -23.1632  -47.0278 C.3       2 UNK        -0.1831 
     24 N          18.2929  -24.2917  -45.9628 N.am      2 UNK        -0.4498 
     25 C          17.3723  -24.4856  -45.0098 C.2       1 UNK         0.5027 
     26 O          17.4409  -23.9847  -43.8832 O.2       1 UNK        -0.4969 
     27 C          22.6402  -25.8598  -42.9170 C.2       3 UNK         0.5005 
     28 O          23.2098  -25.8309  -41.8241 O.2       3 UNK        -0.5279 
     29 N          23.3033  -25.7689  -44.0783 N.am      4 UNK        -0.4463 
     30 CA         24.7615  -25.6930  -44.2286 C.3       4 UNK         0.0283 
     31 CB         25.1011  -25.3696  -45.6921 C.3       4 UNK        -0.1875 
     32 C          25.4858  -26.9748  -43.7754 C.2       4 UNK         0.4949 
     33 O          26.6684  -26.9182  -43.4398 O.2       4 UNK        -0.5039 
     34 N          24.7549  -28.0980  -43.7486 N.am      5 UNK        -0.4663 
     35 CA         25.1955  -29.3886  -43.2194 C.3       5 UNK         0.0242 
     36 CB         24.2221  -30.4763  -43.7047 C.3       5 UNK        -0.1982 
     37 C          25.3045  -29.4268  -41.6836 C.2       5 UNK         0.5017 
     38 O          25.8813  -30.3816  -41.1660 O.2       5 UNK        -0.5012 
     39 N          24.7321  -28.4344  -40.9794 N.am      6 UNK        -0.4439 
     40 CA         24.6967  -28.3072  -39.5150 C.3       6 UNK         0.0297 
     41 CB         26.0991  -27.9681  -38.9675 C.3       6 UNK        -0.2006 
     42 C          24.0614  -29.5333  -38.8264 C.2       6 UNK         0.4892 
     43 O          24.6123  -30.0610  -37.8590 O.2       6 UNK        -0.5089 
     44 N          22.9201  -29.9700  -39.3775 N.am      7 UNK        -0.4243 
     45 CA         22.0955  -31.1149  -38.9740 C.3       7 UNK         0.0196 
     46 CB         21.5913  -30.9614  -37.5235 C.3       7 UNK        -0.2007 
     47 C          22.7200  -32.5009  -39.2331 C.2       7 UNK         0.5020 
     48 O          22.1228  -33.4983  -38.8264 O.2       7 UNK        -0.5147 
     49 N          23.8616  -32.5788  -39.9374 N.am      8 UNK        -0.4734 
     50 CA         24.5362  -33.8433  -40.2748 C.3       8 UNK         0.0238 
     51 CB         25.9141  -33.5541  -40.8895 C.3       8 UNK        -0.1912 
     52 C          23.7203  -34.7653  -41.2010 C.2       8 UNK         0.5038 
     53 O          23.9001  -35.9826  -41.1474 O.2       8 UNK        -0.5046 
     54 N          22.8309  -34.1752  -42.0091 N.am      9 UNK        -0.4200 
     55 CA         21.8201  -34.8756  -42.8152 C.3       9 UNK         0.0839 
     56 C          20.6150  -35.4387  -42.0033 C.2       9 UNK         0.5513 
     57 N          20.4841  -35.1718  -40.7085 N.am      9 UNK        -0.7519 
     58 O          19.7815  -36.1459  -42.5632 O.2       9 UNK        -0.4960 
     59 C59        21.3665  -34.0312  -44.0399 C.3       10 UNK        -0.0876 
     60 S60        20.9120  -32.3068  -43.6450 S.3       10 UNK        -0.2414 
     61 C61        19.1045  -32.4313  -43.4300 C.3       10 UNK         0.0169 
     62 H62        13.0903  -23.1584  -43.2497 H         1 UNK         0.0903 
     63 H63        12.1003  -24.1895  -44.2865 H         1 UNK         0.0903 
     64 H64        13.0633  -24.9040  -42.9920 H         1 UNK         0.0903 
     65 H65        14.9401  -25.8761  -43.7363 H         1 UNK         0.3096 
     66 H66        15.9944  -25.4026  -46.3882 H         1 UNK         0.1121 
     67 H67        17.6903  -27.1026  -45.7821 H         1 UNK         0.0849 
     68 H68        17.2606  -27.0069  -44.1058 H         1 UNK         0.0849 
     69 H69        14.9613  -28.1850  -43.0920 H         1 UNK         0.0865 
     70 H70        14.7041  -29.7711  -43.7644 H         1 UNK         0.0865 
     71 H71        16.8342  -31.1997  -44.3417 H         1 UNK         0.1346 
     72 H72        19.9679  -30.7639  -41.4506 H         1 UNK         0.1412 
     73 H73        16.8788  -27.8144  -41.7046 H         1 UNK         0.1426 
     74 H74        19.2892  -29.1056  -39.4808 H         1 UNK         0.0716 
     75 H75        18.5351  -27.6146  -39.9800 H         1 UNK         0.0716 
     76 H76        20.6599  -25.3879  -40.9594 H         1 UNK         0.0695 
     77 H77        19.3240  -26.1648  -41.7627 H         1 UNK         0.0695 
     78 H78        20.9415  -26.9739  -43.5565 H         1 UNK         0.0983 
     79 H79        19.8806  -24.3357  -43.2604 H         1 UNK         0.3095 
     80 H80        19.5429  -22.8989  -44.9985 H         1 UNK         0.0454 
     81 H81        21.1879  -22.7552  -46.8736 H         1 UNK         0.0851 
     82 H82        19.5666  -22.3572  -47.4180 H         1 UNK         0.0851 
     83 H83        20.2652  -23.9290  -47.8007 H         1 UNK         0.0851 
     84 H84        18.1763  -24.7591  -46.8512 H         1 UNK         0.2976 
     85 H85        22.7470  -25.7754  -44.9309 H         1 UNK         0.3116 
     86 H86        25.1214  -24.8743  -43.6020 H         1 UNK         0.0646 
     87 H87        24.7486  -26.1477  -46.3704 H         1 UNK         0.0847 
     88 H88        24.6553  -24.4250  -46.0043 H         1 UNK         0.0847 
     89 H89        26.1793  -25.2791  -45.8320 H         1 UNK         0.0847 
     90 H90        23.7999  -28.0442  -44.0709 H         1 UNK         0.3040 
     91 H91        26.1885  -29.6050  -43.6199 H         1 UNK         0.1015 
     92 H92        24.1767  -30.5139  -44.7933 H         1 UNK         0.0786 
     93 H93        23.2113  -30.3058  -43.3322 H         1 UNK         0.0786 
     94 H94        24.5322  -31.4649  -43.3635 H         1 UNK         0.0786 
     95 H95        24.2740  -27.6852  -41.4878 H         1 UNK         0.3172 
     96 H96        24.0432  -27.4607  -39.2979 H         1 UNK         0.0595 
     97 H97        26.8020  -28.7883  -39.1178 H         1 UNK         0.0839 
     98 H98        26.0618  -27.7645  -37.8966 H         1 UNK         0.0839 
     99 H99        26.5096  -27.0819  -39.4513 H         1 UNK         0.0839 
    100 H100       22.5613  -29.4399  -40.1616 H         1 UNK         0.2998 
    101 H101       21.2161  -31.0763  -39.6149 H         1 UNK         0.0822 
    102 H102       20.8434  -31.7192  -37.2865 H         1 UNK         0.0787 
    103 H103       21.1240  -29.9891  -37.3670 H         1 UNK         0.0787 
    104 H104       22.3983  -31.0684  -36.7983 H         1 UNK         0.0787 
    105 H105       24.3265  -31.7242  -40.2206 H         1 UNK         0.3055 
    106 H106       24.6909  -34.3889  -39.3412 H         1 UNK         0.1106 
    107 H107       26.5308  -32.9546  -40.2196 H         1 UNK         0.0828 
    108 H108       26.4565  -34.4800  -41.0852 H         1 UNK         0.0828 
    109 H109       25.8304  -33.0208  -41.8369 H         1 UNK         0.0828 
    110 H110       22.7454  -33.1704  -41.9807 H         1 UNK         0.2931 
    111 H111       22.3085  -35.7614  -43.2261 H         1 UNK         0.0412 
    112 H112       21.1614  -34.6057  -40.2101 H         1 UNK         0.3472 
    113 H113       19.6974  -35.5558  -40.2098 H         1 UNK         0.3472 
    114 H114       20.5513  -34.5160  -44.5807 H         1 UNK         0.0970 
    115 H115       22.1897  -33.9836  -44.7542 H         1 UNK         0.0970 
    116 H116       18.8759  -33.2047  -42.6968 H         1 UNK         0.0612 
    117 H117       18.6611  -32.7493  -44.3748 H         1 UNK         0.0612 
@<TRIPOS>BOND
     1    1    2 1    
     2    1   62 1    
     3    1   63 1    
     4    1   64 1    
     5    2    3 2    
     6    2    4 am   BACKBONE|DICT|INTERRES
     7    4    5 1    
     8    4   65 1    
     9    5    6 1    
    10    5   25 1    
    11    5   66 1    
    12    6    7 1    
    13    6   67 1    
    14    6   68 1    
    15    7    8 1    
    16    8    9 1    
    17    8   69 1    
    18    8   70 1    
    19    9   10 ar   
    20    9   14 ar   
    21   10   11 ar   
    22   10   71 1    
    23   11   12 ar   
    24   11   61 1    
    25   12   13 ar   
    26   12   72 1    
    27   13   14 ar   
    28   13   15 1    
    29   14   73 1    
    30   15   16 1    
    31   15   74 1    
    32   15   75 1    
    33   16   17 1    
    34   17   18 1    
    35   17   76 1    
    36   17   77 1    
    37   18   19 1    
    38   18   27 1    
    39   18   78 1    
    40   19   20 am   BACKBONE|DICT|INTERRES
    41   19   79 1    
    42   20   21 2    
    43   20   22 1    
    44   22   23 1    
    45   22   24 1    
    46   22   80 1    
    47   23   81 1    
    48   23   82 1    
    49   23   83 1    
    50   24   25 am   BACKBONE|DICT|INTERRES
    51   24   84 1    
    52   25   26 2    
    53   27   28 2    
    54   27   29 am   BACKBONE|DICT|INTERRES
    55   29   30 1    
    56   29   85 1    
    57   30   31 1    
    58   30   32 1    
    59   30   86 1    
    60   31   87 1    
    61   31   88 1    
    62   31   89 1    
    63   32   33 2    
    64   32   34 am   BACKBONE|DICT|INTERRES
    65   34   35 1    
    66   34   90 1    
    67   35   36 1    
    68   35   37 1    
    69   35   91 1    
    70   36   92 1    
    71   36   93 1    
    72   36   94 1    
    73   37   38 2    
    74   37   39 am   BACKBONE|DICT|INTERRES
    75   39   40 1    
    76   39   95 1    
    77   40   41 1    
    78   40   42 1    
    79   40   96 1    
    80   41   97 1    
    81   41   98 1    
    82   41   99 1    
    83   42   43 2    
    84   42   44 am   BACKBONE|DICT|INTERRES
    85   44   45 1    
    86   44  100 1    
    87   45   46 1    
    88   45   47 1    
    89   45  101 1    
    90   46  102 1    
    91   46  103 1    
    92   46  104 1    
    93   47   48 2    
    94   47   49 am   BACKBONE|DICT|INTERRES
    95   49   50 1    
    96   49  105 1    
    97   50   51 1    
    98   50   52 1    
    99   50  106 1    
   100   51  107 1    
   101   51  108 1    
   102   51  109 1    
   103   52   53 2    
   104   52   54 am   BACKBONE|DICT|INTERRES
   105   54   55 1    
   106   54  110 1    
   107   55   56 1    
   108   55   59 1    
   109   55  111 1    
   110   56   57 am   BACKBONE|DICT|INTERRES
   111   56   58 2    
   112   57  112 1    
   113   57  113 1    
   114   59   60 1    
   115   59  114 1    
   116   59  115 1    
   117   60   61 1    
   118   61  116 1    
   119   61  117 1    
@<TRIPOS>SUBSTRUCTURE
     1 UNK         1 GROUP             0       ****    0 ROOT    
