@<TRIPOS>MOLECULE
3R8
117   119    1
SMALL
USER_CHARGES


@<TRIPOS>ATOM
      1 CA         17.0118  -23.6946  -39.6878 C.3       0 UNK        -0.2013 
      2 C          17.3699  -23.9201  -41.1494 C.2       0 UNK         0.4866 
      3 O          17.3730  -22.9704  -41.9337 O.2       0 UNK        -0.5176 
      4 N          17.6594  -25.1727  -41.5212 N.am      1 UNK        -0.4884 
      5 CA         18.0765  -25.5782  -42.8695 C.3       1 UNK         0.0853 
      6 C6         17.9426  -27.1101  -43.0751 C.3       10 UNK        -0.0849 
      7 S7         16.2503  -27.7189  -42.7598 S.3       10 UNK        -0.2776 
      8 C8         15.8852  -28.6428  -44.2873 C.3       10 UNK         0.0316 
      9 C9         16.7719  -29.8725  -44.4316 C.ar      10 UNK        -0.0863 
     10 C10        16.5957  -30.9676  -43.5812 C.ar      10 UNK        -0.1009 
     11 C11        17.4092  -32.0981  -43.6994 C.ar      10 UNK        -0.0712 
     12 C12        18.3958  -32.1365  -44.6883 C.ar      10 UNK        -0.0894 
     13 C13        18.5879  -31.0436  -45.5391 C.ar      10 UNK        -0.0745 
     14 C14        17.7683  -29.9175  -45.4110 C.ar      10 UNK        -0.0972 
     15 C15        19.6930  -31.0673  -46.5862 C.3       10 UNK         0.0209 
     16 S16        21.3518  -31.2103  -45.8441 S.3       10 UNK        -0.2568 
     17 C17        21.4418  -29.7266  -44.7837 C.3       10 UNK        -0.0983 
     18 CA         22.2347  -28.5668  -45.4399 C.3       3 UNK         0.0876 
     19 N          21.7155  -27.2759  -44.9859 N.am      3 UNK        -0.4424 
     20 C          21.7827  -26.1330  -45.6800 C.2       2 UNK         0.4918 
     21 O          22.2252  -26.0541  -46.8274 O.2       2 UNK        -0.4875 
     22 CA         21.2260  -24.8834  -44.9776 C.3       2 UNK         0.0481 
     23 CB         21.1674  -23.6513  -45.9003 C.3       2 UNK        -0.1831 
     24 N          19.8837  -25.1693  -44.4684 N.am      2 UNK        -0.4498 
     25 C          19.5169  -25.1134  -43.1825 C.2       1 UNK         0.5027 
     26 O          20.2704  -24.7544  -42.2740 O.2       1 UNK        -0.4969 
     27 C          23.7552  -28.6738  -45.1798 C.2       3 UNK         0.5005 
     28 O          24.3771  -27.7247  -44.6933 O.2       3 UNK        -0.5279 
     29 N          24.3266  -29.8531  -45.4637 N.am      4 UNK        -0.4463 
     30 CA         25.7401  -30.1946  -45.2512 C.3       4 UNK         0.0283 
     31 CB         25.9988  -31.6213  -45.7607 C.3       4 UNK        -0.1875 
     32 C          26.2192  -30.0511  -43.7926 C.2       4 UNK         0.4949 
     33 O          27.3932  -29.7525  -43.5740 O.2       4 UNK        -0.5039 
     34 N          25.3017  -30.2319  -42.8337 N.am      5 UNK        -0.4663 
     35 CA         25.5069  -29.9730  -41.4065 C.3       5 UNK         0.0242 
     36 CB         25.3515  -31.2890  -40.6235 C.3       5 UNK        -0.1982 
     37 C          24.5433  -28.8787  -40.9106 C.2       5 UNK         0.5017 
     38 O          24.0987  -28.9321  -39.7627 O.2       5 UNK        -0.5012 
     39 N          24.2155  -27.9130  -41.7842 N.am      6 UNK        -0.4439 
     40 CA         23.2733  -26.8123  -41.5638 C.3       6 UNK         0.0297 
     41 CB         23.8443  -25.7924  -40.5520 C.3       6 UNK        -0.2006 
     42 C          21.8728  -27.3478  -41.2144 C.2       6 UNK         0.4892 
     43 O          21.2740  -28.0280  -42.0488 O.2       6 UNK        -0.5089 
     44 N          21.3833  -27.0442  -40.0065 N.am      7 UNK        -0.4243 
     45 CA         20.0833  -27.4781  -39.4961 C.3       7 UNK         0.0196 
     46 CB         19.6406  -26.5103  -38.3861 C.3       7 UNK        -0.2007 
     47 C          20.0664  -28.9329  -38.9915 C.2       7 UNK         0.5020 
     48 O          18.9804  -29.4606  -38.7537 O.2       7 UNK        -0.5147 
     49 N          21.2403  -29.5584  -38.8147 N.am      8 UNK        -0.4734 
     50 CA         21.3719  -30.9173  -38.2740 C.3       8 UNK         0.0238 
     51 CB         22.7188  -31.0418  -37.5407 C.3       8 UNK        -0.1912 
     52 C          21.2121  -32.0311  -39.3272 C.2       8 UNK         0.5038 
     53 O          21.2610  -33.2009  -38.9452 O.2       8 UNK        -0.5046 
     54 N          21.0217  -31.6573  -40.6021 N.am      9 UNK        -0.4200 
     55 CA         20.9098  -32.5212  -41.7912 C.3       9 UNK         0.0839 
     56 C          22.2839  -33.1230  -42.1933 C.2       9 UNK         0.5513 
     57 N          22.7552  -32.8566  -43.4025 N.am      9 UNK        -0.7519 
     58 O          22.9112  -33.8643  -41.4420 O.2       9 UNK        -0.4960 
     59 C59        19.8310  -33.6388  -41.6844 C.3       10 UNK        -0.0876 
     60 S60        18.1699  -33.0387  -41.2144 S.3       10 UNK        -0.2414 
     61 C61        17.2196  -33.2693  -42.7498 C.3       10 UNK         0.0169 
     62 H62        17.7446  -23.0377  -39.2202 H         1 UNK         0.0903 
     63 H63        16.0321  -23.2240  -39.6092 H         1 UNK         0.0903 
     64 H64        16.9847  -24.6277  -39.1252 H         1 UNK         0.0903 
     65 H65        17.6251  -25.9145  -40.8383 H         1 UNK         0.3096 
     66 H66        17.4150  -25.0789  -43.5816 H         1 UNK         0.1121 
     67 H67        18.2304  -27.3805  -44.0917 H         1 UNK         0.0849 
     68 H68        18.6244  -27.6590  -42.4255 H         1 UNK         0.0849 
     69 H69        15.9879  -27.9795  -45.1476 H         1 UNK         0.0865 
     70 H70        14.8403  -28.9560  -44.2690 H         1 UNK         0.0865 
     71 H71        15.8339  -30.9318  -42.8142 H         1 UNK         0.1346 
     72 H72        19.0311  -33.0062  -44.7837 H         1 UNK         0.1412 
     73 H73        17.9140  -29.0709  -46.0679 H         1 UNK         0.1426 
     74 H74        19.6625  -30.1713  -47.2083 H         1 UNK         0.0716 
     75 H75        19.5312  -31.9129  -47.2560 H         1 UNK         0.0716 
     76 H76        21.8677  -30.0037  -43.8176 H         1 UNK         0.0695 
     77 H77        20.4271  -29.4033  -44.5515 H         1 UNK         0.0695 
     78 H78        22.0932  -28.6164  -46.5221 H         1 UNK         0.0983 
     79 H79        21.3766  -27.2587  -44.0312 H         1 UNK         0.3095 
     80 H80        21.9133  -24.6565  -44.1602 H         1 UNK         0.0454 
     81 H81        20.7902  -22.7778  -45.3686 H         1 UNK         0.0851 
     82 H82        20.5234  -23.8220  -46.7637 H         1 UNK         0.0851 
     83 H83        22.1589  -23.3962  -46.2764 H         1 UNK         0.0851 
     84 H84        19.2167  -25.4939  -45.1553 H         1 UNK         0.2976 
     85 H85        23.7377  -30.5807  -45.8484 H         1 UNK         0.3116 
     86 H86        26.3333  -29.5042  -45.8545 H         1 UNK         0.0646 
     87 H87        27.0483  -31.8943  -45.6403 H         1 UNK         0.0847 
     88 H88        25.7628  -31.7150  -46.8209 H         1 UNK         0.0847 
     89 H89        25.4071  -32.3587  -45.2173 H         1 UNK         0.0847 
     90 H90        24.3649  -30.4875  -43.1121 H         1 UNK         0.3040 
     91 H91        26.5155  -29.5936  -41.2293 H         1 UNK         0.1015 
     92 H92        25.9842  -32.0756  -41.0347 H         1 UNK         0.0786 
     93 H93        24.3219  -31.6451  -40.6356 H         1 UNK         0.0786 
     94 H94        25.6385  -31.1572  -39.5797 H         1 UNK         0.0786 
     95 H95        24.5847  -27.9705  -42.7295 H         1 UNK         0.3172 
     96 H96        23.1704  -26.2979  -42.5200 H         1 UNK         0.0595 
     97 H97        24.0106  -26.2279  -39.5661 H         1 UNK         0.0839 
     98 H98        23.1747  -24.9390  -40.4341 H         1 UNK         0.0839 
     99 H99        24.7996  -25.3977  -40.8980 H         1 UNK         0.0839 
    100 H100       21.9550  -26.4920  -39.3840 H         1 UNK         0.2998 
    101 H101       19.3557  -27.4133  -40.3046 H         1 UNK         0.0822 
    102 H102       19.5886  -25.4847  -38.7525 H         1 UNK         0.0787 
    103 H103       18.6494  -26.7701  -38.0116 H         1 UNK         0.0787 
    104 H104       20.3250  -26.5303  -37.5370 H         1 UNK         0.0787 
    105 H105       22.1032  -29.0828  -39.0600 H         1 UNK         0.3055 
    106 H106       20.5827  -31.0762  -37.5353 H         1 UNK         0.1106 
    107 H107       22.7963  -32.0004  -37.0262 H         1 UNK         0.0828 
    108 H108       23.5613  -30.9774  -38.2276 H         1 UNK         0.0828 
    109 H109       22.8376  -30.2622  -36.7882 H         1 UNK         0.0828 
    110 H110       20.9978  -30.6654  -40.7887 H         1 UNK         0.2931 
    111 H111       20.5922  -31.8508  -42.5913 H         1 UNK         0.0412 
    112 H112       22.2150  -32.3275  -44.0726 H         1 UNK         0.3472 
    113 H113       23.6249  -33.2822  -43.6800 H         1 UNK         0.3472 
    114 H114       19.7628  -34.1758  -42.6316 H         1 UNK         0.0970 
    115 H115       20.1286  -34.3907  -40.9517 H         1 UNK         0.0970 
    116 H116       17.4942  -34.2095  -43.2301 H         1 UNK         0.0612 
    117 H117       16.1634  -33.3614  -42.4922 H         1 UNK         0.0612 
@<TRIPOS>BOND
     1    1    2 1    
     2    1   62 1    
     3    1   63 1    
     4    1   64 1    
     5    2    3 2    
     6    2    4 am   BACKBONE|DICT|INTERRES
     7    4    5 1    
     8    4   65 1    
     9    5    6 1    
    10    5   25 1    
    11    5   66 1    
    12    6    7 1    
    13    6   67 1    
    14    6   68 1    
    15    7    8 1    
    16    8    9 1    
    17    8   69 1    
    18    8   70 1    
    19    9   10 ar   
    20    9   14 ar   
    21   10   11 ar   
    22   10   71 1    
    23   11   12 ar   
    24   11   61 1    
    25   12   13 ar   
    26   12   72 1    
    27   13   14 ar   
    28   13   15 1    
    29   14   73 1    
    30   15   16 1    
    31   15   74 1    
    32   15   75 1    
    33   16   17 1    
    34   17   18 1    
    35   17   76 1    
    36   17   77 1    
    37   18   19 1    
    38   18   27 1    
    39   18   78 1    
    40   19   20 am   BACKBONE|DICT|INTERRES
    41   19   79 1    
    42   20   21 2    
    43   20   22 1    
    44   22   23 1    
    45   22   24 1    
    46   22   80 1    
    47   23   81 1    
    48   23   82 1    
    49   23   83 1    
    50   24   25 am   BACKBONE|DICT|INTERRES
    51   24   84 1    
    52   25   26 2    
    53   27   28 2    
    54   27   29 am   BACKBONE|DICT|INTERRES
    55   29   30 1    
    56   29   85 1    
    57   30   31 1    
    58   30   32 1    
    59   30   86 1    
    60   31   87 1    
    61   31   88 1    
    62   31   89 1    
    63   32   33 2    
    64   32   34 am   BACKBONE|DICT|INTERRES
    65   34   35 1    
    66   34   90 1    
    67   35   36 1    
    68   35   37 1    
    69   35   91 1    
    70   36   92 1    
    71   36   93 1    
    72   36   94 1    
    73   37   38 2    
    74   37   39 am   BACKBONE|DICT|INTERRES
    75   39   40 1    
    76   39   95 1    
    77   40   41 1    
    78   40   42 1    
    79   40   96 1    
    80   41   97 1    
    81   41   98 1    
    82   41   99 1    
    83   42   43 2    
    84   42   44 am   BACKBONE|DICT|INTERRES
    85   44   45 1    
    86   44  100 1    
    87   45   46 1    
    88   45   47 1    
    89   45  101 1    
    90   46  102 1    
    91   46  103 1    
    92   46  104 1    
    93   47   48 2    
    94   47   49 am   BACKBONE|DICT|INTERRES
    95   49   50 1    
    96   49  105 1    
    97   50   51 1    
    98   50   52 1    
    99   50  106 1    
   100   51  107 1    
   101   51  108 1    
   102   51  109 1    
   103   52   53 2    
   104   52   54 am   BACKBONE|DICT|INTERRES
   105   54   55 1    
   106   54  110 1    
   107   55   56 1    
   108   55   59 1    
   109   55  111 1    
   110   56   57 am   BACKBONE|DICT|INTERRES
   111   56   58 2    
   112   57  112 1    
   113   57  113 1    
   114   59   60 1    
   115   59  114 1    
   116   59  115 1    
   117   60   61 1    
   118   61  116 1    
   119   61  117 1    
@<TRIPOS>SUBSTRUCTURE
     1 UNK         1 GROUP             0       ****    0 ROOT    
