@<TRIPOS>MOLECULE
3R8
117   119    1
SMALL
USER_CHARGES


@<TRIPOS>ATOM
      1 CA         12.8101  -25.3485  -41.1951 C.3       0 UNK        -0.2013 
      2 C          14.1991  -25.3908  -41.8148 C.2       0 UNK         0.4866 
      3 O          14.8846  -24.3682  -41.8512 O.2       0 UNK        -0.5176 
      4 N          14.6153  -26.5624  -42.3109 N.am      1 UNK        -0.4884 
      5 CA         15.9387  -26.8002  -42.8968 C.3       1 UNK         0.0853 
      6 C6         15.9901  -28.1407  -43.6662 C.3       10 UNK        -0.0849 
      7 S7         14.9749  -28.0927  -45.1823 S.3       10 UNK        -0.2776 
      8 C8         15.4340  -29.6610  -45.9989 C.3       10 UNK         0.0316 
      9 C9         16.9422  -29.8419  -46.1248 C.ar      10 UNK        -0.0863 
     10 C10        17.5671  -30.9465  -45.5384 C.ar      10 UNK        -0.1009 
     11 C11        18.9584  -31.0945  -45.5934 C.ar      10 UNK        -0.0712 
     12 C12        19.7184  -30.1350  -46.2684 C.ar      10 UNK        -0.0894 
     13 C13        19.1063  -29.0243  -46.8573 C.ar      10 UNK        -0.0745 
     14 C14        17.7173  -28.8901  -46.7935 C.ar      10 UNK        -0.0972 
     15 C15        19.9393  -27.9583  -47.5524 C.3       10 UNK         0.0209 
     16 S16        20.3115  -26.5695  -46.4342 S.3       10 UNK        -0.2568 
     17 C17        21.6774  -27.2701  -45.4530 C.3       10 UNK        -0.0983 
     18 CA         21.9293  -26.5005  -44.1351 C.3       3 UNK         0.0876 
     19 N          20.7639  -26.5454  -43.2437 N.am      3 UNK        -0.4424 
     20 C          20.6085  -25.7765  -42.1578 C.2       2 UNK         0.4918 
     21 O          21.3851  -24.8718  -41.8477 O.2       2 UNK        -0.4875 
     22 CA         19.3648  -26.0537  -41.2972 C.3       2 UNK         0.0481 
     23 CB         19.1503  -25.0017  -40.1884 C.3       2 UNK        -0.1831 
     24 N          18.1814  -26.1569  -42.1510 N.am      2 UNK        -0.4498 
     25 C          17.0380  -26.7676  -41.8161 C.2       1 UNK         0.5027 
     26 O          16.8416  -27.3195  -40.7304 O.2       1 UNK        -0.4969 
     27 C          23.1732  -27.0805  -43.4327 C.2       3 UNK         0.5005 
     28 O          23.0333  -27.9508  -42.5733 O.2       3 UNK        -0.5279 
     29 N          24.3663  -26.6350  -43.8548 N.am      4 UNK        -0.4463 
     30 CA         25.6670  -27.0647  -43.3208 C.3       4 UNK         0.0283 
     31 CB         26.7777  -26.1986  -43.9365 C.3       4 UNK        -0.1875 
     32 C          25.9855  -28.5606  -43.5153 C.2       4 UNK         0.4949 
     33 O          26.8347  -29.0908  -42.7964 O.2       4 UNK        -0.5039 
     34 N          25.3003  -29.2177  -44.4629 N.am      5 UNK        -0.4663 
     35 CA         25.2969  -30.6689  -44.6520 C.3       5 UNK         0.0242 
     36 CB         24.4504  -31.0147  -45.8892 C.3       5 UNK        -0.1982 
     37 C          24.7478  -31.3638  -43.3945 C.2       5 UNK         0.5017 
     38 O          23.5752  -31.1774  -43.0681 O.2       5 UNK        -0.5012 
     39 N          25.6220  -32.0970  -42.6904 N.am      6 UNK        -0.4439 
     40 CA         25.3942  -32.6929  -41.3675 C.3       6 UNK         0.0297 
     41 CB         24.3636  -33.8398  -41.4416 C.3       6 UNK        -0.2006 
     42 C          25.0582  -31.6368  -40.2924 C.2       6 UNK         0.4892 
     43 O          24.1546  -31.8496  -39.4805 O.2       6 UNK        -0.5089 
     44 N          25.7847  -30.5081  -40.3302 N.am      7 UNK        -0.4243 
     45 CA         25.7511  -29.3399  -39.4366 C.3       7 UNK         0.0196 
     46 CB         26.0831  -29.7303  -37.9829 C.3       7 UNK        -0.2007 
     47 C          24.4598  -28.5061  -39.5064 C.2       7 UNK         0.5020 
     48 O          24.5406  -27.2822  -39.6114 O.2       7 UNK        -0.5147 
     49 N          23.3070  -29.1737  -39.4362 N.am      8 UNK        -0.4734 
     50 CA         21.9676  -28.5999  -39.5464 C.3       8 UNK         0.0238 
     51 CB         21.5467  -27.9627  -38.2057 C.3       8 UNK        -0.1912 
     52 C          20.9821  -29.6727  -40.0399 C.2       8 UNK         0.5038 
     53 O          19.8552  -29.7292  -39.5457 O.2       8 UNK        -0.5046 
     54 N          21.4272  -30.5323  -40.9699 N.am      9 UNK        -0.4200 
     55 CA         20.7187  -31.7457  -41.4105 C.3       9 UNK         0.0839 
     56 C          20.4985  -32.7764  -40.2574 C.2       9 UNK         0.5513 
     57 N          21.4826  -32.9871  -39.3904 N.am      9 UNK        -0.7519 
     58 O          19.4410  -33.3886  -40.1305 O.2       9 UNK        -0.4960 
     59 C59        19.4499  -31.4168  -42.2494 C.3       10 UNK        -0.0876 
     60 S60        18.9559  -32.7937  -43.3455 S.3       10 UNK        -0.2414 
     61 C61        19.6590  -32.2905  -44.9522 C.3       10 UNK         0.0169 
     62 H62        12.1882  -24.6217  -41.7171 H         1 UNK         0.0903 
     63 H63        12.3121  -26.3169  -41.2429 H         1 UNK         0.0903 
     64 H64        12.8755  -25.0523  -40.1485 H         1 UNK         0.0903 
     65 H65        14.0154  -27.3724  -42.2473 H         1 UNK         0.3096 
     66 H66        16.1370  -25.9899  -43.6028 H         1 UNK         0.1121 
     67 H67        15.6618  -28.9705  -43.0371 H         1 UNK         0.0849 
     68 H68        17.0203  -28.3630  -43.9502 H         1 UNK         0.0849 
     69 H69        14.9898  -30.4866  -45.4406 H         1 UNK         0.0865 
     70 H70        14.9869  -29.6886  -46.9935 H         1 UNK         0.0865 
     71 H71        16.9696  -31.6862  -45.0238 H         1 UNK         0.1346 
     72 H72        20.7920  -30.2487  -46.3272 H         1 UNK         0.1412 
     73 H73        17.2401  -28.0273  -47.2385 H         1 UNK         0.1426 
     74 H74        19.3960  -27.5763  -48.4181 H         1 UNK         0.0716 
     75 H75        20.8676  -28.3819  -47.9390 H         1 UNK         0.0716 
     76 H76        22.5670  -27.2612  -46.0860 H         1 UNK         0.0695 
     77 H77        21.4695  -28.3169  -45.2320 H         1 UNK         0.0695 
     78 H78        22.1308  -25.4534  -44.3729 H         1 UNK         0.0983 
     79 H79        20.0988  -27.2815  -43.4250 H         1 UNK         0.3095 
     80 H80        19.5311  -27.0211  -40.8199 H         1 UNK         0.0454 
     81 H81        20.0265  -24.9282  -39.5429 H         1 UNK         0.0851 
     82 H82        18.3056  -25.2578  -39.5493 H         1 UNK         0.0851 
     83 H83        18.9659  -24.0115  -40.6062 H         1 UNK         0.0851 
     84 H84        18.2639  -25.7262  -43.0629 H         1 UNK         0.2976 
     85 H85        24.3927  -25.9315  -44.5798 H         1 UNK         0.3116 
     86 H86        25.6515  -26.8830  -42.2440 H         1 UNK         0.0646 
     87 H87        26.8286  -26.3160  -45.0197 H         1 UNK         0.0847 
     88 H88        26.6267  -25.1414  -43.7176 H         1 UNK         0.0847 
     89 H89        27.7543  -26.4722  -43.5341 H         1 UNK         0.0847 
     90 H90        24.6088  -28.6972  -44.9799 H         1 UNK         0.3040 
     91 H91        26.3238  -30.9942  -44.8313 H         1 UNK         0.1015 
     92 H92        24.4308  -32.0922  -46.0579 H         1 UNK         0.0786 
     93 H93        24.8554  -30.5531  -46.7900 H         1 UNK         0.0786 
     94 H94        23.4165  -30.6844  -45.7780 H         1 UNK         0.0786 
     95 H95        26.5682  -32.1685  -43.0401 H         1 UNK         0.3172 
     96 H96        26.3453  -33.1324  -41.0634 H         1 UNK         0.0595 
     97 H97        23.3746  -33.4831  -41.7246 H         1 UNK         0.0839 
     98 H98        24.2634  -34.3397  -40.4774 H         1 UNK         0.0839 
     99 H99        24.6647  -34.5957  -42.1665 H         1 UNK         0.0839 
    100 H100       26.4159  -30.3991  -41.1166 H         1 UNK         0.2998 
    101 H101       26.5537  -28.6894  -39.7888 H         1 UNK         0.0822 
    102 H102       26.1456  -28.8452  -37.3485 H         1 UNK         0.0787 
    103 H103       27.0430  -30.2428  -37.9198 H         1 UNK         0.0787 
    104 H104       25.3248  -30.3839  -37.5505 H         1 UNK         0.0787 
    105 H105       23.3655  -30.1869  -39.3526 H         1 UNK         0.3055 
    106 H106       21.9816  -27.8128  -40.3005 H         1 UNK         0.1106 
    107 H107       22.2413  -27.1805  -37.8996 H         1 UNK         0.0828 
    108 H108       20.5610  -27.5019  -38.2821 H         1 UNK         0.0828 
    109 H109       21.5023  -28.7042  -37.4073 H         1 UNK         0.0828 
    110 H110       22.3455  -30.3957  -41.3777 H         1 UNK         0.2931 
    111 H111       21.4139  -32.2383  -42.0885 H         1 UNK         0.0412 
    112 H112       22.3783  -32.5164  -39.4790 H         1 UNK         0.3472 
    113 H113       21.3401  -33.6467  -38.6426 H         1 UNK         0.3472 
    114 H114       18.6120  -31.1619  -41.5984 H         1 UNK         0.0970 
    115 H115       19.6258  -30.5329  -42.8643 H         1 UNK         0.0970 
    116 H116       19.5929  -33.1354  -45.6385 H         1 UNK         0.0612 
    117 H117       20.7223  -32.0862  -44.8125 H         1 UNK         0.0612 
@<TRIPOS>BOND
     1    1    2 1    
     2    1   62 1    
     3    1   63 1    
     4    1   64 1    
     5    2    3 2    
     6    2    4 am   BACKBONE|DICT|INTERRES
     7    4    5 1    
     8    4   65 1    
     9    5    6 1    
    10    5   25 1    
    11    5   66 1    
    12    6    7 1    
    13    6   67 1    
    14    6   68 1    
    15    7    8 1    
    16    8    9 1    
    17    8   69 1    
    18    8   70 1    
    19    9   10 ar   
    20    9   14 ar   
    21   10   11 ar   
    22   10   71 1    
    23   11   12 ar   
    24   11   61 1    
    25   12   13 ar   
    26   12   72 1    
    27   13   14 ar   
    28   13   15 1    
    29   14   73 1    
    30   15   16 1    
    31   15   74 1    
    32   15   75 1    
    33   16   17 1    
    34   17   18 1    
    35   17   76 1    
    36   17   77 1    
    37   18   19 1    
    38   18   27 1    
    39   18   78 1    
    40   19   20 am   BACKBONE|DICT|INTERRES
    41   19   79 1    
    42   20   21 2    
    43   20   22 1    
    44   22   23 1    
    45   22   24 1    
    46   22   80 1    
    47   23   81 1    
    48   23   82 1    
    49   23   83 1    
    50   24   25 am   BACKBONE|DICT|INTERRES
    51   24   84 1    
    52   25   26 2    
    53   27   28 2    
    54   27   29 am   BACKBONE|DICT|INTERRES
    55   29   30 1    
    56   29   85 1    
    57   30   31 1    
    58   30   32 1    
    59   30   86 1    
    60   31   87 1    
    61   31   88 1    
    62   31   89 1    
    63   32   33 2    
    64   32   34 am   BACKBONE|DICT|INTERRES
    65   34   35 1    
    66   34   90 1    
    67   35   36 1    
    68   35   37 1    
    69   35   91 1    
    70   36   92 1    
    71   36   93 1    
    72   36   94 1    
    73   37   38 2    
    74   37   39 am   BACKBONE|DICT|INTERRES
    75   39   40 1    
    76   39   95 1    
    77   40   41 1    
    78   40   42 1    
    79   40   96 1    
    80   41   97 1    
    81   41   98 1    
    82   41   99 1    
    83   42   43 2    
    84   42   44 am   BACKBONE|DICT|INTERRES
    85   44   45 1    
    86   44  100 1    
    87   45   46 1    
    88   45   47 1    
    89   45  101 1    
    90   46  102 1    
    91   46  103 1    
    92   46  104 1    
    93   47   48 2    
    94   47   49 am   BACKBONE|DICT|INTERRES
    95   49   50 1    
    96   49  105 1    
    97   50   51 1    
    98   50   52 1    
    99   50  106 1    
   100   51  107 1    
   101   51  108 1    
   102   51  109 1    
   103   52   53 2    
   104   52   54 am   BACKBONE|DICT|INTERRES
   105   54   55 1    
   106   54  110 1    
   107   55   56 1    
   108   55   59 1    
   109   55  111 1    
   110   56   57 am   BACKBONE|DICT|INTERRES
   111   56   58 2    
   112   57  112 1    
   113   57  113 1    
   114   59   60 1    
   115   59  114 1    
   116   59  115 1    
   117   60   61 1    
   118   61  116 1    
   119   61  117 1    
@<TRIPOS>SUBSTRUCTURE
     1 UNK         1 GROUP             0       ****    0 ROOT    
