@<TRIPOS>MOLECULE
3R8
117   119    1
SMALL
USER_CHARGES


@<TRIPOS>ATOM
      1 CA         17.2496  -22.7276  -40.5611 C.3       0 UNK        -0.2013 
      2 C          17.4167  -23.1647  -42.0087 C.2       0 UNK         0.4866 
      3 O          17.6898  -22.3304  -42.8726 O.2       0 UNK        -0.5176 
      4 N          17.2473  -24.4651  -42.2810 N.am      1 UNK        -0.4884 
      5 CA         17.4595  -25.0766  -43.5978 C.3       1 UNK         0.0853 
      6 C6         16.7928  -26.4728  -43.6725 C.3       10 UNK        -0.0849 
      7 S7         16.2613  -26.9054  -45.3586 S.3       10 UNK        -0.2776 
      8 C8         15.7396  -28.6348  -45.1147 C.3       10 UNK         0.0316 
      9 C9         16.9328  -29.5616  -44.9310 C.ar      10 UNK        -0.0863 
     10 C10        17.2167  -30.1300  -43.6836 C.ar      10 UNK        -0.1009 
     11 C11        18.3272  -30.9665  -43.5231 C.ar      10 UNK        -0.0712 
     12 C12        19.1408  -31.2457  -44.6233 C.ar      10 UNK        -0.0894 
     13 C13        18.8666  -30.6826  -45.8719 C.ar      10 UNK        -0.0745 
     14 C14        17.7586  -29.8466  -46.0213 C.ar      10 UNK        -0.0972 
     15 C15        19.7719  -30.9632  -47.0594 C.3       10 UNK         0.0209 
     16 S16        20.9352  -29.5929  -47.3436 S.3       10 UNK        -0.2568 
     17 C17        22.0134  -29.7071  -45.8689 C.3       10 UNK        -0.0983 
     18 CA         22.0408  -28.4720  -44.9132 C.3       3 UNK         0.0876 
     19 N          21.2461  -27.3243  -45.3656 N.am      3 UNK        -0.4424 
     20 C          21.6384  -26.0507  -45.2408 C.2       2 UNK         0.4918 
     21 O          22.6984  -25.7077  -44.7170 O.2       2 UNK        -0.4875 
     22 CA         20.6676  -24.9753  -45.7569 C.3       2 UNK         0.0481 
     23 CB         20.6307  -24.9687  -47.2940 C.3       2 UNK        -0.1831 
     24 N          19.3013  -25.0826  -45.2299 N.am      2 UNK        -0.4498 
     25 C          18.9668  -25.1378  -43.9324 C.2       1 UNK         0.5027 
     26 O          19.7881  -25.2524  -43.0181 O.2       1 UNK        -0.4969 
     27 C          21.7615  -28.8297  -43.4351 C.2       3 UNK         0.5005 
     28 O          22.5556  -29.5629  -42.8441 O.2       3 UNK        -0.5279 
     29 N          20.7004  -28.2727  -42.8264 N.am      4 UNK        -0.4463 
     30 CA         20.4645  -28.3476  -41.3779 C.3       4 UNK         0.0283 
     31 CB         19.0206  -27.9618  -41.0256 C.3       4 UNK        -0.1875 
     32 C          21.4571  -27.4743  -40.5990 C.2       4 UNK         0.4949 
     33 O          21.9373  -27.9013  -39.5511 O.2       4 UNK        -0.5039 
     34 N          21.8082  -26.3056  -41.1552 N.am      5 UNK        -0.4663 
     35 CA         22.8766  -25.4340  -40.6527 C.3       5 UNK         0.0242 
     36 CB         22.8487  -24.1037  -41.4211 C.3       5 UNK        -0.1982 
     37 C          24.2735  -26.0831  -40.7287 C.2       5 UNK         0.5017 
     38 O          25.1315  -25.7686  -39.9042 O.2       5 UNK        -0.5012 
     39 N          24.4590  -27.0017  -41.6878 N.am      6 UNK        -0.4439 
     40 CA         25.6404  -27.8587  -41.8265 C.3       6 UNK         0.0297 
     41 CB         25.8192  -28.2265  -43.3098 C.3       6 UNK        -0.2006 
     42 C          25.5705  -29.1337  -40.9582 C.2       6 UNK         0.4892 
     43 O          26.5445  -29.8870  -40.9384 O.2       6 UNK        -0.5089 
     44 N          24.4377  -29.3592  -40.2727 N.am      7 UNK        -0.4243 
     45 CA         24.1130  -30.5020  -39.4115 C.3       7 UNK         0.0196 
     46 CB         25.0259  -30.5303  -38.1670 C.3       7 UNK        -0.2007 
     47 C          24.0674  -31.8514  -40.1550 C.2       7 UNK         0.5020 
     48 O          24.3729  -32.8851  -39.5576 O.2       7 UNK        -0.5147 
     49 N          23.6571  -31.8419  -41.4329 N.am      8 UNK        -0.4734 
     50 CA         23.5892  -33.0363  -42.2871 C.3       8 UNK         0.0238 
     51 CB         23.3029  -32.6131  -43.7341 C.3       8 UNK        -0.1912 
     52 C          22.5505  -34.0753  -41.8271 C.2       8 UNK         0.5038 
     53 O          22.7415  -35.2666  -42.0750 O.2       8 UNK        -0.5046 
     54 N          21.4890  -33.6076  -41.1585 N.am      9 UNK        -0.4200 
     55 CA         20.4636  -34.4442  -40.5152 C.3       9 UNK         0.0839 
     56 C          20.8928  -35.0080  -39.1269 C.2       9 UNK         0.5513 
     57 N          22.0677  -34.6853  -38.5963 N.am      9 UNK        -0.7519 
     58 O          20.1432  -35.7673  -38.5184 O.2       9 UNK        -0.4960 
     59 C59        19.0921  -33.7193  -40.4355 C.3       10 UNK        -0.0876 
     60 S60        18.4002  -33.3327  -42.0810 S.3       10 UNK        -0.2414 
     61 C61        18.6853  -31.5403  -42.1604 C.3       10 UNK         0.0169 
     62 H62        16.4461  -21.9961  -40.4800 H         1 UNK         0.0903 
     63 H63        17.0128  -23.5657  -39.9058 H         1 UNK         0.0903 
     64 H64        18.1687  -22.2661  -40.2012 H         1 UNK         0.0903 
     65 H65        17.0459  -25.1033  -41.5252 H         1 UNK         0.3096 
     66 H66        16.9801  -24.4194  -44.3278 H         1 UNK         0.1121 
     67 H67        17.4498  -27.2519  -43.2877 H         1 UNK         0.0849 
     68 H68        15.8978  -26.4996  -43.0482 H         1 UNK         0.0849 
     69 H69        15.0588  -28.6973  -44.2642 H         1 UNK         0.0865 
     70 H70        15.1672  -28.9573  -45.9858 H         1 UNK         0.0865 
     71 H71        16.5827  -29.9103  -42.8356 H         1 UNK         0.1346 
     72 H72        19.9940  -31.8972  -44.4990 H         1 UNK         0.1412 
     73 H73        17.5471  -29.4031  -46.9851 H         1 UNK         0.1426 
     74 H74        20.3263  -31.8921  -46.9164 H         1 UNK         0.0716 
     75 H75        19.1661  -31.1046  -47.9557 H         1 UNK         0.0716 
     76 H76        23.0233  -29.8819  -46.2437 H         1 UNK         0.0695 
     77 H77        21.7714  -30.6225  -45.3343 H         1 UNK         0.0695 
     78 H78        23.0845  -28.1507  -44.9054 H         1 UNK         0.0983 
     79 H79        20.3769  -27.5385  -45.8343 H         1 UNK         0.3095 
     80 H80        21.0558  -24.0087  -45.4294 H         1 UNK         0.0454 
     81 H81        20.1881  -25.8811  -47.6955 H         1 UNK         0.0851 
     82 H82        20.0574  -24.1230  -47.6739 H         1 UNK         0.0851 
     83 H83        21.6364  -24.8856  -47.7086 H         1 UNK         0.0851 
     84 H84        18.5563  -25.0360  -45.9110 H         1 UNK         0.2976 
     85 H85        20.1152  -27.6449  -43.3575 H         1 UNK         0.3116 
     86 H86        20.6207  -29.3796  -41.0592 H         1 UNK         0.0646 
     87 H87        18.2998  -28.5853  -41.5494 H         1 UNK         0.0847 
     88 H88        18.8384  -28.0939  -39.9582 H         1 UNK         0.0847 
     89 H89        18.8063  -26.9197  -41.2575 H         1 UNK         0.0847 
     90 H90        21.3013  -25.9859  -41.9766 H         1 UNK         0.3040 
     91 H91        22.6709  -25.2272  -39.6000 H         1 UNK         0.1015 
     92 H92        23.0504  -24.2462  -42.4831 H         1 UNK         0.0786 
     93 H93        23.6009  -23.4141  -41.0354 H         1 UNK         0.0786 
     94 H94        21.8796  -23.6126  -41.3288 H         1 UNK         0.0786 
     95 H95        23.6923  -27.1796  -42.3201 H         1 UNK         0.3172 
     96 H96        26.5218  -27.2967  -41.5108 H         1 UNK         0.0595 
     97 H97        25.0309  -28.8922  -43.6606 H         1 UNK         0.0839 
     98 H98        26.7667  -28.7432  -43.4685 H         1 UNK         0.0839 
     99 H99        25.8245  -27.3409  -43.9456 H         1 UNK         0.0839 
    100 H100       23.6963  -28.6732  -40.3488 H         1 UNK         0.2998 
    101 H101       23.0949  -30.3293  -39.0603 H         1 UNK         0.0822 
    102 H102       24.6897  -31.2816  -37.4512 H         1 UNK         0.0787 
    103 H103       26.0577  -30.7688  -38.4265 H         1 UNK         0.0787 
    104 H104       25.0220  -29.5701  -37.6512 H         1 UNK         0.0787 
    105 H105       23.3884  -30.9576  -41.8619 H         1 UNK         0.3055 
    106 H106       24.5687  -33.5190  -42.2573 H         1 UNK         0.1106 
    107 H107       24.0192  -31.8704  -44.0862 H         1 UNK         0.0828 
    108 H108       23.3570  -33.4673  -44.4103 H         1 UNK         0.0828 
    109 H109       22.3035  -32.1905  -43.8226 H         1 UNK         0.0828 
    110 H110       21.4337  -32.6153  -40.9905 H         1 UNK         0.2931 
    111 H111       20.3166  -35.3245  -41.1442 H         1 UNK         0.0412 
    112 H112       22.7238  -34.0862  -39.0825 H         1 UNK         0.3472 
    113 H113       22.3186  -35.0700  -37.6992 H         1 UNK         0.3472 
    114 H114       18.3585  -34.3485  -39.9278 H         1 UNK         0.0970 
    115 H115       19.1694  -32.8113  -39.8349 H         1 UNK         0.0970 
    116 H116       18.1141  -31.0512  -41.3701 H         1 UNK         0.0612 
    117 H117       19.7378  -31.3395  -41.9600 H         1 UNK         0.0612 
@<TRIPOS>BOND
     1    1    2 1    
     2    1   62 1    
     3    1   63 1    
     4    1   64 1    
     5    2    3 2    
     6    2    4 am   BACKBONE|DICT|INTERRES
     7    4    5 1    
     8    4   65 1    
     9    5    6 1    
    10    5   25 1    
    11    5   66 1    
    12    6    7 1    
    13    6   67 1    
    14    6   68 1    
    15    7    8 1    
    16    8    9 1    
    17    8   69 1    
    18    8   70 1    
    19    9   10 ar   
    20    9   14 ar   
    21   10   11 ar   
    22   10   71 1    
    23   11   12 ar   
    24   11   61 1    
    25   12   13 ar   
    26   12   72 1    
    27   13   14 ar   
    28   13   15 1    
    29   14   73 1    
    30   15   16 1    
    31   15   74 1    
    32   15   75 1    
    33   16   17 1    
    34   17   18 1    
    35   17   76 1    
    36   17   77 1    
    37   18   19 1    
    38   18   27 1    
    39   18   78 1    
    40   19   20 am   BACKBONE|DICT|INTERRES
    41   19   79 1    
    42   20   21 2    
    43   20   22 1    
    44   22   23 1    
    45   22   24 1    
    46   22   80 1    
    47   23   81 1    
    48   23   82 1    
    49   23   83 1    
    50   24   25 am   BACKBONE|DICT|INTERRES
    51   24   84 1    
    52   25   26 2    
    53   27   28 2    
    54   27   29 am   BACKBONE|DICT|INTERRES
    55   29   30 1    
    56   29   85 1    
    57   30   31 1    
    58   30   32 1    
    59   30   86 1    
    60   31   87 1    
    61   31   88 1    
    62   31   89 1    
    63   32   33 2    
    64   32   34 am   BACKBONE|DICT|INTERRES
    65   34   35 1    
    66   34   90 1    
    67   35   36 1    
    68   35   37 1    
    69   35   91 1    
    70   36   92 1    
    71   36   93 1    
    72   36   94 1    
    73   37   38 2    
    74   37   39 am   BACKBONE|DICT|INTERRES
    75   39   40 1    
    76   39   95 1    
    77   40   41 1    
    78   40   42 1    
    79   40   96 1    
    80   41   97 1    
    81   41   98 1    
    82   41   99 1    
    83   42   43 2    
    84   42   44 am   BACKBONE|DICT|INTERRES
    85   44   45 1    
    86   44  100 1    
    87   45   46 1    
    88   45   47 1    
    89   45  101 1    
    90   46  102 1    
    91   46  103 1    
    92   46  104 1    
    93   47   48 2    
    94   47   49 am   BACKBONE|DICT|INTERRES
    95   49   50 1    
    96   49  105 1    
    97   50   51 1    
    98   50   52 1    
    99   50  106 1    
   100   51  107 1    
   101   51  108 1    
   102   51  109 1    
   103   52   53 2    
   104   52   54 am   BACKBONE|DICT|INTERRES
   105   54   55 1    
   106   54  110 1    
   107   55   56 1    
   108   55   59 1    
   109   55  111 1    
   110   56   57 am   BACKBONE|DICT|INTERRES
   111   56   58 2    
   112   57  112 1    
   113   57  113 1    
   114   59   60 1    
   115   59  114 1    
   116   59  115 1    
   117   60   61 1    
   118   61  116 1    
   119   61  117 1    
@<TRIPOS>SUBSTRUCTURE
     1 UNK         1 GROUP             0       ****    0 ROOT    
