@<TRIPOS>MOLECULE
3R8
117   119    1
SMALL
USER_CHARGES


@<TRIPOS>ATOM
      1 CA         16.0667  -27.3407  -41.0496 C.3       0 UNK        -0.2013 
      2 C          16.5479  -26.2738  -42.0212 C.2       0 UNK         0.4866 
      3 O          16.4444  -25.0841  -41.7197 O.2       0 UNK        -0.5176 
      4 N          17.0613  -26.6934  -43.1839 N.am      1 UNK        -0.4884 
      5 CA         17.5770  -25.8153  -44.2434 C.3       1 UNK         0.0853 
      6 C6         17.1706  -26.3052  -45.6627 C.3       10 UNK        -0.0849 
      7 S7         15.3827  -26.6786  -45.7852 S.3       10 UNK        -0.2776 
      8 C8         15.3390  -28.3325  -46.5577 C.3       10 UNK         0.0316 
      9 C9         16.2561  -29.3511  -45.8888 C.ar      10 UNK        -0.0863 
     10 C10        16.0243  -29.7781  -44.5756 C.ar      10 UNK        -0.1009 
     11 C11        16.8650  -30.7248  -43.9764 C.ar      10 UNK        -0.0712 
     12 C12        17.9192  -31.2652  -44.7178 C.ar      10 UNK        -0.0894 
     13 C13        18.1899  -30.8117  -46.0112 C.ar      10 UNK        -0.0745 
     14 C14        17.3458  -29.8672  -46.5973 C.ar      10 UNK        -0.0972 
     15 C15        19.4203  -31.3102  -46.7569 C.3       10 UNK         0.0209 
     16 S16        20.8028  -30.1216  -46.6507 S.3       10 UNK        -0.2568 
     17 C17        21.1269  -30.1133  -44.8549 C.3       10 UNK        -0.0983 
     18 CA         21.9560  -28.9134  -44.3449 C.3       3 UNK         0.0876 
     19 N          21.4706  -27.6311  -44.8595 N.am      3 UNK        -0.4424 
     20 C          22.0588  -26.4432  -44.6630 C.2       2 UNK         0.4918 
     21 O          23.1175  -26.2978  -44.0512 O.2       2 UNK        -0.4875 
     22 CA         21.2990  -25.2035  -45.1760 C.3       2 UNK         0.0481 
     23 CB         21.7643  -24.8439  -46.5952 C.3       2 UNK        -0.1831 
     24 N          19.8337  -25.3458  -45.1593 N.am      2 UNK        -0.4498 
     25 C          19.1043  -25.6431  -44.0710 C.2       1 UNK         0.5027 
     26 O          19.6178  -25.8154  -42.9632 O.2       1 UNK        -0.4969 
     27 C          21.9924  -28.9626  -42.8015 C.2       3 UNK         0.5005 
     28 O          22.8192  -29.6892  -42.2483 O.2       3 UNK        -0.5279 
     29 N          21.0992  -28.2186  -42.1265 N.am      4 UNK        -0.4463 
     30 CA         21.0368  -28.1406  -40.6655 C.3       4 UNK         0.0283 
     31 CB         19.7100  -27.5199  -40.2060 C.3       4 UNK        -0.1875 
     32 C          22.2327  -27.3753  -40.0891 C.2       4 UNK         0.4949 
     33 O          22.8194  -27.8216  -39.1037 O.2       4 UNK        -0.5039 
     34 N          22.5993  -26.2679  -40.7475 N.am      5 UNK        -0.4663 
     35 CA         23.7954  -25.4860  -40.4349 C.3       5 UNK         0.0242 
     36 CB         23.7352  -24.1393  -41.1741 C.3       5 UNK        -0.1982 
     37 C          25.0893  -26.2423  -40.7787 C.2       5 UNK         0.5017 
     38 O          26.0606  -26.1442  -40.0282 O.2       5 UNK        -0.5012 
     39 N          25.0747  -26.9786  -41.8994 N.am      6 UNK        -0.4439 
     40 CA         26.2034  -27.7703  -42.3844 C.3       6 UNK         0.0297 
     41 CB         25.9694  -28.1803  -43.8473 C.3       6 UNK        -0.2006 
     42 C          26.5056  -29.0022  -41.5151 C.2       6 UNK         0.4892 
     43 O          27.6548  -29.1659  -41.1020 O.2       6 UNK        -0.5089 
     44 N          25.5014  -29.8615  -41.2813 N.am      7 UNK        -0.4243 
     45 CA         25.6962  -31.1776  -40.6646 C.3       7 UNK         0.0196 
     46 CB         26.2998  -32.1553  -41.6984 C.3       7 UNK        -0.2007 
     47 C          24.4159  -31.7333  -40.0176 C.2       7 UNK         0.5020 
     48 O          24.2076  -32.9472  -40.0488 O.2       7 UNK        -0.5147 
     49 N          23.5755  -30.8619  -39.4374 N.am      8 UNK        -0.4734 
     50 CA         22.3542  -31.2036  -38.6849 C.3       8 UNK         0.0238 
     51 CB         22.7290  -31.8609  -37.3386 C.3       8 UNK        -0.1912 
     52 C          21.3280  -32.0402  -39.4848 C.2       8 UNK         0.5038 
     53 O          20.6773  -32.9149  -38.9105 O.2       8 UNK        -0.5046 
     54 N          21.2241  -31.7696  -40.7944 N.am      9 UNK        -0.4200 
     55 CA         20.4254  -32.5140  -41.7860 C.3       9 UNK         0.0839 
     56 C          20.9911  -33.9252  -42.1357 C.2       9 UNK         0.5513 
     57 N          22.1869  -34.3039  -41.6998 N.am      9 UNK        -0.7519 
     58 O          20.3481  -34.6848  -42.8561 O.2       9 UNK        -0.4960 
     59 C59        18.8947  -32.5461  -41.4840 C.3       10 UNK        -0.0876 
     60 S60        18.1073  -30.8952  -41.4717 S.3       10 UNK        -0.2414 
     61 C61        16.6374  -31.1595  -42.5320 C.3       10 UNK         0.0169 
     62 H62        14.9810  -27.3086  -40.9646 H         1 UNK         0.0903 
     63 H63        16.3542  -28.3404  -41.3711 H         1 UNK         0.0903 
     64 H64        16.4917  -27.1695  -40.0610 H         1 UNK         0.0903 
     65 H65        17.1271  -27.6831  -43.3738 H         1 UNK         0.3096 
     66 H66        17.1501  -24.8180  -44.1164 H         1 UNK         0.1121 
     67 H67        17.7573  -27.1779  -45.9491 H         1 UNK         0.0849 
     68 H68        17.3882  -25.5389  -46.4085 H         1 UNK         0.0849 
     69 H69        14.3145  -28.7058  -46.5284 H         1 UNK         0.0865 
     70 H70        15.5885  -28.2258  -47.6146 H         1 UNK         0.0865 
     71 H71        15.1914  -29.3653  -44.0225 H         1 UNK         0.1346 
     72 H72        18.5697  -32.0008  -44.2680 H         1 UNK         0.1412 
     73 H73        17.5515  -29.5230  -47.6020 H         1 UNK         0.1426 
     74 H74        19.7439  -32.2758  -46.3648 H         1 UNK         0.0716 
     75 H75        19.1721  -31.4737  -47.8066 H         1 UNK         0.0716 
     76 H76        20.1743  -30.1189  -44.3299 H         1 UNK         0.0695 
     77 H77        21.6262  -31.0512  -44.6048 H         1 UNK         0.0695 
     78 H78        22.9781  -29.0353  -44.7050 H         1 UNK         0.0983 
     79 H79        20.6172  -27.6662  -45.3967 H         1 UNK         0.3095 
     80 H80        21.5525  -24.3729  -44.5142 H         1 UNK         0.0454 
     81 H81        21.5102  -25.6230  -47.3149 H         1 UNK         0.0851 
     82 H82        21.3168  -23.9104  -46.9366 H         1 UNK         0.0851 
     83 H83        22.8468  -24.7112  -46.6283 H         1 UNK         0.0851 
     84 H84        19.3603  -25.2063  -46.0403 H         1 UNK         0.2976 
     85 H85        20.4799  -27.5958  -42.6354 H         1 UNK         0.3116 
     86 H86        21.0640  -29.1553  -40.2782 H         1 UNK         0.0646 
     87 H87        19.6293  -26.4675  -40.4775 H         1 UNK         0.0847 
     88 H88        18.8607  -28.0469  -40.6376 H         1 UNK         0.0847 
     89 H89        19.6110  -27.5800  -39.1216 H         1 UNK         0.0847 
     90 H90        22.0608  -25.9860  -41.5552 H         1 UNK         0.3040 
     91 H91        23.8030  -25.2885  -39.3603 H         1 UNK         0.1015 
     92 H92        23.7108  -24.2705  -42.2566 H         1 UNK         0.0786 
     93 H93        24.6075  -23.5276  -40.9397 H         1 UNK         0.0786 
     94 H94        22.8527  -23.5678  -40.8857 H         1 UNK         0.0786 
     95 H95        24.2526  -26.9336  -42.4926 H         1 UNK         0.3172 
     96 H96        27.0856  -27.1265  -42.3637 H         1 UNK         0.0595 
     97 H97        26.8453  -28.6899  -44.2510 H         1 UNK         0.0839 
     98 H98        25.7786  -27.3133  -44.4803 H         1 UNK         0.0839 
     99 H99        25.1267  -28.8627  -43.9464 H         1 UNK         0.0839 
    100 H100       24.5695  -29.6730  -41.6489 H         1 UNK         0.2998 
    101 H101       26.4084  -31.0725  -39.8434 H         1 UNK         0.0822 
    102 H102       26.5041  -33.1292  -41.2516 H         1 UNK         0.0787 
    103 H103       25.6213  -32.3145  -42.5374 H         1 UNK         0.0787 
    104 H104       27.2455  -31.7887  -42.0975 H         1 UNK         0.0787 
    105 H105       23.7981  -29.8739  -39.4761 H         1 UNK         0.3055 
    106 H106       21.8567  -30.2638  -38.4459 H         1 UNK         0.1106 
    107 H107       23.4309  -31.2439  -36.7777 H         1 UNK         0.0828 
    108 H108       21.8487  -31.9978  -36.7093 H         1 UNK         0.0828 
    109 H109       23.1830  -32.8424  -37.4799 H         1 UNK         0.0828 
    110 H110       21.8398  -31.0616  -41.1816 H         1 UNK         0.2931 
    111 H111       20.5471  -31.9500  -42.7085 H         1 UNK         0.0412 
    112 H112       22.5313  -35.2156  -41.9548 H         1 UNK         0.3472 
    113 H113       22.7517  -33.7066  -41.1032 H         1 UNK         0.3472 
    114 H114       18.3812  -33.1627  -42.2224 H         1 UNK         0.0970 
    115 H115       18.6961  -33.0304  -40.5278 H         1 UNK         0.0970 
    116 H116       16.3293  -32.2052  -42.5089 H         1 UNK         0.0612 
    117 H117       15.8085  -30.5985  -42.0987 H         1 UNK         0.0612 
@<TRIPOS>BOND
     1    1    2 1    
     2    1   62 1    
     3    1   63 1    
     4    1   64 1    
     5    2    3 2    
     6    2    4 am   BACKBONE|DICT|INTERRES
     7    4    5 1    
     8    4   65 1    
     9    5    6 1    
    10    5   25 1    
    11    5   66 1    
    12    6    7 1    
    13    6   67 1    
    14    6   68 1    
    15    7    8 1    
    16    8    9 1    
    17    8   69 1    
    18    8   70 1    
    19    9   10 ar   
    20    9   14 ar   
    21   10   11 ar   
    22   10   71 1    
    23   11   12 ar   
    24   11   61 1    
    25   12   13 ar   
    26   12   72 1    
    27   13   14 ar   
    28   13   15 1    
    29   14   73 1    
    30   15   16 1    
    31   15   74 1    
    32   15   75 1    
    33   16   17 1    
    34   17   18 1    
    35   17   76 1    
    36   17   77 1    
    37   18   19 1    
    38   18   27 1    
    39   18   78 1    
    40   19   20 am   BACKBONE|DICT|INTERRES
    41   19   79 1    
    42   20   21 2    
    43   20   22 1    
    44   22   23 1    
    45   22   24 1    
    46   22   80 1    
    47   23   81 1    
    48   23   82 1    
    49   23   83 1    
    50   24   25 am   BACKBONE|DICT|INTERRES
    51   24   84 1    
    52   25   26 2    
    53   27   28 2    
    54   27   29 am   BACKBONE|DICT|INTERRES
    55   29   30 1    
    56   29   85 1    
    57   30   31 1    
    58   30   32 1    
    59   30   86 1    
    60   31   87 1    
    61   31   88 1    
    62   31   89 1    
    63   32   33 2    
    64   32   34 am   BACKBONE|DICT|INTERRES
    65   34   35 1    
    66   34   90 1    
    67   35   36 1    
    68   35   37 1    
    69   35   91 1    
    70   36   92 1    
    71   36   93 1    
    72   36   94 1    
    73   37   38 2    
    74   37   39 am   BACKBONE|DICT|INTERRES
    75   39   40 1    
    76   39   95 1    
    77   40   41 1    
    78   40   42 1    
    79   40   96 1    
    80   41   97 1    
    81   41   98 1    
    82   41   99 1    
    83   42   43 2    
    84   42   44 am   BACKBONE|DICT|INTERRES
    85   44   45 1    
    86   44  100 1    
    87   45   46 1    
    88   45   47 1    
    89   45  101 1    
    90   46  102 1    
    91   46  103 1    
    92   46  104 1    
    93   47   48 2    
    94   47   49 am   BACKBONE|DICT|INTERRES
    95   49   50 1    
    96   49  105 1    
    97   50   51 1    
    98   50   52 1    
    99   50  106 1    
   100   51  107 1    
   101   51  108 1    
   102   51  109 1    
   103   52   53 2    
   104   52   54 am   BACKBONE|DICT|INTERRES
   105   54   55 1    
   106   54  110 1    
   107   55   56 1    
   108   55   59 1    
   109   55  111 1    
   110   56   57 am   BACKBONE|DICT|INTERRES
   111   56   58 2    
   112   57  112 1    
   113   57  113 1    
   114   59   60 1    
   115   59  114 1    
   116   59  115 1    
   117   60   61 1    
   118   61  116 1    
   119   61  117 1    
@<TRIPOS>SUBSTRUCTURE
     1 UNK         1 GROUP             0       ****    0 ROOT    
