@<TRIPOS>MOLECULE
3R8
117   119    1
SMALL
USER_CHARGES


@<TRIPOS>ATOM
      1 CA         15.2147  -25.3767  -43.8412 C.3       0 UNK        -0.2013 
      2 C          15.9685  -25.9022  -45.0541 C.2       0 UNK         0.4866 
      3 O          15.5948  -25.5932  -46.1861 O.2       0 UNK        -0.5176 
      4 N          17.0223  -26.6906  -44.8176 N.am      1 UNK        -0.4884 
      5 CA         17.9105  -27.2601  -45.8376 C.3       1 UNK         0.0853 
      6 C6         17.8198  -28.8160  -45.9124 C.3       10 UNK        -0.0849 
      7 S7         16.1077  -29.4015  -46.2020 S.3       10 UNK        -0.2776 
      8 C8         15.9880  -30.9519  -45.2296 C.3       10 UNK         0.0316 
      9 C9         16.3530  -30.8519  -43.7461 C.ar      10 UNK        -0.0863 
     10 C10        16.7826  -32.0027  -43.0738 C.ar      10 UNK        -0.1009 
     11 C11        17.1729  -31.9448  -41.7313 C.ar      10 UNK        -0.0712 
     12 C12        17.1327  -30.7222  -41.0580 C.ar      10 UNK        -0.0894 
     13 C13        16.7024  -29.5663  -41.7132 C.ar      10 UNK        -0.0745 
     14 C14        16.2775  -29.6453  -43.0406 C.ar      10 UNK        -0.0972 
     15 C15        16.7535  -28.2207  -41.0074 C.3       10 UNK         0.0209 
     16 S16        18.1777  -27.2333  -41.5756 S.3       10 UNK        -0.2568 
     17 C17        19.5782  -28.3014  -41.0782 C.3       10 UNK        -0.0983 
     18 CA         20.9602  -27.8073  -41.5669 C.3       3 UNK         0.0876 
     19 N          20.9844  -27.6360  -43.0243 N.am      3 UNK        -0.4424 
     20 C          22.0200  -27.2977  -43.8067 C.2       2 UNK         0.4918 
     21 O          23.1390  -27.0227  -43.3739 O.2       2 UNK        -0.4875 
     22 CA         21.7548  -27.2065  -45.3263 C.3       2 UNK         0.0481 
     23 CB         22.7324  -28.0886  -46.1179 C.3       2 UNK        -0.1831 
     24 N          20.3730  -27.5433  -45.7038 N.am      2 UNK        -0.4498 
     25 C          19.3281  -26.7151  -45.5527 C.2       1 UNK         0.5027 
     26 O          19.4584  -25.5543  -45.1548 O.2       1 UNK        -0.4969 
     27 C          21.4622  -26.6043  -40.7403 C.2       3 UNK         0.5005 
     28 O          21.8155  -26.7935  -39.5760 O.2       3 UNK        -0.5279 
     29 N          21.5652  -25.4134  -41.3493 N.am      4 UNK        -0.4463 
     30 CA         22.2564  -24.2414  -40.7987 C.3       4 UNK         0.0283 
     31 CB         22.1057  -23.0628  -41.7732 C.3       4 UNK        -0.1875 
     32 C          23.7475  -24.4924  -40.4837 C.2       4 UNK         0.4949 
     33 O          24.2948  -23.8301  -39.6027 O.2       4 UNK        -0.5039 
     34 N          24.3656  -25.4639  -41.1727 N.am      5 UNK        -0.4663 
     35 CA         25.7181  -25.9608  -40.9042 C.3       5 UNK         0.0242 
     36 CB         26.2734  -26.5848  -42.1967 C.3       5 UNK        -0.1982 
     37 C          25.7847  -26.9788  -39.7453 C.2       5 UNK         0.5017 
     38 O          26.8829  -27.4399  -39.4328 O.2       5 UNK        -0.5012 
     39 N          24.6330  -27.3348  -39.1503 N.am      6 UNK        -0.4439 
     40 CA         24.4372  -28.3519  -38.1065 C.3       6 UNK         0.0297 
     41 CB         25.1814  -27.9759  -36.8071 C.3       6 UNK        -0.2006 
     42 C          24.7447  -29.7861  -38.5858 C.2       6 UNK         0.4892 
     43 O          25.1314  -30.6341  -37.7795 O.2       6 UNK        -0.5089 
     44 N          24.5550  -30.0335  -39.8865 N.am      7 UNK        -0.4243 
     45 CA         24.7975  -31.2888  -40.5906 C.3       7 UNK         0.0196 
     46 CB         26.3169  -31.5370  -40.7161 C.3       7 UNK        -0.2007 
     47 C          24.1298  -31.1978  -41.9716 C.2       7 UNK         0.5020 
     48 O          23.5405  -30.1642  -42.2941 O.2       7 UNK        -0.5147 
     49 N          24.2696  -32.2655  -42.7697 N.am      8 UNK        -0.4734 
     50 CA         23.8651  -32.3695  -44.1787 C.3       8 UNK         0.0238 
     51 CB         24.6715  -31.3826  -45.0533 C.3       8 UNK        -0.1912 
     52 C          22.3431  -32.2657  -44.3986 C.2       8 UNK         0.5038 
     53 O          21.8900  -31.4863  -45.2382 O.2       8 UNK        -0.5046 
     54 N          21.5806  -33.0814  -43.6591 N.am      9 UNK        -0.4200 
     55 CA         20.1449  -33.3091  -43.8886 C.3       9 UNK         0.0839 
     56 C          19.8792  -33.8981  -45.3020 C.2       9 UNK         0.5513 
     57 N          19.0193  -33.2717  -46.0897 N.am      9 UNK        -0.7519 
     58 O          20.4230  -34.9369  -45.6675 O.2       9 UNK        -0.4960 
     59 C59        19.5389  -34.2387  -42.8071 C.3       10 UNK        -0.0876 
     60 S60        19.4423  -33.4437  -41.1692 S.3       10 UNK        -0.2414 
     61 C61        17.6452  -33.1920  -40.9977 C.3       10 UNK         0.0169 
     62 H62        14.1994  -25.7720  -43.8311 H         1 UNK         0.0903 
     63 H63        15.6982  -25.6575  -42.9059 H         1 UNK         0.0903 
     64 H64        15.1573  -24.2891  -43.8771 H         1 UNK         0.0903 
     65 H65        17.3158  -26.8430  -43.8614 H         1 UNK         0.3096 
     66 H66        17.6445  -26.8680  -46.8216 H         1 UNK         0.1121 
     67 H67        18.4307  -29.1966  -46.7328 H         1 UNK         0.0849 
     68 H68        18.2135  -29.2679  -45.0010 H         1 UNK         0.0849 
     69 H69        14.9647  -31.3220  -45.3039 H         1 UNK         0.0865 
     70 H70        16.6149  -31.7003  -45.7146 H         1 UNK         0.0865 
     71 H71        16.8232  -32.9462  -43.6002 H         1 UNK         0.1346 
     72 H72        17.4623  -30.6662  -40.0294 H         1 UNK         0.1412 
     73 H73        15.9278  -28.7508  -43.5329 H         1 UNK         0.1426 
     74 H74        16.8126  -28.3502  -39.9255 H         1 UNK         0.0716 
     75 H75        15.8328  -27.6689  -41.2017 H         1 UNK         0.0716 
     76 H76        19.5642  -28.4258  -39.9934 H         1 UNK         0.0695 
     77 H77        19.4169  -29.2978  -41.4899 H         1 UNK         0.0695 
     78 H78        21.6729  -28.6059  -41.3557 H         1 UNK         0.0983 
     79 H79        20.1043  -27.8133  -43.4810 H         1 UNK         0.3095 
     80 H80        21.9499  -26.1713  -45.6137 H         1 UNK         0.0454 
     81 H81        23.7678  -27.8402  -45.8808 H         1 UNK         0.0851 
     82 H82        22.5934  -29.1435  -45.8921 H         1 UNK         0.0851 
     83 H83        22.6075  -27.9557  -47.1924 H         1 UNK         0.0851 
     84 H84        20.2171  -28.4857  -46.0335 H         1 UNK         0.2976 
     85 H85        21.2452  -25.3463  -42.3049 H         1 UNK         0.3116 
     86 H86        21.7634  -23.9788  -39.8605 H         1 UNK         0.0646 
     87 H87        22.5856  -22.1663  -41.3781 H         1 UNK         0.0847 
     88 H88        21.0571  -22.8179  -41.9430 H         1 UNK         0.0847 
     89 H89        22.5629  -23.2773  -42.7401 H         1 UNK         0.0847 
     90 H90        23.8498  -25.9514  -41.9017 H         1 UNK         0.3040 
     91 H91        26.3556  -25.1176  -40.6294 H         1 UNK         0.1015 
     92 H92        26.2457  -25.8762  -43.0247 H         1 UNK         0.0786 
     93 H93        25.7061  -27.4684  -42.4931 H         1 UNK         0.0786 
     94 H94        27.3122  -26.8928  -42.0704 H         1 UNK         0.0786 
     95 H95        23.7735  -26.8966  -39.4696 H         1 UNK         0.3172 
     96 H96        23.3702  -28.3406  -37.8803 H         1 UNK         0.0595 
     97 H97        24.9434  -26.9597  -36.4929 H         1 UNK         0.0839 
     98 H98        26.2632  -28.0483  -36.9220 H         1 UNK         0.0839 
     99 H99        24.8992  -28.6405  -35.9897 H         1 UNK         0.0839 
    100 H100       24.1876  -29.3042  -40.4859 H         1 UNK         0.2998 
    101 H101       24.3292  -32.1036  -40.0348 H         1 UNK         0.0822 
    102 H102       26.7986  -31.5862  -39.7396 H         1 UNK         0.0787 
    103 H103       26.5309  -32.4807  -41.2184 H         1 UNK         0.0787 
    104 H104       26.8042  -30.7444  -41.2857 H         1 UNK         0.0787 
    105 H105       24.7527  -33.0721  -42.3978 H         1 UNK         0.3055 
    106 H106       24.1380  -33.3753  -44.5032 H         1 UNK         0.1106 
    107 H107       24.4531  -30.3443  -44.8033 H         1 UNK         0.0828 
    108 H108       25.7442  -31.5351  -44.9363 H         1 UNK         0.0828 
    109 H109       24.4402  -31.5165  -46.1108 H         1 UNK         0.0828 
    110 H110       22.0250  -33.6798  -42.9797 H         1 UNK         0.2931 
    111 H111       19.6491  -32.3380  -43.8224 H         1 UNK         0.0412 
    112 H112       18.8291  -33.6482  -47.0053 H         1 UNK         0.3472 
    113 H113       18.6061  -32.4000  -45.8073 H         1 UNK         0.3472 
    114 H114       20.1295  -35.1520  -42.7141 H         1 UNK         0.0970 
    115 H115       18.5409  -34.5709  -43.0976 H         1 UNK         0.0970 
    116 H116       17.1024  -34.0716  -41.3468 H         1 UNK         0.0612 
    117 H117       17.4115  -33.1022  -39.9357 H         1 UNK         0.0612 
@<TRIPOS>BOND
     1    1    2 1    
     2    1   62 1    
     3    1   63 1    
     4    1   64 1    
     5    2    3 2    
     6    2    4 am   BACKBONE|DICT|INTERRES
     7    4    5 1    
     8    4   65 1    
     9    5    6 1    
    10    5   25 1    
    11    5   66 1    
    12    6    7 1    
    13    6   67 1    
    14    6   68 1    
    15    7    8 1    
    16    8    9 1    
    17    8   69 1    
    18    8   70 1    
    19    9   10 ar   
    20    9   14 ar   
    21   10   11 ar   
    22   10   71 1    
    23   11   12 ar   
    24   11   61 1    
    25   12   13 ar   
    26   12   72 1    
    27   13   14 ar   
    28   13   15 1    
    29   14   73 1    
    30   15   16 1    
    31   15   74 1    
    32   15   75 1    
    33   16   17 1    
    34   17   18 1    
    35   17   76 1    
    36   17   77 1    
    37   18   19 1    
    38   18   27 1    
    39   18   78 1    
    40   19   20 am   BACKBONE|DICT|INTERRES
    41   19   79 1    
    42   20   21 2    
    43   20   22 1    
    44   22   23 1    
    45   22   24 1    
    46   22   80 1    
    47   23   81 1    
    48   23   82 1    
    49   23   83 1    
    50   24   25 am   BACKBONE|DICT|INTERRES
    51   24   84 1    
    52   25   26 2    
    53   27   28 2    
    54   27   29 am   BACKBONE|DICT|INTERRES
    55   29   30 1    
    56   29   85 1    
    57   30   31 1    
    58   30   32 1    
    59   30   86 1    
    60   31   87 1    
    61   31   88 1    
    62   31   89 1    
    63   32   33 2    
    64   32   34 am   BACKBONE|DICT|INTERRES
    65   34   35 1    
    66   34   90 1    
    67   35   36 1    
    68   35   37 1    
    69   35   91 1    
    70   36   92 1    
    71   36   93 1    
    72   36   94 1    
    73   37   38 2    
    74   37   39 am   BACKBONE|DICT|INTERRES
    75   39   40 1    
    76   39   95 1    
    77   40   41 1    
    78   40   42 1    
    79   40   96 1    
    80   41   97 1    
    81   41   98 1    
    82   41   99 1    
    83   42   43 2    
    84   42   44 am   BACKBONE|DICT|INTERRES
    85   44   45 1    
    86   44  100 1    
    87   45   46 1    
    88   45   47 1    
    89   45  101 1    
    90   46  102 1    
    91   46  103 1    
    92   46  104 1    
    93   47   48 2    
    94   47   49 am   BACKBONE|DICT|INTERRES
    95   49   50 1    
    96   49  105 1    
    97   50   51 1    
    98   50   52 1    
    99   50  106 1    
   100   51  107 1    
   101   51  108 1    
   102   51  109 1    
   103   52   53 2    
   104   52   54 am   BACKBONE|DICT|INTERRES
   105   54   55 1    
   106   54  110 1    
   107   55   56 1    
   108   55   59 1    
   109   55  111 1    
   110   56   57 am   BACKBONE|DICT|INTERRES
   111   56   58 2    
   112   57  112 1    
   113   57  113 1    
   114   59   60 1    
   115   59  114 1    
   116   59  115 1    
   117   60   61 1    
   118   61  116 1    
   119   61  117 1    
@<TRIPOS>SUBSTRUCTURE
     1 UNK         1 GROUP             0       ****    0 ROOT    
