@<TRIPOS>MOLECULE
3R8
117   119    1
SMALL
USER_CHARGES


@<TRIPOS>ATOM
      1 CA         20.9473  -23.4989  -40.4723 C.3       0 UNK        -0.2013 
      2 C          19.7883  -23.6782  -41.4416 C.2       0 UNK         0.4866 
      3 O          18.9324  -22.7986  -41.5460 O.2       0 UNK        -0.5176 
      4 N          19.7557  -24.8122  -42.1478 N.am      1 UNK        -0.4884 
      5 CA         18.7722  -25.1251  -43.1896 C.3       1 UNK         0.0853 
      6 C6         18.5873  -26.6584  -43.3315 C.3       10 UNK        -0.0849 
      7 S7         17.8400  -27.4073  -41.8464 S.3       10 UNK        -0.2776 
      8 C8         16.5703  -28.4915  -42.5796 C.3       10 UNK         0.0316 
      9 C9         17.1954  -29.6514  -43.3433 C.ar      10 UNK        -0.0863 
     10 C10        17.7816  -30.7084  -42.6427 C.ar      10 UNK        -0.1009 
     11 C11        18.3770  -31.7770  -43.3195 C.ar      10 UNK        -0.0712 
     12 C12        18.3679  -31.7809  -44.7205 C.ar      10 UNK        -0.0894 
     13 C13        17.7881  -30.7292  -45.4380 C.ar      10 UNK        -0.0745 
     14 C14        17.1903  -29.6728  -44.7413 C.ar      10 UNK        -0.0972 
     15 C15        17.8072  -30.7554  -46.9650 C.3       10 UNK         0.0209 
     16 S16        18.3793  -29.1979  -47.7289 S.3       10 UNK        -0.2568 
     17 C17        20.0193  -28.9721  -46.9562 C.3       10 UNK        -0.0983 
     18 CA         20.6552  -27.5816  -47.2368 C.3       3 UNK         0.0876 
     19 N          19.6986  -26.5016  -46.9737 N.am      3 UNK        -0.4424 
     20 C          19.6922  -25.2811  -47.5245 C.2       2 UNK         0.4918 
     21 O          20.4766  -24.9155  -48.3988 O.2       2 UNK        -0.4875 
     22 CA         18.6615  -24.2854  -46.9485 C.3       2 UNK         0.0481 
     23 CB         17.3767  -24.2980  -47.7911 C.3       2 UNK        -0.1831 
     24 N          18.3281  -24.5565  -45.5404 N.am      2 UNK        -0.4498 
     25 C          19.2184  -24.5191  -44.5362 C.2       1 UNK         0.5027 
     26 O          20.3757  -24.1193  -44.6857 O.2       1 UNK        -0.4969 
     27 C          21.9551  -27.4280  -46.4062 C.2       3 UNK         0.5005 
     28 O          22.7899  -28.3343  -46.4344 O.2       3 UNK        -0.5279 
     29 N          22.0808  -26.3386  -45.6279 N.am      4 UNK        -0.4463 
     30 CA         23.0254  -26.0931  -44.5322 C.3       4 UNK         0.0283 
     31 CB         24.5025  -26.1900  -44.9679 C.3       4 UNK        -0.1875 
     32 C          22.6943  -26.9809  -43.3244 C.2       4 UNK         0.4949 
     33 O          22.1899  -26.4741  -42.3205 O.2       4 UNK        -0.5039 
     34 N          22.9371  -28.2900  -43.4695 N.am      5 UNK        -0.4663 
     35 CA         22.6523  -29.4038  -42.5545 C.3       5 UNK         0.0242 
     36 CB         21.1363  -29.5543  -42.3232 C.3       5 UNK        -0.1982 
     37 C          23.4068  -29.3734  -41.2135 C.2       5 UNK         0.5017 
     38 O          23.9427  -30.4062  -40.8103 O.2       5 UNK        -0.5012 
     39 N          23.4129  -28.2164  -40.5378 N.am      6 UNK        -0.4439 
     40 CA         23.9993  -27.9554  -39.2163 C.3       6 UNK         0.0297 
     41 CB         25.5401  -27.9884  -39.2950 C.3       6 UNK        -0.2006 
     42 C          23.4370  -28.8839  -38.1192 C.2       6 UNK         0.4892 
     43 O          24.1928  -29.3761  -37.2797 O.2       6 UNK        -0.5089 
     44 N          22.1209  -29.1422  -38.1837 N.am      7 UNK        -0.4243 
     45 CA         21.3028  -30.0369  -37.3472 C.3       7 UNK         0.0196 
     46 CB         21.3336  -29.6123  -35.8660 C.3       7 UNK        -0.2007 
     47 C          21.6171  -31.5391  -37.4974 C.2       7 UNK         0.5020 
     48 O          20.6893  -32.3477  -37.4838 O.2       7 UNK        -0.5147 
     49 N          22.8981  -31.8940  -37.6502 N.am      8 UNK        -0.4734 
     50 CA         23.3892  -33.2631  -37.8397 C.3       8 UNK         0.0238 
     51 CB         24.9077  -33.2791  -37.6006 C.3       8 UNK        -0.1912 
     52 C          23.0623  -33.8589  -39.2219 C.2       8 UNK         0.5038 
     53 O          23.0915  -35.0815  -39.3684 O.2       8 UNK        -0.5046 
     54 N          22.7703  -32.9941  -40.2003 N.am      9 UNK        -0.4200 
     55 CA         22.5595  -33.3174  -41.6166 C.3       9 UNK         0.0839 
     56 C          23.8812  -33.6891  -42.3489 C.2       9 UNK         0.5513 
     57 N          24.9634  -32.9669  -42.0846 N.am      9 UNK        -0.7519 
     58 O          23.9379  -34.6162  -43.1527 O.2       9 UNK        -0.4960 
     59 C59        21.3672  -34.2893  -41.8634 C.3       10 UNK        -0.0876 
     60 S60        20.3887  -33.7698  -43.3130 S.3       10 UNK        -0.2414 
     61 C61        19.0008  -32.9058  -42.4985 C.3       10 UNK         0.0169 
     62 H62        20.5726  -23.3791  -39.4562 H         1 UNK         0.0903 
     63 H63        21.6243  -24.3533  -40.4861 H         1 UNK         0.0903 
     64 H64        21.5201  -22.6094  -40.7332 H         1 UNK         0.0903 
     65 H65        20.5293  -25.4667  -42.0694 H         1 UNK         0.3096 
     66 H66        17.8119  -24.6755  -42.9264 H         1 UNK         0.1121 
     67 H67        17.9500  -26.8926  -44.1847 H         1 UNK         0.0849 
     68 H68        19.5414  -27.1527  -43.5243 H         1 UNK         0.0849 
     69 H69        15.9396  -28.8854  -41.7812 H         1 UNK         0.0865 
     70 H70        15.9121  -27.9060  -43.2234 H         1 UNK         0.0865 
     71 H71        17.7824  -30.6898  -41.5612 H         1 UNK         0.1346 
     72 H72        18.8145  -32.6043  -45.2598 H         1 UNK         0.1412 
     73 H73        16.7320  -28.8629  -45.2918 H         1 UNK         0.1426 
     74 H74        16.7999  -30.9712  -47.3232 H         1 UNK         0.0716 
     75 H75        18.4422  -31.5650  -47.3281 H         1 UNK         0.0716 
     76 H76        20.6723  -29.7706  -47.3136 H         1 UNK         0.0695 
     77 H77        19.9159  -29.1230  -45.8798 H         1 UNK         0.0695 
     78 H78        20.9416  -27.5415  -48.2900 H         1 UNK         0.0983 
     79 H79        18.9775  -26.7200  -46.3049 H         1 UNK         0.3095 
     80 H80        19.0983  -23.2861  -47.0042 H         1 UNK         0.0454 
     81 H81        17.5944  -24.0720  -48.8360 H         1 UNK         0.0851 
     82 H82        16.6648  -23.5496  -47.4427 H         1 UNK         0.0851 
     83 H83        16.8835  -25.2706  -47.7656 H         1 UNK         0.0851 
     84 H84        17.3843  -24.8648  -45.3520 H         1 UNK         0.2976 
     85 H85        21.3433  -25.6444  -45.6772 H         1 UNK         0.3116 
     86 H86        22.8562  -25.0622  -44.2176 H         1 UNK         0.0646 
     87 H87        24.7898  -27.1936  -45.2800 H         1 UNK         0.0847 
     88 H88        24.7120  -25.5130  -45.7959 H         1 UNK         0.0847 
     89 H89        25.1637  -25.9097  -44.1470 H         1 UNK         0.0847 
     90 H90        23.3048  -28.5666  -44.3742 H         1 UNK         0.3040 
     91 H91        22.9938  -30.2983  -43.0777 H         1 UNK         0.1015 
     92 H92        20.9148  -30.4216  -41.7009 H         1 UNK         0.0786 
     93 H93        20.6047  -29.6901  -43.2653 H         1 UNK         0.0786 
     94 H94        20.7084  -28.6856  -41.8228 H         1 UNK         0.0786 
     95 H95        22.9380  -27.4347  -40.9883 H         1 UNK         0.3172 
     96 H96        23.7022  -26.9422  -38.9418 H         1 UNK         0.0595 
     97 H97        25.9122  -28.9884  -39.5211 H         1 UNK         0.0839 
     98 H98        25.9873  -27.6819  -38.3486 H         1 UNK         0.0839 
     99 H99        25.9128  -27.3106  -40.0627 H         1 UNK         0.0839 
    100 H100       21.6173  -28.6988  -38.9393 H         1 UNK         0.2998 
    101 H101       20.2786  -29.9043  -37.7002 H         1 UNK         0.0822 
    102 H102       20.6378  -30.2110  -35.2766 H         1 UNK         0.0787 
    103 H103       21.0442  -28.5683  -35.7464 H         1 UNK         0.0787 
    104 H104       22.3220  -29.7398  -35.4236 H         1 UNK         0.0787 
    105 H105       23.5904  -31.1499  -37.6089 H         1 UNK         0.3055 
    106 H106       22.9134  -33.9023  -37.0926 H         1 UNK         0.1106 
    107 H107       25.1554  -32.9359  -36.5960 H         1 UNK         0.0828 
    108 H108       25.3106  -34.2875  -37.7057 H         1 UNK         0.0828 
    109 H109       25.4336  -32.6414  -38.3127 H         1 UNK         0.0828 
    110 H110       22.8707  -32.0073  -39.9971 H         1 UNK         0.2931 
    111 H111       22.2827  -32.3568  -42.0475 H         1 UNK         0.0412 
    112 H112       24.8957  -32.1659  -41.4683 H         1 UNK         0.3472 
    113 H113       25.8341  -33.1854  -42.5424 H         1 UNK         0.3472 
    114 H114       21.7070  -35.3172  -42.0014 H         1 UNK         0.0970 
    115 H115       20.7086  -34.3251  -40.9944 H         1 UNK         0.0970 
    116 H116       19.3569  -32.4948  -41.5524 H         1 UNK         0.0612 
    117 H117       18.2285  -33.6347  -42.2507 H         1 UNK         0.0612 
@<TRIPOS>BOND
     1    1    2 1    
     2    1   62 1    
     3    1   63 1    
     4    1   64 1    
     5    2    3 2    
     6    2    4 am   BACKBONE|DICT|INTERRES
     7    4    5 1    
     8    4   65 1    
     9    5    6 1    
    10    5   25 1    
    11    5   66 1    
    12    6    7 1    
    13    6   67 1    
    14    6   68 1    
    15    7    8 1    
    16    8    9 1    
    17    8   69 1    
    18    8   70 1    
    19    9   10 ar   
    20    9   14 ar   
    21   10   11 ar   
    22   10   71 1    
    23   11   12 ar   
    24   11   61 1    
    25   12   13 ar   
    26   12   72 1    
    27   13   14 ar   
    28   13   15 1    
    29   14   73 1    
    30   15   16 1    
    31   15   74 1    
    32   15   75 1    
    33   16   17 1    
    34   17   18 1    
    35   17   76 1    
    36   17   77 1    
    37   18   19 1    
    38   18   27 1    
    39   18   78 1    
    40   19   20 am   BACKBONE|DICT|INTERRES
    41   19   79 1    
    42   20   21 2    
    43   20   22 1    
    44   22   23 1    
    45   22   24 1    
    46   22   80 1    
    47   23   81 1    
    48   23   82 1    
    49   23   83 1    
    50   24   25 am   BACKBONE|DICT|INTERRES
    51   24   84 1    
    52   25   26 2    
    53   27   28 2    
    54   27   29 am   BACKBONE|DICT|INTERRES
    55   29   30 1    
    56   29   85 1    
    57   30   31 1    
    58   30   32 1    
    59   30   86 1    
    60   31   87 1    
    61   31   88 1    
    62   31   89 1    
    63   32   33 2    
    64   32   34 am   BACKBONE|DICT|INTERRES
    65   34   35 1    
    66   34   90 1    
    67   35   36 1    
    68   35   37 1    
    69   35   91 1    
    70   36   92 1    
    71   36   93 1    
    72   36   94 1    
    73   37   38 2    
    74   37   39 am   BACKBONE|DICT|INTERRES
    75   39   40 1    
    76   39   95 1    
    77   40   41 1    
    78   40   42 1    
    79   40   96 1    
    80   41   97 1    
    81   41   98 1    
    82   41   99 1    
    83   42   43 2    
    84   42   44 am   BACKBONE|DICT|INTERRES
    85   44   45 1    
    86   44  100 1    
    87   45   46 1    
    88   45   47 1    
    89   45  101 1    
    90   46  102 1    
    91   46  103 1    
    92   46  104 1    
    93   47   48 2    
    94   47   49 am   BACKBONE|DICT|INTERRES
    95   49   50 1    
    96   49  105 1    
    97   50   51 1    
    98   50   52 1    
    99   50  106 1    
   100   51  107 1    
   101   51  108 1    
   102   51  109 1    
   103   52   53 2    
   104   52   54 am   BACKBONE|DICT|INTERRES
   105   54   55 1    
   106   54  110 1    
   107   55   56 1    
   108   55   59 1    
   109   55  111 1    
   110   56   57 am   BACKBONE|DICT|INTERRES
   111   56   58 2    
   112   57  112 1    
   113   57  113 1    
   114   59   60 1    
   115   59  114 1    
   116   59  115 1    
   117   60   61 1    
   118   61  116 1    
   119   61  117 1    
@<TRIPOS>SUBSTRUCTURE
     1 UNK         1 GROUP             0       ****    0 ROOT    
