@<TRIPOS>MOLECULE
3R8
117   119    1
SMALL
USER_CHARGES


@<TRIPOS>ATOM
      1 CA         20.0025  -27.4176  -42.5750 C.3       0 UNK        -0.2013 
      2 C          18.5869  -26.8681  -42.5920 C.2       0 UNK         0.4866 
      3 O          18.3173  -25.8677  -41.9285 O.2       0 UNK        -0.5176 
      4 N          17.6807  -27.5074  -43.3456 N.am      1 UNK        -0.4884 
      5 CA         16.2662  -27.1169  -43.4683 C.3       1 UNK         0.0853 
      6 C6         15.4252  -28.1856  -44.2069 C.3       10 UNK        -0.0849 
      7 S7         15.4977  -29.8156  -43.3889 S.3       10 UNK        -0.2776 
      8 C8         16.1803  -30.8740  -44.7052 C.3       10 UNK         0.0316 
      9 C9         17.6710  -30.6490  -44.9225 C.ar      10 UNK        -0.0863 
     10 C10        18.5972  -31.2025  -44.0329 C.ar      10 UNK        -0.1009 
     11 C11        19.9702  -31.0546  -44.2516 C.ar      10 UNK        -0.0712 
     12 C12        20.4145  -30.3387  -45.3679 C.ar      10 UNK        -0.0894 
     13 C13        19.4996  -29.7924  -46.2735 C.ar      10 UNK        -0.0745 
     14 C14        18.1285  -29.9446  -46.0414 C.ar      10 UNK        -0.0972 
     15 C15        19.9921  -29.1046  -47.5410 C.3       10 UNK         0.0209 
     16 S16        19.6599  -27.3168  -47.5519 S.3       10 UNK        -0.2568 
     17 C17        20.8734  -26.7159  -46.3312 C.3       10 UNK        -0.0983 
     18 CA         20.8154  -25.1791  -46.0799 C.3       3 UNK         0.0876 
     19 N          19.4786  -24.7560  -45.6679 N.am      3 UNK        -0.4424 
     20 C          18.5327  -24.2216  -46.4478 C.2       2 UNK         0.4918 
     21 O          18.7229  -23.8377  -47.6029 O.2       2 UNK        -0.4875 
     22 CA         17.1187  -24.2096  -45.8432 C.3       2 UNK         0.0481 
     23 CB         16.0093  -23.9716  -46.8864 C.3       2 UNK        -0.1831 
     24 N          16.9191  -25.4902  -45.1654 N.am      2 UNK        -0.4498 
     25 C          16.0977  -25.7376  -44.1407 C.2       1 UNK         0.5027 
     26 O          15.2715  -24.9341  -43.7060 O.2       1 UNK        -0.4969 
     27 C          21.8063  -24.7802  -44.9698 C.2       3 UNK         0.5005 
     28 O          21.3914  -24.2665  -43.9256 O.2       3 UNK        -0.5279 
     29 N          23.0959  -25.0747  -45.1811 N.am      4 UNK        -0.4463 
     30 CA         24.1062  -25.0911  -44.1202 C.3       4 UNK         0.0283 
     31 CB         25.5058  -25.1712  -44.7508 C.3       4 UNK        -0.1875 
     32 C          23.8701  -26.2851  -43.1760 C.2       4 UNK         0.4949 
     33 O          23.4470  -27.3480  -43.6367 O.2       4 UNK        -0.5039 
     34 N          24.1494  -26.0887  -41.8822 N.am      5 UNK        -0.4663 
     35 CA         24.0047  -27.1102  -40.8408 C.3       5 UNK         0.0242 
     36 CB         24.1166  -26.4359  -39.4633 C.3       5 UNK        -0.1982 
     37 C          25.0414  -28.2400  -40.9757 C.2       5 UNK         0.5017 
     38 O          26.1305  -28.0178  -41.5124 O.2       5 UNK        -0.5012 
     39 N          24.6954  -29.4190  -40.4528 N.am      6 UNK        -0.4439 
     40 CA         25.5156  -30.6295  -40.4673 C.3       6 UNK         0.0297 
     41 CB         25.3548  -31.3466  -41.8234 C.3       6 UNK        -0.2006 
     42 C          25.0979  -31.5322  -39.2999 C.2       6 UNK         0.4892 
     43 O          24.1560  -31.2043  -38.5782 O.2       6 UNK        -0.5089 
     44 N          25.7671  -32.6829  -39.1478 N.am      7 UNK        -0.4243 
     45 CA         25.4483  -33.6978  -38.1320 C.3       7 UNK         0.0196 
     46 CB         26.4981  -34.8193  -38.1896 C.3       7 UNK        -0.2007 
     47 C          24.0263  -34.2848  -38.2527 C.2       7 UNK         0.5020 
     48 O          23.4658  -34.7274  -37.2500 O.2       7 UNK        -0.5147 
     49 N          23.4672  -34.2627  -39.4693 N.am      8 UNK        -0.4734 
     50 CA         22.1042  -34.6961  -39.7800 C.3       8 UNK         0.0238 
     51 CB         22.0866  -35.2382  -41.2205 C.3       8 UNK        -0.1912 
     52 C          21.0474  -33.5852  -39.6180 C.2       8 UNK         0.5038 
     53 O          19.8611  -33.8848  -39.7638 O.2       8 UNK        -0.5046 
     54 N          21.4613  -32.3371  -39.3615 N.am      9 UNK        -0.4200 
     55 CA         20.5845  -31.1599  -39.3586 C.3       9 UNK         0.0839 
     56 C          21.2202  -30.0077  -38.5413 C.2       9 UNK         0.5513 
     57 N          20.9272  -29.9270  -37.2505 N.am      9 UNK        -0.7519 
     58 O          21.9651  -29.1821  -39.0636 O.2       9 UNK        -0.4960 
     59 C59        20.1331  -30.7377  -40.7874 C.3       10 UNK        -0.0876 
     60 S60        21.5028  -30.5758  -41.9930 S.3       10 UNK        -0.2414 
     61 C61        20.9785  -31.7064  -43.3148 C.3       10 UNK         0.0169 
     62 H62        20.1084  -28.2870  -43.2219 H         1 UNK         0.0903 
     63 H63        20.7077  -26.6602  -42.9100 H         1 UNK         0.0903 
     64 H64        20.2853  -27.7036  -41.5629 H         1 UNK         0.0903 
     65 H65        17.9428  -28.3527  -43.8366 H         1 UNK         0.3096 
     66 H66        15.8701  -27.0207  -42.4546 H         1 UNK         0.1121 
     67 H67        14.3764  -27.8835  -44.2416 H         1 UNK         0.0849 
     68 H68        15.7448  -28.2773  -45.2464 H         1 UNK         0.0849 
     69 H69        16.0147  -31.9174  -44.4324 H         1 UNK         0.0865 
     70 H70        15.6220  -30.7169  -45.6296 H         1 UNK         0.0865 
     71 H71        18.2449  -31.7676  -43.1811 H         1 UNK         0.1346 
     72 H72        21.4764  -30.2323  -45.5444 H         1 UNK         0.1412 
     73 H73        17.4212  -29.5367  -46.7509 H         1 UNK         0.1426 
     74 H74        21.0602  -29.2726  -47.6885 H         1 UNK         0.0716 
     75 H75        19.4946  -29.5549  -48.4011 H         1 UNK         0.0716 
     76 H76        21.8630  -27.0115  -46.6835 H         1 UNK         0.0695 
     77 H77        20.7088  -27.2617  -45.4010 H         1 UNK         0.0695 
     78 H78        21.1074  -24.6482  -46.9886 H         1 UNK         0.0983 
     79 H79        19.2793  -24.9015  -44.6877 H         1 UNK         0.3095 
     80 H80        17.0899  -23.4053  -45.1054 H         1 UNK         0.0454 
     81 H81        15.0227  -23.9566  -46.4236 H         1 UNK         0.0851 
     82 H82        16.0084  -24.7469  -47.6535 H         1 UNK         0.0851 
     83 H83        16.1439  -23.0130  -47.3887 H         1 UNK         0.0851 
     84 H84        17.5565  -26.2240  -45.4465 H         1 UNK         0.2976 
     85 H85        23.3565  -25.5193  -46.0495 H         1 UNK         0.3116 
     86 H86        24.0318  -24.1621  -43.5505 H         1 UNK         0.0646 
     87 H87        25.6953  -24.3237  -45.4097 H         1 UNK         0.0847 
     88 H88        26.2799  -25.1630  -43.9822 H         1 UNK         0.0847 
     89 H89        25.6361  -26.0858  -45.3310 H         1 UNK         0.0847 
     90 H90        24.5278  -25.1984  -41.5929 H         1 UNK         0.3040 
     91 H91        23.0086  -27.5491  -40.9390 H         1 UNK         0.1015 
     92 H92        25.0939  -25.9741  -39.3172 H         1 UNK         0.0786 
     93 H93        23.9754  -27.1621  -38.6613 H         1 UNK         0.0786 
     94 H94        23.3553  -25.6662  -39.3351 H         1 UNK         0.0786 
     95 H95        23.8145  -29.5047  -39.9476 H         1 UNK         0.3172 
     96 H96        26.5624  -30.3577  -40.3174 H         1 UNK         0.0595 
     97 H97        24.3310  -31.6885  -41.9787 H         1 UNK         0.0839 
     98 H98        26.0067  -32.2173  -41.8974 H         1 UNK         0.0839 
     99 H99        25.6115  -30.6883  -42.6537 H         1 UNK         0.0839 
    100 H100       26.5351  -32.8891  -39.7709 H         1 UNK         0.2998 
    101 H101       25.5147  -33.2162  -37.1539 H         1 UNK         0.0822 
    102 H102       27.5021  -34.4342  -38.0101 H         1 UNK         0.0787 
    103 H103       26.3031  -35.5759  -37.4279 H         1 UNK         0.0787 
    104 H104       26.4978  -35.3236  -39.1568 H         1 UNK         0.0787 
    105 H105       24.0082  -33.8846  -40.2331 H         1 UNK         0.3055 
    106 H106       21.8210  -35.5080  -39.1060 H         1 UNK         0.1106 
    107 H107       22.7883  -36.0635  -41.3430 H         1 UNK         0.0828 
    108 H108       21.0983  -35.6162  -41.4863 H         1 UNK         0.0828 
    109 H109       22.3448  -34.4658  -41.9462 H         1 UNK         0.0828 
    110 H110       22.4424  -32.1452  -39.1875 H         1 UNK         0.2931 
    111 H111       19.6747  -31.4390  -38.8222 H         1 UNK         0.0412 
    112 H112       20.3244  -30.6038  -36.8089 H         1 UNK         0.3472 
    113 H113       21.3345  -29.1843  -36.7043 H         1 UNK         0.3472 
    114 H114       19.5782  -29.7998  -40.7516 H         1 UNK         0.0970 
    115 H115       19.4182  -31.4726  -41.1563 H         1 UNK         0.0970 
    116 H116       21.8618  -32.0070  -43.8800 H         1 UNK         0.0612 
    117 H117       20.5722  -32.6227  -42.8837 H         1 UNK         0.0612 
@<TRIPOS>BOND
     1    1    2 1    
     2    1   62 1    
     3    1   63 1    
     4    1   64 1    
     5    2    3 2    
     6    2    4 am   BACKBONE|DICT|INTERRES
     7    4    5 1    
     8    4   65 1    
     9    5    6 1    
    10    5   25 1    
    11    5   66 1    
    12    6    7 1    
    13    6   67 1    
    14    6   68 1    
    15    7    8 1    
    16    8    9 1    
    17    8   69 1    
    18    8   70 1    
    19    9   10 ar   
    20    9   14 ar   
    21   10   11 ar   
    22   10   71 1    
    23   11   12 ar   
    24   11   61 1    
    25   12   13 ar   
    26   12   72 1    
    27   13   14 ar   
    28   13   15 1    
    29   14   73 1    
    30   15   16 1    
    31   15   74 1    
    32   15   75 1    
    33   16   17 1    
    34   17   18 1    
    35   17   76 1    
    36   17   77 1    
    37   18   19 1    
    38   18   27 1    
    39   18   78 1    
    40   19   20 am   BACKBONE|DICT|INTERRES
    41   19   79 1    
    42   20   21 2    
    43   20   22 1    
    44   22   23 1    
    45   22   24 1    
    46   22   80 1    
    47   23   81 1    
    48   23   82 1    
    49   23   83 1    
    50   24   25 am   BACKBONE|DICT|INTERRES
    51   24   84 1    
    52   25   26 2    
    53   27   28 2    
    54   27   29 am   BACKBONE|DICT|INTERRES
    55   29   30 1    
    56   29   85 1    
    57   30   31 1    
    58   30   32 1    
    59   30   86 1    
    60   31   87 1    
    61   31   88 1    
    62   31   89 1    
    63   32   33 2    
    64   32   34 am   BACKBONE|DICT|INTERRES
    65   34   35 1    
    66   34   90 1    
    67   35   36 1    
    68   35   37 1    
    69   35   91 1    
    70   36   92 1    
    71   36   93 1    
    72   36   94 1    
    73   37   38 2    
    74   37   39 am   BACKBONE|DICT|INTERRES
    75   39   40 1    
    76   39   95 1    
    77   40   41 1    
    78   40   42 1    
    79   40   96 1    
    80   41   97 1    
    81   41   98 1    
    82   41   99 1    
    83   42   43 2    
    84   42   44 am   BACKBONE|DICT|INTERRES
    85   44   45 1    
    86   44  100 1    
    87   45   46 1    
    88   45   47 1    
    89   45  101 1    
    90   46  102 1    
    91   46  103 1    
    92   46  104 1    
    93   47   48 2    
    94   47   49 am   BACKBONE|DICT|INTERRES
    95   49   50 1    
    96   49  105 1    
    97   50   51 1    
    98   50   52 1    
    99   50  106 1    
   100   51  107 1    
   101   51  108 1    
   102   51  109 1    
   103   52   53 2    
   104   52   54 am   BACKBONE|DICT|INTERRES
   105   54   55 1    
   106   54  110 1    
   107   55   56 1    
   108   55   59 1    
   109   55  111 1    
   110   56   57 am   BACKBONE|DICT|INTERRES
   111   56   58 2    
   112   57  112 1    
   113   57  113 1    
   114   59   60 1    
   115   59  114 1    
   116   59  115 1    
   117   60   61 1    
   118   61  116 1    
   119   61  117 1    
@<TRIPOS>SUBSTRUCTURE
     1 UNK         1 GROUP             0       ****    0 ROOT    
