@<TRIPOS>MOLECULE
3R8
117   119    1
SMALL
USER_CHARGES


@<TRIPOS>ATOM
      1 CA         14.7338  -22.5028  -44.9503 C.3       0 UNK        -0.2013 
      2 C          15.7989  -23.3661  -45.6093 C.2       0 UNK         0.4866 
      3 O          16.8700  -22.8646  -45.9505 O.2       0 UNK        -0.5176 
      4 N          15.5147  -24.6622  -45.7907 N.am      1 UNK        -0.4884 
      5 CA         16.4270  -25.6462  -46.3903 C.3       1 UNK         0.0853 
      6 C6         15.6618  -26.8960  -46.8993 C.3       10 UNK        -0.0849 
      7 S7         14.7087  -27.7691  -45.6015 S.3       10 UNK        -0.2776 
      8 C8         15.2986  -29.4864  -45.7674 C.3       10 UNK         0.0316 
      9 C9         16.6472  -29.7261  -45.0976 C.ar      10 UNK        -0.0863 
     10 C10        16.7231  -29.8835  -43.7097 C.ar      10 UNK        -0.1009 
     11 C11        17.9394  -30.1790  -43.0838 C.ar      10 UNK        -0.0712 
     12 C12        19.0878  -30.3214  -43.8727 C.ar      10 UNK        -0.0894 
     13 C13        19.0335  -30.1492  -45.2583 C.ar      10 UNK        -0.0745 
     14 C14        17.8097  -29.8494  -45.8650 C.ar      10 UNK        -0.0972 
     15 C15        20.2886  -30.3249  -46.1042 C.3       10 UNK         0.0209 
     16 S16        21.2864  -28.8019  -46.2021 S.3       10 UNK        -0.2568 
     17 C17        22.1423  -28.7984  -44.5894 C.3       10 UNK        -0.0983 
     18 CA         21.7763  -27.6007  -43.6717 C.3       3 UNK         0.0876 
     19 N          20.3270  -27.4119  -43.5411 N.am      3 UNK        -0.4424 
     20 C          19.7176  -26.2721  -43.1956 C.2       2 UNK         0.4918 
     21 O          20.3047  -25.2122  -42.9739 O.2       2 UNK        -0.4875 
     22 CA         18.1915  -26.3621  -43.0201 C.3       2 UNK         0.0481 
     23 CB         17.7398  -25.6523  -41.7322 C.3       2 UNK        -0.1831 
     24 N          17.3951  -25.8638  -44.1435 N.am      2 UNK        -0.4498 
     25 C          17.5876  -26.0549  -45.4592 C.2       1 UNK         0.5027 
     26 O          18.5920  -26.5558  -45.9611 O.2       1 UNK        -0.4969 
     27 C          22.4740  -27.7714  -42.3028 C.2       3 UNK         0.5005 
     28 O          23.6985  -27.8849  -42.2791 O.2       3 UNK        -0.5279 
     29 N          21.6951  -27.8050  -41.2072 N.am      4 UNK        -0.4463 
     30 CA         22.0535  -28.1663  -39.8283 C.3       4 UNK         0.0283 
     31 CB         20.8660  -27.8460  -38.9065 C.3       4 UNK        -0.1875 
     32 C          23.3477  -27.5575  -39.2596 C.2       4 UNK         0.4949 
     33 O          23.9978  -28.2062  -38.4399 O.2       4 UNK        -0.5039 
     34 N          23.7363  -26.3636  -39.7290 N.am      5 UNK        -0.4663 
     35 CA         25.0246  -25.7237  -39.4312 C.3       5 UNK         0.0242 
     36 CB         25.0395  -24.3158  -40.0475 C.3       5 UNK        -0.1982 
     37 C          26.2509  -26.5328  -39.9064 C.2       5 UNK         0.5017 
     38 O          27.3263  -26.3882  -39.3246 O.2       5 UNK        -0.5012 
     39 N          26.0616  -27.3774  -40.9283 N.am      6 UNK        -0.4439 
     40 CA         27.0281  -28.3402  -41.4544 C.3       6 UNK         0.0297 
     41 CB         27.3360  -27.9797  -42.9195 C.3       6 UNK        -0.2006 
     42 C          26.4963  -29.7822  -41.3156 C.2       6 UNK         0.4892 
     43 O          26.9270  -30.6571  -42.0686 O.2       6 UNK        -0.5089 
     44 N          25.5844  -30.0079  -40.3554 N.am      7 UNK        -0.4243 
     45 CA         24.8968  -31.2652  -40.0489 C.3       7 UNK         0.0196 
     46 CB         25.8868  -32.3240  -39.5096 C.3       7 UNK        -0.2007 
     47 C          24.0205  -31.7478  -41.2211 C.2       7 UNK         0.5020 
     48 O          23.0089  -31.1106  -41.5119 O.2       7 UNK        -0.5147 
     49 N          24.3825  -32.8835  -41.8343 N.am      8 UNK        -0.4734 
     50 CA         23.6860  -33.6144  -42.9051 C.3       8 UNK         0.0238 
     51 CB         23.4812  -32.7479  -44.1644 C.3       8 UNK        -0.1912 
     52 C          22.3714  -34.2698  -42.4454 C.2       8 UNK         0.5038 
     53 O          22.2338  -35.4865  -42.5765 O.2       8 UNK        -0.5046 
     54 N          21.4497  -33.4698  -41.8973 N.am      9 UNK        -0.4200 
     55 CA         20.1935  -33.9228  -41.2782 C.3       9 UNK         0.0839 
     56 C          20.3325  -34.3656  -39.7918 C.2       9 UNK         0.5513 
     57 N          21.4993  -34.2528  -39.1675 N.am      9 UNK        -0.7519 
     58 O          19.3672  -34.8417  -39.1996 O.2       9 UNK        -0.4960 
     59 C59        19.0407  -32.9069  -41.4934 C.3       10 UNK        -0.0876 
     60 S60        19.3917  -31.2266  -40.8679 S.3       10 UNK        -0.2414 
     61 C61        17.9705  -30.3086  -41.5581 C.3       10 UNK         0.0169 
     62 H62        13.8393  -23.0747  -44.7040 H         1 UNK         0.0903 
     63 H63        15.1211  -22.0660  -44.0301 H         1 UNK         0.0903 
     64 H64        14.4438  -21.6911  -45.6169 H         1 UNK         0.0903 
     65 H65        14.6184  -25.0285  -45.4985 H         1 UNK         0.3096 
     66 H66        16.8921  -25.1746  -47.2595 H         1 UNK         0.1121 
     67 H67        16.3519  -27.5890  -47.3843 H         1 UNK         0.0849 
     68 H68        14.9610  -26.5969  -47.6802 H         1 UNK         0.0849 
     69 H69        14.5591  -30.1486  -45.3146 H         1 UNK         0.0865 
     70 H70        15.3333  -29.7624  -46.8225 H         1 UNK         0.0865 
     71 H71        15.8255  -29.7799  -43.1148 H         1 UNK         0.1346 
     72 H72        20.0321  -30.5673  -43.4111 H         1 UNK         0.1412 
     73 H73        17.7611  -29.7290  -46.9386 H         1 UNK         0.1426 
     74 H74        20.8967  -31.1433  -45.7158 H         1 UNK         0.0716 
     75 H75        20.0104  -30.6175  -47.1178 H         1 UNK         0.0716 
     76 H76        23.2137  -28.7868  -44.7990 H         1 UNK         0.0695 
     77 H77        21.9639  -29.7438  -44.0787 H         1 UNK         0.0695 
     78 H78        22.1904  -26.6972  -44.1247 H         1 UNK         0.0983 
     79 H79        19.7560  -28.2067  -43.7978 H         1 UNK         0.3095 
     80 H80        17.9316  -27.4138  -42.9086 H         1 UNK         0.0454 
     81 H81        17.8782  -24.5723  -41.7981 H         1 UNK         0.0851 
     82 H82        18.3100  -26.0013  -40.8701 H         1 UNK         0.0851 
     83 H83        16.6880  -25.8437  -41.5191 H         1 UNK         0.0851 
     84 H84        16.5253  -25.4180  -43.8926 H         1 UNK         0.2976 
     85 H85        20.7075  -27.6913  -41.3739 H         1 UNK         0.3116 
     86 H86        22.1917  -29.2484  -39.8228 H         1 UNK         0.0646 
     87 H87        19.9737  -28.3997  -39.1996 H         1 UNK         0.0847 
     88 H88        21.0863  -28.1208  -37.8739 H         1 UNK         0.0847 
     89 H89        20.6231  -26.7828  -38.9162 H         1 UNK         0.0847 
     90 H90        23.1490  -25.9112  -40.4149 H         1 UNK         0.3040 
     91 H91        25.1039  -25.6270  -38.3461 H         1 UNK         0.1015 
     92 H92        24.9404  -24.3500  -41.1333 H         1 UNK         0.0786 
     93 H93        25.9743  -23.8006  -39.8216 H         1 UNK         0.0786 
     94 H94        24.2299  -23.7007  -39.6541 H         1 UNK         0.0786 
     95 H95        25.1305  -27.4413  -41.3461 H         1 UNK         0.3172 
     96 H96        27.9587  -28.2935  -40.8859 H         1 UNK         0.0595 
     97 H97        26.4480  -28.0679  -43.5471 H         1 UNK         0.0839 
     98 H98        28.0995  -28.6377  -43.3364 H         1 UNK         0.0839 
     99 H99        27.7083  -26.9590  -43.0065 H         1 UNK         0.0839 
    100 H100       25.2813  -29.2153  -39.8012 H         1 UNK         0.2998 
    101 H101       24.2024  -31.0343  -39.2394 H         1 UNK         0.0822 
    102 H102       25.3670  -33.2376  -39.2177 H         1 UNK         0.0787 
    103 H103       26.6510  -32.5940  -40.2390 H         1 UNK         0.0787 
    104 H104       26.4009  -31.9560  -38.6215 H         1 UNK         0.0787 
    105 H105       25.2320  -33.3219  -41.5051 H         1 UNK         0.3055 
    106 H106       24.3558  -34.4295  -43.1852 H         1 UNK         0.1106 
    107 H107       23.0866  -33.3462  -44.9865 H         1 UNK         0.0828 
    108 H108       22.7773  -31.9347  -43.9941 H         1 UNK         0.0828 
    109 H109       24.4210  -32.3108  -44.5019 H         1 UNK         0.0828 
    110 H110       21.6831  -32.4872  -41.7807 H         1 UNK         0.2931 
    111 H111       19.8851  -34.8295  -41.8022 H         1 UNK         0.0412 
    112 H112       21.5769  -34.5511  -38.2077 H         1 UNK         0.3472 
    113 H113       22.2982  -33.8744  -39.6478 H         1 UNK         0.3472 
    114 H114       18.8264  -32.8430  -42.5608 H         1 UNK         0.0970 
    115 H115       18.1173  -33.2662  -41.0353 H         1 UNK         0.0970 
    116 H116       17.0540  -30.7880  -41.2104 H         1 UNK         0.0612 
    117 H117       17.9753  -29.3056  -41.1299 H         1 UNK         0.0612 
@<TRIPOS>BOND
     1    1    2 1    
     2    1   62 1    
     3    1   63 1    
     4    1   64 1    
     5    2    3 2    
     6    2    4 am   BACKBONE|DICT|INTERRES
     7    4    5 1    
     8    4   65 1    
     9    5    6 1    
    10    5   25 1    
    11    5   66 1    
    12    6    7 1    
    13    6   67 1    
    14    6   68 1    
    15    7    8 1    
    16    8    9 1    
    17    8   69 1    
    18    8   70 1    
    19    9   10 ar   
    20    9   14 ar   
    21   10   11 ar   
    22   10   71 1    
    23   11   12 ar   
    24   11   61 1    
    25   12   13 ar   
    26   12   72 1    
    27   13   14 ar   
    28   13   15 1    
    29   14   73 1    
    30   15   16 1    
    31   15   74 1    
    32   15   75 1    
    33   16   17 1    
    34   17   18 1    
    35   17   76 1    
    36   17   77 1    
    37   18   19 1    
    38   18   27 1    
    39   18   78 1    
    40   19   20 am   BACKBONE|DICT|INTERRES
    41   19   79 1    
    42   20   21 2    
    43   20   22 1    
    44   22   23 1    
    45   22   24 1    
    46   22   80 1    
    47   23   81 1    
    48   23   82 1    
    49   23   83 1    
    50   24   25 am   BACKBONE|DICT|INTERRES
    51   24   84 1    
    52   25   26 2    
    53   27   28 2    
    54   27   29 am   BACKBONE|DICT|INTERRES
    55   29   30 1    
    56   29   85 1    
    57   30   31 1    
    58   30   32 1    
    59   30   86 1    
    60   31   87 1    
    61   31   88 1    
    62   31   89 1    
    63   32   33 2    
    64   32   34 am   BACKBONE|DICT|INTERRES
    65   34   35 1    
    66   34   90 1    
    67   35   36 1    
    68   35   37 1    
    69   35   91 1    
    70   36   92 1    
    71   36   93 1    
    72   36   94 1    
    73   37   38 2    
    74   37   39 am   BACKBONE|DICT|INTERRES
    75   39   40 1    
    76   39   95 1    
    77   40   41 1    
    78   40   42 1    
    79   40   96 1    
    80   41   97 1    
    81   41   98 1    
    82   41   99 1    
    83   42   43 2    
    84   42   44 am   BACKBONE|DICT|INTERRES
    85   44   45 1    
    86   44  100 1    
    87   45   46 1    
    88   45   47 1    
    89   45  101 1    
    90   46  102 1    
    91   46  103 1    
    92   46  104 1    
    93   47   48 2    
    94   47   49 am   BACKBONE|DICT|INTERRES
    95   49   50 1    
    96   49  105 1    
    97   50   51 1    
    98   50   52 1    
    99   50  106 1    
   100   51  107 1    
   101   51  108 1    
   102   51  109 1    
   103   52   53 2    
   104   52   54 am   BACKBONE|DICT|INTERRES
   105   54   55 1    
   106   54  110 1    
   107   55   56 1    
   108   55   59 1    
   109   55  111 1    
   110   56   57 am   BACKBONE|DICT|INTERRES
   111   56   58 2    
   112   57  112 1    
   113   57  113 1    
   114   59   60 1    
   115   59  114 1    
   116   59  115 1    
   117   60   61 1    
   118   61  116 1    
   119   61  117 1    
@<TRIPOS>SUBSTRUCTURE
     1 UNK         1 GROUP             0       ****    0 ROOT    
