@<TRIPOS>MOLECULE
3R8
117   119    1
SMALL
USER_CHARGES


@<TRIPOS>ATOM
      1 CA         18.4299  -26.2260  -39.9053 C.3       0 UNK        -0.2013 
      2 C          17.7569  -25.4035  -40.9946 C.2       0 UNK         0.4866 
      3 O          17.5510  -24.2029  -40.8166 O.2       0 UNK        -0.5176 
      4 N          17.4158  -26.0434  -42.1195 N.am      1 UNK        -0.4884 
      5 CA         16.7578  -25.4206  -43.2739 C.3       1 UNK         0.0853 
      6 C6         16.0394  -26.4391  -44.1967 C.3       10 UNK        -0.0849 
      7 S7         14.9382  -27.5557  -43.2544 S.3       10 UNK        -0.2776 
      8 C8         15.1769  -29.1704  -44.0725 C.3       10 UNK         0.0316 
      9 C9         16.6372  -29.5937  -44.2023 C.ar      10 UNK        -0.0863 
     10 C10        17.4977  -29.5822  -43.0991 C.ar      10 UNK        -0.1009 
     11 C11        18.8380  -29.9557  -43.2403 C.ar      10 UNK        -0.0712 
     12 C12        19.3101  -30.3740  -44.4886 C.ar      10 UNK        -0.0894 
     13 C13        18.4532  -30.4128  -45.5921 C.ar      10 UNK        -0.0745 
     14 C14        17.1234  -30.0119  -45.4440 C.ar      10 UNK        -0.0972 
     15 C15        18.9432  -30.9103  -46.9434 C.3       10 UNK         0.0209 
     16 S16        19.5594  -29.5520  -47.9852 S.3       10 UNK        -0.2568 
     17 C17        21.2824  -29.3996  -47.4090 C.3       10 UNK        -0.0983 
     18 CA         21.6344  -27.9704  -46.9234 C.3       3 UNK         0.0876 
     19 N          20.8036  -27.5528  -45.7861 N.am      3 UNK        -0.4424 
     20 C          20.5083  -26.2855  -45.4794 C.2       2 UNK         0.4918 
     21 O          20.9179  -25.3160  -46.1251 O.2       2 UNK        -0.4875 
     22 CA         19.6685  -26.0504  -44.2164 C.3       2 UNK         0.0481 
     23 CB         20.5897  -25.9382  -42.9835 C.3       2 UNK        -0.1831 
     24 N          18.9403  -24.7942  -44.3958 N.am      2 UNK        -0.4498 
     25 C          17.6742  -24.4685  -44.0833 C.2       1 UNK         0.5027 
     26 O          17.2078  -23.3848  -44.4328 O.2       1 UNK        -0.4969 
     27 C          23.1360  -27.8350  -46.5818 C.2       3 UNK         0.5005 
     28 O          23.8571  -28.8358  -46.5711 O.2       3 UNK        -0.5279 
     29 N          23.5742  -26.6052  -46.2705 N.am      4 UNK        -0.4463 
     30 CA         24.9077  -26.1848  -45.8077 C.3       4 UNK         0.0283 
     31 CB         26.0071  -26.5054  -46.8396 C.3       4 UNK        -0.1875 
     32 C          25.2698  -26.7191  -44.4090 C.2       4 UNK         0.4949 
     33 O          25.6126  -25.9281  -43.5298 O.2       4 UNK        -0.5039 
     34 N          25.1532  -28.0374  -44.2170 N.am      5 UNK        -0.4663 
     35 CA         25.1456  -28.7004  -42.9141 C.3       5 UNK         0.0242 
     36 CB         25.3753  -30.2060  -43.1213 C.3       5 UNK        -0.1982 
     37 C          23.8039  -28.4543  -42.2051 C.2       5 UNK         0.5017 
     38 O          22.7935  -28.2356  -42.8754 O.2       5 UNK        -0.5012 
     39 N          23.8150  -28.5208  -40.8716 N.am      6 UNK        -0.4439 
     40 CA         22.6629  -28.3036  -39.9984 C.3       6 UNK         0.0297 
     41 CB         22.6623  -26.8403  -39.5179 C.3       6 UNK        -0.2006 
     42 C          22.7194  -29.2956  -38.8285 C.2       6 UNK         0.4892 
     43 O          23.6685  -30.0809  -38.7446 O.2       6 UNK        -0.5089 
     44 N          21.6986  -29.2493  -37.9594 N.am      7 UNK        -0.4243 
     45 CA         21.4916  -30.0806  -36.7650 C.3       7 UNK         0.0196 
     46 CB         22.5796  -29.8200  -35.6998 C.3       7 UNK        -0.2007 
     47 C          21.3340  -31.5714  -37.1101 C.2       7 UNK         0.5020 
     48 O          20.2060  -32.0496  -37.2253 O.2       7 UNK        -0.5147 
     49 N          22.4620  -32.2688  -37.2927 N.am      8 UNK        -0.4734 
     50 CA         22.5197  -33.6358  -37.8164 C.3       8 UNK         0.0238 
     51 CB         23.8881  -34.2487  -37.4774 C.3       8 UNK        -0.1912 
     52 C          22.2613  -33.6966  -39.3336 C.2       8 UNK         0.5038 
     53 O          21.8409  -34.7448  -39.8243 O.2       8 UNK        -0.5046 
     54 N          22.5145  -32.5818  -40.0365 N.am      9 UNK        -0.4200 
     55 CA         22.2927  -32.3852  -41.4805 C.3       9 UNK         0.0839 
     56 C          23.2355  -33.2172  -42.4016 C.2       9 UNK         0.5513 
     57 N          24.3513  -33.7381  -41.9051 N.am      9 UNK        -0.7519 
     58 O          22.9746  -33.3648  -43.5925 O.2       9 UNK        -0.4960 
     59 C59        20.7942  -32.4981  -41.8933 C.3       10 UNK        -0.0876 
     60 S60        19.7144  -31.3395  -40.9840 S.3       10 UNK        -0.2414 
     61 C61        19.7812  -29.8698  -42.0512 C.3       10 UNK         0.0169 
     62 H62        17.9322  -26.0615  -38.9499 H         1 UNK         0.0903 
     63 H63        18.3967  -27.2934  -40.1205 H         1 UNK         0.0903 
     64 H64        19.4726  -25.9280  -39.8019 H         1 UNK         0.0903 
     65 H65        17.5900  -27.0326  -42.2083 H         1 UNK         0.3096 
     66 H66        15.9708  -24.7851  -42.8601 H         1 UNK         0.1121 
     67 H67        16.7626  -27.0174  -44.7714 H         1 UNK         0.0849 
     68 H68        15.4296  -25.9136  -44.9341 H         1 UNK         0.0849 
     69 H69        14.6406  -29.9332  -43.5066 H         1 UNK         0.0865 
     70 H70        14.6997  -29.1276  -45.0529 H         1 UNK         0.0865 
     71 H71        17.1250  -29.2735  -42.1320 H         1 UNK         0.1346 
     72 H72        20.3427  -30.6746  -44.6003 H         1 UNK         0.1412 
     73 H73        16.4639  -30.0355  -46.3012 H         1 UNK         0.1426 
     74 H74        18.1237  -31.4027  -47.4693 H         1 UNK         0.0716 
     75 H75        19.7141  -31.6723  -46.8186 H         1 UNK         0.0716 
     76 H76        21.9220  -29.6814  -48.2477 H         1 UNK         0.0695 
     77 H77        21.4822  -30.1298  -46.6235 H         1 UNK         0.0695 
     78 H78        21.4460  -27.2924  -47.7592 H         1 UNK         0.0983 
     79 H79        20.4625  -28.2941  -45.1920 H         1 UNK         0.3095 
     80 H80        18.9765  -26.8841  -44.0987 H         1 UNK         0.0454 
     81 H81        20.6372  -26.8888  -42.4545 H         1 UNK         0.0851 
     82 H82        20.2486  -25.1893  -42.2711 H         1 UNK         0.0851 
     83 H83        21.6133  -25.6668  -43.2484 H         1 UNK         0.0851 
     84 H84        19.4597  -24.1344  -44.9606 H         1 UNK         0.2976 
     85 H85        22.8696  -25.8735  -46.2683 H         1 UNK         0.3116 
     86 H86        24.8543  -25.0982  -45.7220 H         1 UNK         0.0646 
     87 H87        26.1458  -27.5781  -46.9763 H         1 UNK         0.0847 
     88 H88        25.7763  -26.0712  -47.8122 H         1 UNK         0.0847 
     89 H89        26.9666  -26.0959  -46.5216 H         1 UNK         0.0847 
     90 H90        24.7915  -28.5740  -45.0028 H         1 UNK         0.3040 
     91 H91        25.9533  -28.2912  -42.3031 H         1 UNK         0.1015 
     92 H92        25.3925  -30.7372  -42.1687 H         1 UNK         0.0786 
     93 H93        26.3284  -30.3970  -43.6148 H         1 UNK         0.0786 
     94 H94        24.5883  -30.6524  -43.7313 H         1 UNK         0.0786 
     95 H95        24.6548  -28.8167  -40.3902 H         1 UNK         0.3172 
     96 H96        21.7394  -28.4991  -40.5428 H         1 UNK         0.0595 
     97 H97        23.5557  -26.6083  -38.9368 H         1 UNK         0.0839 
     98 H98        21.7984  -26.6217  -38.8899 H         1 UNK         0.0839 
     99 H99        22.6257  -26.1500  -40.3611 H         1 UNK         0.0839 
    100 H100       20.9548  -28.5919  -38.1471 H         1 UNK         0.2998 
    101 H101       20.5399  -29.7635  -36.3348 H         1 UNK         0.0822 
    102 H102       22.4159  -30.4393  -34.8167 H         1 UNK         0.0787 
    103 H103       22.5617  -28.7810  -35.3709 H         1 UNK         0.0787 
    104 H104       23.5856  -30.0307  -36.0630 H         1 UNK         0.0787 
    105 H105       23.3359  -31.7612  -37.2361 H         1 UNK         0.3055 
    106 H106       21.7437  -34.2304  -37.3285 H         1 UNK         0.1106 
    107 H107       24.0540  -34.2761  -36.4002 H         1 UNK         0.0828 
    108 H108       23.9563  -35.2755  -37.8400 H         1 UNK         0.0828 
    109 H109       24.7071  -33.6879  -37.9294 H         1 UNK         0.0828 
    110 H110       22.8909  -31.7831  -39.5385 H         1 UNK         0.2931 
    111 H111       22.5912  -31.3531  -41.6660 H         1 UNK         0.0412 
    112 H112       24.5840  -33.6196  -40.9326 H         1 UNK         0.3472 
    113 H113       24.9608  -34.2656  -42.5102 H         1 UNK         0.3472 
    114 H114       20.6706  -32.3241  -42.9618 H         1 UNK         0.0970 
    115 H115       20.4278  -33.5111  -41.7221 H         1 UNK         0.0970 
    116 H116       20.8039  -29.7254  -42.3943 H         1 UNK         0.0612 
    117 H117       19.5315  -28.9934  -41.4533 H         1 UNK         0.0612 
@<TRIPOS>BOND
     1    1    2 1    
     2    1   62 1    
     3    1   63 1    
     4    1   64 1    
     5    2    3 2    
     6    2    4 am   BACKBONE|DICT|INTERRES
     7    4    5 1    
     8    4   65 1    
     9    5    6 1    
    10    5   25 1    
    11    5   66 1    
    12    6    7 1    
    13    6   67 1    
    14    6   68 1    
    15    7    8 1    
    16    8    9 1    
    17    8   69 1    
    18    8   70 1    
    19    9   10 ar   
    20    9   14 ar   
    21   10   11 ar   
    22   10   71 1    
    23   11   12 ar   
    24   11   61 1    
    25   12   13 ar   
    26   12   72 1    
    27   13   14 ar   
    28   13   15 1    
    29   14   73 1    
    30   15   16 1    
    31   15   74 1    
    32   15   75 1    
    33   16   17 1    
    34   17   18 1    
    35   17   76 1    
    36   17   77 1    
    37   18   19 1    
    38   18   27 1    
    39   18   78 1    
    40   19   20 am   BACKBONE|DICT|INTERRES
    41   19   79 1    
    42   20   21 2    
    43   20   22 1    
    44   22   23 1    
    45   22   24 1    
    46   22   80 1    
    47   23   81 1    
    48   23   82 1    
    49   23   83 1    
    50   24   25 am   BACKBONE|DICT|INTERRES
    51   24   84 1    
    52   25   26 2    
    53   27   28 2    
    54   27   29 am   BACKBONE|DICT|INTERRES
    55   29   30 1    
    56   29   85 1    
    57   30   31 1    
    58   30   32 1    
    59   30   86 1    
    60   31   87 1    
    61   31   88 1    
    62   31   89 1    
    63   32   33 2    
    64   32   34 am   BACKBONE|DICT|INTERRES
    65   34   35 1    
    66   34   90 1    
    67   35   36 1    
    68   35   37 1    
    69   35   91 1    
    70   36   92 1    
    71   36   93 1    
    72   36   94 1    
    73   37   38 2    
    74   37   39 am   BACKBONE|DICT|INTERRES
    75   39   40 1    
    76   39   95 1    
    77   40   41 1    
    78   40   42 1    
    79   40   96 1    
    80   41   97 1    
    81   41   98 1    
    82   41   99 1    
    83   42   43 2    
    84   42   44 am   BACKBONE|DICT|INTERRES
    85   44   45 1    
    86   44  100 1    
    87   45   46 1    
    88   45   47 1    
    89   45  101 1    
    90   46  102 1    
    91   46  103 1    
    92   46  104 1    
    93   47   48 2    
    94   47   49 am   BACKBONE|DICT|INTERRES
    95   49   50 1    
    96   49  105 1    
    97   50   51 1    
    98   50   52 1    
    99   50  106 1    
   100   51  107 1    
   101   51  108 1    
   102   51  109 1    
   103   52   53 2    
   104   52   54 am   BACKBONE|DICT|INTERRES
   105   54   55 1    
   106   54  110 1    
   107   55   56 1    
   108   55   59 1    
   109   55  111 1    
   110   56   57 am   BACKBONE|DICT|INTERRES
   111   56   58 2    
   112   57  112 1    
   113   57  113 1    
   114   59   60 1    
   115   59  114 1    
   116   59  115 1    
   117   60   61 1    
   118   61  116 1    
   119   61  117 1    
@<TRIPOS>SUBSTRUCTURE
     1 UNK         1 GROUP             0       ****    0 ROOT    
