@<TRIPOS>MOLECULE
3R8
117   119    1
SMALL
USER_CHARGES


@<TRIPOS>ATOM
      1 CA         15.9827  -24.8372  -45.3462 C.3       0 UNK        -0.2013 
      2 C          17.3271  -24.9271  -46.0513 C.2       0 UNK         0.4866 
      3 O          17.7417  -23.9725  -46.7079 O.2       0 UNK        -0.5176 
      4 N          18.0203  -26.0630  -45.9107 N.am      1 UNK        -0.4884 
      5 CA         19.2910  -26.3728  -46.5859 C.3       1 UNK         0.0853 
      6 C6         19.3881  -27.8741  -46.9824 C.3       10 UNK        -0.0849 
      7 S7         17.9034  -28.4997  -47.8479 S.3       10 UNK        -0.2776 
      8 C8         17.7438  -30.1991  -47.1888 C.3       10 UNK         0.0316 
      9 C9         17.6959  -30.2829  -45.6639 C.ar      10 UNK        -0.0863 
     10 C10        18.4665  -31.2427  -44.9992 C.ar      10 UNK        -0.1009 
     11 C11        18.4484  -31.3333  -43.6036 C.ar      10 UNK        -0.0712 
     12 C12        17.6616  -30.4442  -42.8674 C.ar      10 UNK        -0.0894 
     13 C13        16.8876  -29.4802  -43.5178 C.ar      10 UNK        -0.0745 
     14 C14        16.8928  -29.4164  -44.9147 C.ar      10 UNK        -0.0972 
     15 C15        16.0483  -28.5011  -42.7156 C.3       10 UNK         0.0209 
     16 S16        16.9258  -26.9255  -42.4808 S.3       10 UNK        -0.2568 
     17 C17        18.0022  -27.2605  -41.0399 C.3       10 UNK        -0.0983 
     18 CA         19.5223  -27.2802  -41.3626 C.3       3 UNK         0.0876 
     19 N          19.9061  -26.1642  -42.2302 N.am      3 UNK        -0.4424 
     20 C          21.1306  -25.8467  -42.6725 C.2       2 UNK         0.4918 
     21 O          22.1631  -26.4602  -42.3889 O.2       2 UNK        -0.4875 
     22 CA         21.1592  -24.6662  -43.6605 C.3       2 UNK         0.0481 
     23 CB         22.5822  -24.2266  -44.0639 C.3       2 UNK        -0.1831 
     24 N          20.3148  -24.9756  -44.8228 N.am      2 UNK        -0.4498 
     25 C          20.5080  -25.9487  -45.7294 C.2       1 UNK         0.5027 
     26 O          21.5770  -26.5425  -45.8700 O.2       1 UNK        -0.4969 
     27 C          20.3385  -27.2633  -40.0554 C.2       3 UNK         0.5005 
     28 O          20.3492  -26.2372  -39.3707 O.2       3 UNK        -0.5279 
     29 N          21.0369  -28.3659  -39.7552 N.am      4 UNK        -0.4463 
     30 CA         21.9519  -28.5966  -38.6261 C.3       4 UNK         0.0283 
     31 CB         21.2404  -28.4322  -37.2691 C.3       4 UNK        -0.1875 
     32 C          23.2570  -27.7778  -38.6735 C.2       4 UNK         0.4949 
     33 O          24.2937  -28.2900  -38.2521 O.2       4 UNK        -0.5039 
     34 N          23.1988  -26.5420  -39.1865 N.am      5 UNK        -0.4663 
     35 CA         24.3339  -25.6344  -39.3707 C.3       5 UNK         0.0242 
     36 CB         23.8128  -24.2488  -39.7843 C.3       5 UNK        -0.1982 
     37 C          25.3631  -26.1544  -40.3882 C.2       5 UNK         0.5017 
     38 O          26.5636  -25.9925  -40.1648 O.2       5 UNK        -0.5012 
     39 N          24.8764  -26.7814  -41.4656 N.am      6 UNK        -0.4439 
     40 CA         25.6879  -27.4630  -42.4736 C.3       6 UNK         0.0297 
     41 CB         25.9297  -26.5425  -43.6810 C.3       6 UNK        -0.2006 
     42 C          25.0345  -28.7823  -42.9013 C.2       6 UNK         0.4892 
     43 O          25.7294  -29.7962  -42.9820 O.2       6 UNK        -0.5089 
     44 N          23.7179  -28.7641  -43.1520 N.am      7 UNK        -0.4243 
     45 CA         22.9328  -29.9461  -43.4980 C.3       7 UNK         0.0196 
     46 CB         21.7273  -29.5238  -44.3520 C.3       7 UNK        -0.2007 
     47 C          22.5099  -30.6674  -42.2125 C.2       7 UNK         0.5020 
     48 O          21.4672  -30.3448  -41.6416 O.2       7 UNK        -0.5147 
     49 N          23.3503  -31.6011  -41.7544 N.am      8 UNK        -0.4734 
     50 CA         23.1443  -32.3590  -40.5170 C.3       8 UNK         0.0238 
     51 CB         24.5040  -32.8663  -40.0100 C.3       8 UNK        -0.1912 
     52 C          22.1517  -33.5273  -40.6536 C.2       8 UNK         0.5038 
     53 O          21.6027  -33.9523  -39.6368 O.2       8 UNK        -0.5046 
     54 N          21.9574  -34.0379  -41.8805 N.am      9 UNK        -0.4200 
     55 CA         21.1332  -35.2209  -42.2084 C.3       9 UNK         0.0839 
     56 C          21.6850  -36.5641  -41.6299 C.2       9 UNK         0.5513 
     57 N          22.9493  -36.6434  -41.2309 N.am      9 UNK        -0.7519 
     58 O          20.9752  -37.5654  -41.5764 O.2       9 UNK        -0.4960 
     59 C59        19.6118  -35.0044  -41.9226 C.3       10 UNK        -0.0876 
     60 S60        18.7483  -34.0633  -43.2254 S.3       10 UNK        -0.2414 
     61 C61        19.3032  -32.3682  -42.8884 C.3       10 UNK         0.0169 
     62 H62        15.6183  -25.8189  -45.0440 H         1 UNK         0.0903 
     63 H63        16.0639  -24.2127  -44.4571 H         1 UNK         0.0903 
     64 H64        15.2388  -24.3947  -46.0082 H         1 UNK         0.0903 
     65 H65        17.6511  -26.8034  -45.3306 H         1 UNK         0.3096 
     66 H66        19.3512  -25.7914  -47.5088 H         1 UNK         0.1121 
     67 H67        19.5713  -28.4805  -46.0947 H         1 UNK         0.0849 
     68 H68        20.2471  -28.0389  -47.6356 H         1 UNK         0.0849 
     69 H69        16.8343  -30.6470  -47.5909 H         1 UNK         0.0865 
     70 H70        18.5736  -30.7919  -47.5772 H         1 UNK         0.0865 
     71 H71        19.0863  -31.9249  -45.5650 H         1 UNK         0.1346 
     72 H72        17.6567  -30.4977  -41.7875 H         1 UNK         0.1412 
     73 H73        16.2845  -28.6785  -45.4196 H         1 UNK         0.1426 
     74 H74        15.7649  -28.9240  -41.7506 H         1 UNK         0.0716 
     75 H75        15.1144  -28.3048  -43.2445 H         1 UNK         0.0716 
     76 H76        17.7082  -28.2012  -40.5717 H         1 UNK         0.0695 
     77 H77        17.7773  -26.4826  -40.3070 H         1 UNK         0.0695 
     78 H78        19.7436  -28.1988  -41.9095 H         1 UNK         0.0983 
     79 H79        19.1302  -25.5956  -42.5336 H         1 UNK         0.3095 
     80 H80        20.6922  -23.8213  -43.1522 H         1 UNK         0.0454 
     81 H81        23.1329  -25.0193  -44.5663 H         1 UNK         0.0851 
     82 H82        23.1637  -23.9390  -43.1878 H         1 UNK         0.0851 
     83 H83        22.5545  -23.3662  -44.7319 H         1 UNK         0.0851 
     84 H84        19.4085  -24.5283  -44.8376 H         1 UNK         0.2976 
     85 H85        21.0324  -29.1245  -40.4401 H         1 UNK         0.3116 
     86 H86        22.2469  -29.6428  -38.7087 H         1 UNK         0.0646 
     87 H87        20.9432  -27.3999  -37.0834 H         1 UNK         0.0847 
     88 H88        21.8967  -28.7290  -36.4501 H         1 UNK         0.0847 
     89 H89        20.3479  -29.0550  -37.2106 H         1 UNK         0.0847 
     90 H90        22.2802  -26.1996  -39.4533 H         1 UNK         0.3040 
     91 H91        24.8432  -25.5388  -38.4092 H         1 UNK         0.1015 
     92 H92        23.2528  -24.2908  -40.7188 H         1 UNK         0.0786 
     93 H93        24.6362  -23.5475  -39.9268 H         1 UNK         0.0786 
     94 H94        23.1578  -23.8283  -39.0210 H         1 UNK         0.0786 
     95 H95        23.8670  -26.8246  -41.5778 H         1 UNK         0.3172 
     96 H96        26.6583  -27.7192  -42.0427 H         1 UNK         0.0595 
     97 H97        24.9992  -26.2885  -44.1868 H         1 UNK         0.0839 
     98 H98        26.5762  -27.0262  -44.4143 H         1 UNK         0.0839 
     99 H99        26.4153  -25.6135  -43.3820 H         1 UNK         0.0839 
    100 H100       23.1959  -27.8993  -43.0417 H         1 UNK         0.2998 
    101 H101       23.5369  -30.6284  -44.1002 H         1 UNK         0.0822 
    102 H102       22.0536  -29.0705  -45.2874 H         1 UNK         0.0787 
    103 H103       21.1164  -30.3863  -44.6134 H         1 UNK         0.0787 
    104 H104       21.0857  -28.8079  -43.8383 H         1 UNK         0.0787 
    105 H105       24.2186  -31.7550  -42.2505 H         1 UNK         0.3055 
    106 H106       22.7349  -31.6865  -39.7610 H         1 UNK         0.1106 
    107 H107       24.3924  -33.4195  -39.0761 H         1 UNK         0.0828 
    108 H108       24.9835  -33.5322  -40.7283 H         1 UNK         0.0828 
    109 H109       25.1858  -32.0385  -39.8126 H         1 UNK         0.0828 
    110 H110       22.4694  -33.6324  -42.6495 H         1 UNK         0.2931 
    111 H111       21.2426  -35.3513  -43.2857 H         1 UNK         0.0412 
    112 H112       23.5567  -35.8424  -41.2860 H         1 UNK         0.3472 
    113 H113       23.2985  -37.5188  -40.8727 H         1 UNK         0.3472 
    114 H114       19.4434  -34.5324  -40.9544 H         1 UNK         0.0970 
    115 H115       19.0821  -35.9564  -41.8659 H         1 UNK         0.0970 
    116 H116       19.3086  -32.1900  -41.8119 H         1 UNK         0.0612 
    117 H117       20.3317  -32.2702  -43.2306 H         1 UNK         0.0612 
@<TRIPOS>BOND
     1    1    2 1    
     2    1   62 1    
     3    1   63 1    
     4    1   64 1    
     5    2    3 2    
     6    2    4 am   BACKBONE|DICT|INTERRES
     7    4    5 1    
     8    4   65 1    
     9    5    6 1    
    10    5   25 1    
    11    5   66 1    
    12    6    7 1    
    13    6   67 1    
    14    6   68 1    
    15    7    8 1    
    16    8    9 1    
    17    8   69 1    
    18    8   70 1    
    19    9   10 ar   
    20    9   14 ar   
    21   10   11 ar   
    22   10   71 1    
    23   11   12 ar   
    24   11   61 1    
    25   12   13 ar   
    26   12   72 1    
    27   13   14 ar   
    28   13   15 1    
    29   14   73 1    
    30   15   16 1    
    31   15   74 1    
    32   15   75 1    
    33   16   17 1    
    34   17   18 1    
    35   17   76 1    
    36   17   77 1    
    37   18   19 1    
    38   18   27 1    
    39   18   78 1    
    40   19   20 am   BACKBONE|DICT|INTERRES
    41   19   79 1    
    42   20   21 2    
    43   20   22 1    
    44   22   23 1    
    45   22   24 1    
    46   22   80 1    
    47   23   81 1    
    48   23   82 1    
    49   23   83 1    
    50   24   25 am   BACKBONE|DICT|INTERRES
    51   24   84 1    
    52   25   26 2    
    53   27   28 2    
    54   27   29 am   BACKBONE|DICT|INTERRES
    55   29   30 1    
    56   29   85 1    
    57   30   31 1    
    58   30   32 1    
    59   30   86 1    
    60   31   87 1    
    61   31   88 1    
    62   31   89 1    
    63   32   33 2    
    64   32   34 am   BACKBONE|DICT|INTERRES
    65   34   35 1    
    66   34   90 1    
    67   35   36 1    
    68   35   37 1    
    69   35   91 1    
    70   36   92 1    
    71   36   93 1    
    72   36   94 1    
    73   37   38 2    
    74   37   39 am   BACKBONE|DICT|INTERRES
    75   39   40 1    
    76   39   95 1    
    77   40   41 1    
    78   40   42 1    
    79   40   96 1    
    80   41   97 1    
    81   41   98 1    
    82   41   99 1    
    83   42   43 2    
    84   42   44 am   BACKBONE|DICT|INTERRES
    85   44   45 1    
    86   44  100 1    
    87   45   46 1    
    88   45   47 1    
    89   45  101 1    
    90   46  102 1    
    91   46  103 1    
    92   46  104 1    
    93   47   48 2    
    94   47   49 am   BACKBONE|DICT|INTERRES
    95   49   50 1    
    96   49  105 1    
    97   50   51 1    
    98   50   52 1    
    99   50  106 1    
   100   51  107 1    
   101   51  108 1    
   102   51  109 1    
   103   52   53 2    
   104   52   54 am   BACKBONE|DICT|INTERRES
   105   54   55 1    
   106   54  110 1    
   107   55   56 1    
   108   55   59 1    
   109   55  111 1    
   110   56   57 am   BACKBONE|DICT|INTERRES
   111   56   58 2    
   112   57  112 1    
   113   57  113 1    
   114   59   60 1    
   115   59  114 1    
   116   59  115 1    
   117   60   61 1    
   118   61  116 1    
   119   61  117 1    
@<TRIPOS>SUBSTRUCTURE
     1 UNK         1 GROUP             0       ****    0 ROOT    
