@<TRIPOS>MOLECULE
3R8
117   119    1
SMALL
USER_CHARGES


@<TRIPOS>ATOM
      1 CA         18.9272  -24.8428  -38.3947 C.3       0 UNK        -0.2013 
      2 C          18.3442  -25.0058  -39.7905 C.2       0 UNK         0.4866 
      3 O          17.3995  -24.3002  -40.1466 O.2       0 UNK        -0.5176 
      4 N          18.8946  -25.9331  -40.5807 N.am      1 UNK        -0.4884 
      5 CA         18.5138  -26.1777  -41.9736 C.3       1 UNK         0.0853 
      6 C6         19.0006  -27.5631  -42.4661 C.3       10 UNK        -0.0849 
      7 S7         18.1740  -28.9392  -41.5995 S.3       10 UNK        -0.2776 
      8 C8         17.5843  -29.9588  -42.9925 C.3       10 UNK         0.0316 
      9 C9         18.7367  -30.5556  -43.7910 C.ar      10 UNK        -0.0863 
     10 C10        19.5560  -31.5277  -43.2140 C.ar      10 UNK        -0.1009 
     11 C11        20.6283  -32.0748  -43.9234 C.ar      10 UNK        -0.0712 
     12 C12        20.8784  -31.6436  -45.2294 C.ar      10 UNK        -0.0894 
     13 C13        20.0732  -30.6623  -45.8163 C.ar      10 UNK        -0.0745 
     14 C14        18.9943  -30.1338  -45.0986 C.ar      10 UNK        -0.0972 
     15 C15        20.3884  -30.1495  -47.2146 C.3       10 UNK         0.0209 
     16 S16        21.7034  -28.8865  -47.1862 S.3       10 UNK        -0.2568 
     17 C17        20.9356  -27.6112  -46.1326 C.3       10 UNK        -0.0983 
     18 CA         21.5324  -26.1910  -46.3031 C.3       3 UNK         0.0876 
     19 N          20.7119  -25.2054  -45.6119 N.am      3 UNK        -0.4424 
     20 C          19.5592  -24.6928  -46.0467 C.2       2 UNK         0.4918 
     21 O          19.0853  -24.9199  -47.1610 O.2       2 UNK        -0.4875 
     22 CA         18.7785  -23.8458  -45.0237 C.3       2 UNK         0.0481 
     23 CB         17.5598  -23.1386  -45.6446 C.3       2 UNK        -0.1831 
     24 N          18.3281  -24.7018  -43.9223 N.am      2 UNK        -0.4498 
     25 C          19.0872  -25.0751  -42.8829 C.2       1 UNK         0.5027 
     26 O          20.2241  -24.6400  -42.6798 O.2       1 UNK        -0.4969 
     27 C          22.9452  -26.0889  -45.7087 C.2       3 UNK         0.5005 
     28 O          23.0854  -25.7247  -44.5374 O.2       3 UNK        -0.5279 
     29 N          23.9620  -26.4560  -46.5007 N.am      4 UNK        -0.4463 
     30 CA         25.3789  -26.4620  -46.1138 C.3       4 UNK         0.0283 
     31 CB         26.2362  -26.8085  -47.3419 C.3       4 UNK        -0.1875 
     32 C          25.7142  -27.4063  -44.9428 C.2       4 UNK         0.4949 
     33 O          26.7182  -27.1884  -44.2647 O.2       4 UNK        -0.5039 
     34 N          24.8690  -28.4222  -44.7160 N.am      5 UNK        -0.4663 
     35 CA         24.9508  -29.3370  -43.5758 C.3       5 UNK         0.0242 
     36 CB         23.9991  -30.5184  -43.8138 C.3       5 UNK        -0.1982 
     37 C          24.6259  -28.6663  -42.2286 C.2       5 UNK         0.5017 
     38 O          25.1510  -29.1091  -41.2062 O.2       5 UNK        -0.5012 
     39 N          23.7714  -27.6297  -42.2527 N.am      6 UNK        -0.4439 
     40 CA         23.2536  -26.8187  -41.1406 C.3       6 UNK         0.0297 
     41 CB         24.3811  -26.0127  -40.4685 C.3       6 UNK        -0.2006 
     42 C          22.4204  -27.5832  -40.0927 C.2       6 UNK         0.4892 
     43 O          21.3167  -27.1449  -39.7690 O.2       6 UNK        -0.5089 
     44 N          22.9573  -28.6872  -39.5648 N.am      7 UNK        -0.4243 
     45 CA         22.3058  -29.5636  -38.5944 C.3       7 UNK         0.0196 
     46 CB         23.3769  -30.4261  -37.9075 C.3       7 UNK        -0.2007 
     47 C          21.2529  -30.4572  -39.2655 C.2       7 UNK         0.5020 
     48 O          21.4250  -30.8540  -40.4192 O.2       7 UNK        -0.5147 
     49 N          20.2040  -30.7986  -38.5089 N.am      8 UNK        -0.4734 
     50 CA         19.1372  -31.7039  -38.9317 C.3       8 UNK         0.0238 
     51 CB         17.8931  -31.4596  -38.0591 C.3       8 UNK        -0.1912 
     52 C          19.6101  -33.1665  -38.8638 C.2       8 UNK         0.5038 
     53 O          19.5272  -33.7845  -37.8006 O.2       8 UNK        -0.5046 
     54 N          20.1153  -33.6813  -39.9908 N.am      9 UNK        -0.4200 
     55 CA         20.5600  -35.0739  -40.1688 C.3       9 UNK         0.0839 
     56 C          19.4301  -36.1472  -40.1432 C.2       9 UNK         0.5513 
     57 N          18.1563  -35.7811  -40.2269 N.am      9 UNK        -0.7519 
     58 O          19.7188  -37.3362  -40.0333 O.2       9 UNK        -0.4960 
     59 C59        21.4767  -35.2278  -41.4140 C.3       10 UNK        -0.0876 
     60 S60        20.6939  -34.6742  -42.9725 S.3       10 UNK        -0.2414 
     61 C61        21.5406  -33.0878  -43.2500 C.3       10 UNK         0.0169 
     62 H62        19.3414  -23.8420  -38.2757 H         1 UNK         0.0903 
     63 H63        18.1500  -24.9830  -37.6439 H         1 UNK         0.0903 
     64 H64        19.7206  -25.5639  -38.1985 H         1 UNK         0.0903 
     65 H65        19.7107  -26.4498  -40.2534 H         1 UNK         0.3096 
     66 H66        17.4237  -26.1473  -42.0403 H         1 UNK         0.1121 
     67 H67        18.8236  -27.6668  -43.5380 H         1 UNK         0.0849 
     68 H68        20.0788  -27.6695  -42.3297 H         1 UNK         0.0849 
     69 H69        16.9660  -30.7676  -42.6003 H         1 UNK         0.0865 
     70 H70        16.9324  -29.3599  -43.6304 H         1 UNK         0.0865 
     71 H71        19.3686  -31.8447  -42.2001 H         1 UNK         0.1346 
     72 H72        21.7179  -32.0463  -45.7795 H         1 UNK         0.1412 
     73 H73        18.3697  -29.3760  -45.5513 H         1 UNK         0.1426 
     74 H74        19.4949  -29.7329  -47.6824 H         1 UNK         0.0716 
     75 H75        20.7061  -30.9786  -47.8484 H         1 UNK         0.0716 
     76 H76        20.9919  -27.9339  -45.0906 H         1 UNK         0.0695 
     77 H77        19.8738  -27.5854  -46.3814 H         1 UNK         0.0695 
     78 H78        21.5755  -25.9281  -47.3626 H         1 UNK         0.0983 
     79 H79        21.0494  -24.9616  -44.6845 H         1 UNK         0.3095 
     80 H80        19.4516  -23.0760  -44.6401 H         1 UNK         0.0454 
     81 H81        17.8640  -22.4880  -46.4656 H         1 UNK         0.0851 
     82 H82        17.0482  -22.5148  -44.9116 H         1 UNK         0.0851 
     83 H83        16.8352  -23.8494  -46.0438 H         1 UNK         0.0851 
     84 H84        17.4178  -25.1251  -44.0367 H         1 UNK         0.2976 
     85 H85        23.7507  -26.7779  -47.4354 H         1 UNK         0.3116 
     86 H86        25.6347  -25.4500  -45.7930 H         1 UNK         0.0646 
     87 H87        26.0074  -27.8032  -47.7267 H         1 UNK         0.0847 
     88 H88        26.0852  -26.0913  -48.1489 H         1 UNK         0.0847 
     89 H89        27.2985  -26.7927  -47.0936 H         1 UNK         0.0847 
     90 H90        24.0849  -28.5386  -45.3422 H         1 UNK         0.3040 
     91 H91        25.9724  -29.7194  -43.5168 H         1 UNK         0.1015 
     92 H92        24.0624  -31.2399  -42.9979 H         1 UNK         0.0786 
     93 H93        24.2392  -31.0485  -44.7356 H         1 UNK         0.0786 
     94 H94        22.9613  -30.1880  -43.8741 H         1 UNK         0.0786 
     95 H95        23.4514  -27.3226  -43.1646 H         1 UNK         0.3172 
     96 H96        22.5767  -26.0994  -41.6054 H         1 UNK         0.0595 
     97 H97        25.1183  -26.6588  -39.9911 H         1 UNK         0.0839 
     98 H98        23.9808  -25.3523  -39.6981 H         1 UNK         0.0839 
     99 H99        24.9032  -25.3870  -41.1925 H         1 UNK         0.0839 
    100 H100       23.8444  -28.9998  -39.9527 H         1 UNK         0.2998 
    101 H101       21.8168  -28.9420  -37.8410 H         1 UNK         0.0822 
    102 H102       22.9320  -31.0823  -37.1582 H         1 UNK         0.0787 
    103 H103       24.1172  -29.8084  -37.3987 H         1 UNK         0.0787 
    104 H104       23.9033  -31.0582  -38.6243 H         1 UNK         0.0787 
    105 H105       20.1606  -30.4672  -37.5557 H         1 UNK         0.3055 
    106 H106       18.8631  -31.4709  -39.9622 H         1 UNK         0.1106 
    107 H107       17.5231  -30.4408  -38.1772 H         1 UNK         0.0828 
    108 H108       17.0818  -32.1318  -38.3414 H         1 UNK         0.0828 
    109 H109       18.0973  -31.6221  -37.0001 H         1 UNK         0.0828 
    110 H110       20.2089  -33.0869  -40.8008 H         1 UNK         0.2931 
    111 H111       21.1826  -35.3038  -39.3018 H         1 UNK         0.0412 
    112 H112       17.4374  -36.4873  -40.2039 H         1 UNK         0.3472 
    113 H113       17.9077  -34.8109  -40.3277 H         1 UNK         0.3472 
    114 H114       22.4045  -34.6767  -41.2543 H         1 UNK         0.0970 
    115 H115       21.7868  -36.2675  -41.5362 H         1 UNK         0.0970 
    116 H116       21.8804  -32.6683  -42.3030 H         1 UNK         0.0612 
    117 H117       22.4374  -33.2654  -43.8452 H         1 UNK         0.0612 
@<TRIPOS>BOND
     1    1    2 1    
     2    1   62 1    
     3    1   63 1    
     4    1   64 1    
     5    2    3 2    
     6    2    4 am   BACKBONE|DICT|INTERRES
     7    4    5 1    
     8    4   65 1    
     9    5    6 1    
    10    5   25 1    
    11    5   66 1    
    12    6    7 1    
    13    6   67 1    
    14    6   68 1    
    15    7    8 1    
    16    8    9 1    
    17    8   69 1    
    18    8   70 1    
    19    9   10 ar   
    20    9   14 ar   
    21   10   11 ar   
    22   10   71 1    
    23   11   12 ar   
    24   11   61 1    
    25   12   13 ar   
    26   12   72 1    
    27   13   14 ar   
    28   13   15 1    
    29   14   73 1    
    30   15   16 1    
    31   15   74 1    
    32   15   75 1    
    33   16   17 1    
    34   17   18 1    
    35   17   76 1    
    36   17   77 1    
    37   18   19 1    
    38   18   27 1    
    39   18   78 1    
    40   19   20 am   BACKBONE|DICT|INTERRES
    41   19   79 1    
    42   20   21 2    
    43   20   22 1    
    44   22   23 1    
    45   22   24 1    
    46   22   80 1    
    47   23   81 1    
    48   23   82 1    
    49   23   83 1    
    50   24   25 am   BACKBONE|DICT|INTERRES
    51   24   84 1    
    52   25   26 2    
    53   27   28 2    
    54   27   29 am   BACKBONE|DICT|INTERRES
    55   29   30 1    
    56   29   85 1    
    57   30   31 1    
    58   30   32 1    
    59   30   86 1    
    60   31   87 1    
    61   31   88 1    
    62   31   89 1    
    63   32   33 2    
    64   32   34 am   BACKBONE|DICT|INTERRES
    65   34   35 1    
    66   34   90 1    
    67   35   36 1    
    68   35   37 1    
    69   35   91 1    
    70   36   92 1    
    71   36   93 1    
    72   36   94 1    
    73   37   38 2    
    74   37   39 am   BACKBONE|DICT|INTERRES
    75   39   40 1    
    76   39   95 1    
    77   40   41 1    
    78   40   42 1    
    79   40   96 1    
    80   41   97 1    
    81   41   98 1    
    82   41   99 1    
    83   42   43 2    
    84   42   44 am   BACKBONE|DICT|INTERRES
    85   44   45 1    
    86   44  100 1    
    87   45   46 1    
    88   45   47 1    
    89   45  101 1    
    90   46  102 1    
    91   46  103 1    
    92   46  104 1    
    93   47   48 2    
    94   47   49 am   BACKBONE|DICT|INTERRES
    95   49   50 1    
    96   49  105 1    
    97   50   51 1    
    98   50   52 1    
    99   50  106 1    
   100   51  107 1    
   101   51  108 1    
   102   51  109 1    
   103   52   53 2    
   104   52   54 am   BACKBONE|DICT|INTERRES
   105   54   55 1    
   106   54  110 1    
   107   55   56 1    
   108   55   59 1    
   109   55  111 1    
   110   56   57 am   BACKBONE|DICT|INTERRES
   111   56   58 2    
   112   57  112 1    
   113   57  113 1    
   114   59   60 1    
   115   59  114 1    
   116   59  115 1    
   117   60   61 1    
   118   61  116 1    
   119   61  117 1    
@<TRIPOS>SUBSTRUCTURE
     1 UNK         1 GROUP             0       ****    0 ROOT    
