@<TRIPOS>MOLECULE
3R8
117   119    1
SMALL
USER_CHARGES


@<TRIPOS>ATOM
      1 CA         14.5863  -22.0340  -44.7833 C.3       0 UNK        -0.2013 
      2 C          15.1293  -23.3301  -45.3666 C.2       0 UNK         0.4866 
      3 O          15.0693  -23.5274  -46.5804 O.2       0 UNK        -0.5176 
      4 N          15.6601  -24.2115  -44.5134 N.am      1 UNK        -0.4884 
      5 CA         16.2815  -25.4842  -44.8801 C.3       1 UNK         0.0853 
      6 C6         15.2465  -26.5764  -45.2876 C.3       10 UNK        -0.0849 
      7 S7         15.8441  -27.5942  -46.6800 S.3       10 UNK        -0.2776 
      8 C8         15.6361  -29.3087  -46.0844 C.3       10 UNK         0.0316 
      9 C9         16.9019  -29.9180  -45.4845 C.ar      10 UNK        -0.0863 
     10 C10        16.8099  -30.7416  -44.3572 C.ar      10 UNK        -0.1009 
     11 C11        17.9437  -31.3826  -43.8463 C.ar      10 UNK        -0.0712 
     12 C12        19.1838  -31.1810  -44.4605 C.ar      10 UNK        -0.0894 
     13 C13        19.2929  -30.3684  -45.5922 C.ar      10 UNK        -0.0745 
     14 C14        18.1480  -29.7459  -46.1004 C.ar      10 UNK        -0.0972 
     15 C15        20.6239  -30.2449  -46.3247 C.3       10 UNK         0.0209 
     16 S16        21.1895  -28.5241  -46.5133 S.3       10 UNK        -0.2568 
     17 C17        22.1129  -28.2275  -44.9672 C.3       10 UNK        -0.0983 
     18 CA         21.6366  -26.9248  -44.2697 C.3       3 UNK         0.0876 
     19 N          20.2463  -27.0406  -43.8007 N.am      3 UNK        -0.4424 
     20 C          19.8050  -27.6805  -42.7068 C.2       2 UNK         0.4918 
     21 O          20.5467  -28.1421  -41.8408 O.2       2 UNK        -0.4875 
     22 CA         18.2846  -27.8515  -42.5424 C.3       2 UNK         0.0481 
     23 CB         17.8062  -27.4803  -41.1226 C.3       2 UNK        -0.1831 
     24 N          17.4728  -27.2037  -43.5826 N.am      2 UNK        -0.4498 
     25 C          17.2368  -25.8942  -43.7421 C.2       1 UNK         0.5027 
     26 O          17.7439  -25.0194  -43.0354 O.2       1 UNK        -0.4969 
     27 C          22.6247  -26.4215  -43.1887 C.2       3 UNK         0.5005 
     28 O          23.7723  -26.8680  -43.1429 O.2       3 UNK        -0.5279 
     29 N          22.1433  -25.5331  -42.3020 N.am      4 UNK        -0.4463 
     30 CA         22.8313  -24.9889  -41.1204 C.3       4 UNK         0.0283 
     31 CB         23.9614  -24.0316  -41.5550 C.3       4 UNK        -0.1875 
     32 C          23.3306  -26.0610  -40.1230 C.2       4 UNK         0.4949 
     33 O          24.2385  -25.7785  -39.3400 O.2       4 UNK        -0.5039 
     34 N          22.7475  -27.2696  -40.1805 N.am      5 UNK        -0.4663 
     35 CA         23.1450  -28.4917  -39.4734 C.3       5 UNK         0.0242 
     36 CB         22.8741  -28.3639  -37.9599 C.3       5 UNK        -0.1982 
     37 C          24.5849  -28.9495  -39.7930 C.2       5 UNK         0.5017 
     38 O          25.2340  -29.5581  -38.9385 O.2       5 UNK        -0.5012 
     39 N          25.0739  -28.6512  -41.0077 N.am      6 UNK        -0.4439 
     40 CA         26.4050  -29.0193  -41.4974 C.3       6 UNK         0.0297 
     41 CB         26.7700  -28.1197  -42.6916 C.3       6 UNK        -0.2006 
     42 C          26.4681  -30.5160  -41.8512 C.2       6 UNK         0.4892 
     43 O          26.4154  -30.8763  -43.0293 O.2       6 UNK        -0.5089 
     44 N          26.5334  -31.3563  -40.8087 N.am      7 UNK        -0.4243 
     45 CA         26.4624  -32.8239  -40.7948 C.3       7 UNK         0.0196 
     46 CB         27.5699  -33.4772  -41.6459 C.3       7 UNK        -0.2007 
     47 C          25.0636  -33.3389  -41.1679 C.2       7 UNK         0.5020 
     48 O          24.4239  -34.0049  -40.3526 O.2       7 UNK        -0.5147 
     49 N          24.5858  -32.9775  -42.3645 N.am      8 UNK        -0.4734 
     50 CA         23.1987  -33.1498  -42.7919 C.3       8 UNK         0.0238 
     51 CB         23.0807  -32.8101  -44.2863 C.3       8 UNK        -0.1912 
     52 C          22.2898  -32.2461  -41.9445 C.2       8 UNK         0.5038 
     53 O          22.5418  -31.0421  -41.8753 O.2       8 UNK        -0.5046 
     54 N          21.2860  -32.8490  -41.2949 N.am      9 UNK        -0.4200 
     55 CA         20.4186  -32.2180  -40.2839 C.3       9 UNK         0.0839 
     56 C          21.1408  -31.8547  -38.9474 C.2       9 UNK         0.5513 
     57 N          22.3596  -32.3207  -38.6965 N.am      9 UNK        -0.7519 
     58 O          20.5725  -31.1712  -38.1004 O.2       9 UNK        -0.4960 
     59 C59        19.5575  -31.0515  -40.8680 C.3       10 UNK        -0.0876 
     60 S60        17.8006  -31.4938  -41.0611 S.3       10 UNK        -0.2414 
     61 C61        17.8147  -32.3423  -42.6706 C.3       10 UNK         0.0169 
     62 H62        14.7006  -21.9944  -43.7001 H         1 UNK         0.0903 
     63 H63        15.1120  -21.1807  -45.2110 H         1 UNK         0.0903 
     64 H64        13.5266  -21.9330  -45.0159 H         1 UNK         0.0903 
     65 H65        15.7565  -23.9761  -43.5329 H         1 UNK         0.3096 
     66 H66        16.9287  -25.2725  -45.7347 H         1 UNK         0.1121 
     67 H67        14.3249  -26.1096  -45.6385 H         1 UNK         0.0849 
     68 H68        14.9376  -27.1925  -44.4412 H         1 UNK         0.0849 
     69 H69        14.8035  -29.3565  -45.3809 H         1 UNK         0.0865 
     70 H70        15.3427  -29.9267  -46.9341 H         1 UNK         0.0865 
     71 H71        15.8494  -30.9115  -43.8893 H         1 UNK         0.1346 
     72 H72        20.0579  -31.6870  -44.0766 H         1 UNK         0.1412 
     73 H73        18.2278  -29.1466  -46.9973 H         1 UNK         0.1426 
     74 H74        20.5047  -30.6754  -47.3198 H         1 UNK         0.0716 
     75 H75        21.4030  -30.8306  -45.8362 H         1 UNK         0.0716 
     76 H76        23.1676  -28.1691  -45.2423 H         1 UNK         0.0695 
     77 H77        22.0188  -29.0807  -44.2921 H         1 UNK         0.0695 
     78 H78        21.6355  -26.1332  -45.0210 H         1 UNK         0.0983 
     79 H79        19.5480  -26.6929  -44.4399 H         1 UNK         0.3095 
     80 H80        18.1038  -28.9168  -42.6614 H         1 UNK         0.0454 
     81 H81        16.7326  -27.6318  -41.0135 H         1 UNK         0.0851 
     82 H82        18.0297  -26.4436  -40.8711 H         1 UNK         0.0851 
     83 H83        18.2940  -28.1017  -40.3713 H         1 UNK         0.0851 
     84 H84        17.0524  -27.8406  -44.2482 H         1 UNK         0.2976 
     85 H85        21.1775  -25.2533  -42.4095 H         1 UNK         0.3116 
     86 H86        22.0878  -24.4010  -40.5805 H         1 UNK         0.0646 
     87 H87        24.7764  -24.5662  -42.0441 H         1 UNK         0.0847 
     88 H88        23.5959  -23.2719  -42.2456 H         1 UNK         0.0847 
     89 H89        24.3857  -23.5081  -40.6974 H         1 UNK         0.0847 
     90 H90        22.0021  -27.4074  -40.8604 H         1 UNK         0.3040 
     91 H91        22.4944  -29.2787  -39.8569 H         1 UNK         0.1015 
     92 H92        23.0305  -29.3175  -37.4543 H         1 UNK         0.0786 
     93 H93        21.8437  -28.0656  -37.7669 H         1 UNK         0.0786 
     94 H94        23.5324  -27.6331  -37.4895 H         1 UNK         0.0786 
     95 H95        24.4792  -28.1483  -41.6602 H         1 UNK         0.3172 
     96 H96        27.1335  -28.8287  -40.7065 H         1 UNK         0.0595 
     97 H97        26.0798  -28.2541  -43.5257 H         1 UNK         0.0839 
     98 H98        27.7719  -28.3459  -43.0584 H         1 UNK         0.0839 
     99 H99        26.7541  -27.0655  -42.4142 H         1 UNK         0.0839 
    100 H100       26.4558  -30.9202  -39.8948 H         1 UNK         0.2998 
    101 H101       26.6374  -33.1157  -39.7579 H         1 UNK         0.0822 
    102 H102       27.5536  -34.5618  -41.5324 H         1 UNK         0.0787 
    103 H103       27.4581  -33.2646  -42.7093 H         1 UNK         0.0787 
    104 H104       28.5579  -33.1341  -41.3389 H         1 UNK         0.0787 
    105 H105       25.1618  -32.3434  -42.9121 H         1 UNK         0.3055 
    106 H106       22.9204  -34.1960  -42.6466 H         1 UNK         0.1106 
    107 H107       23.7435  -33.4323  -44.8879 H         1 UNK         0.0828 
    108 H108       22.0655  -32.9801  -44.6456 H         1 UNK         0.0828 
    109 H109       23.3317  -31.7666  -44.4834 H         1 UNK         0.0828 
    110 H110       21.1738  -33.8479  -41.3925 H         1 UNK         0.2931 
    111 H111       19.7438  -33.0198  -39.9821 H         1 UNK         0.0412 
    112 H112       22.7988  -32.0897  -37.8199 H         1 UNK         0.3472 
    113 H113       22.8477  -32.9059  -39.3620 H         1 UNK         0.3472 
    114 H114       19.5928  -30.1646  -40.2339 H         1 UNK         0.0970 
    115 H115       19.9393  -30.7069  -41.8269 H         1 UNK         0.0970 
    116 H116       16.8879  -32.9092  -42.7696 H         1 UNK         0.0612 
    117 H117       18.6193  -33.0790  -42.6853 H         1 UNK         0.0612 
@<TRIPOS>BOND
     1    1    2 1    
     2    1   62 1    
     3    1   63 1    
     4    1   64 1    
     5    2    3 2    
     6    2    4 am   BACKBONE|DICT|INTERRES
     7    4    5 1    
     8    4   65 1    
     9    5    6 1    
    10    5   25 1    
    11    5   66 1    
    12    6    7 1    
    13    6   67 1    
    14    6   68 1    
    15    7    8 1    
    16    8    9 1    
    17    8   69 1    
    18    8   70 1    
    19    9   10 ar   
    20    9   14 ar   
    21   10   11 ar   
    22   10   71 1    
    23   11   12 ar   
    24   11   61 1    
    25   12   13 ar   
    26   12   72 1    
    27   13   14 ar   
    28   13   15 1    
    29   14   73 1    
    30   15   16 1    
    31   15   74 1    
    32   15   75 1    
    33   16   17 1    
    34   17   18 1    
    35   17   76 1    
    36   17   77 1    
    37   18   19 1    
    38   18   27 1    
    39   18   78 1    
    40   19   20 am   BACKBONE|DICT|INTERRES
    41   19   79 1    
    42   20   21 2    
    43   20   22 1    
    44   22   23 1    
    45   22   24 1    
    46   22   80 1    
    47   23   81 1    
    48   23   82 1    
    49   23   83 1    
    50   24   25 am   BACKBONE|DICT|INTERRES
    51   24   84 1    
    52   25   26 2    
    53   27   28 2    
    54   27   29 am   BACKBONE|DICT|INTERRES
    55   29   30 1    
    56   29   85 1    
    57   30   31 1    
    58   30   32 1    
    59   30   86 1    
    60   31   87 1    
    61   31   88 1    
    62   31   89 1    
    63   32   33 2    
    64   32   34 am   BACKBONE|DICT|INTERRES
    65   34   35 1    
    66   34   90 1    
    67   35   36 1    
    68   35   37 1    
    69   35   91 1    
    70   36   92 1    
    71   36   93 1    
    72   36   94 1    
    73   37   38 2    
    74   37   39 am   BACKBONE|DICT|INTERRES
    75   39   40 1    
    76   39   95 1    
    77   40   41 1    
    78   40   42 1    
    79   40   96 1    
    80   41   97 1    
    81   41   98 1    
    82   41   99 1    
    83   42   43 2    
    84   42   44 am   BACKBONE|DICT|INTERRES
    85   44   45 1    
    86   44  100 1    
    87   45   46 1    
    88   45   47 1    
    89   45  101 1    
    90   46  102 1    
    91   46  103 1    
    92   46  104 1    
    93   47   48 2    
    94   47   49 am   BACKBONE|DICT|INTERRES
    95   49   50 1    
    96   49  105 1    
    97   50   51 1    
    98   50   52 1    
    99   50  106 1    
   100   51  107 1    
   101   51  108 1    
   102   51  109 1    
   103   52   53 2    
   104   52   54 am   BACKBONE|DICT|INTERRES
   105   54   55 1    
   106   54  110 1    
   107   55   56 1    
   108   55   59 1    
   109   55  111 1    
   110   56   57 am   BACKBONE|DICT|INTERRES
   111   56   58 2    
   112   57  112 1    
   113   57  113 1    
   114   59   60 1    
   115   59  114 1    
   116   59  115 1    
   117   60   61 1    
   118   61  116 1    
   119   61  117 1    
@<TRIPOS>SUBSTRUCTURE
     1 UNK         1 GROUP             0       ****    0 ROOT    
