@<TRIPOS>MOLECULE
3R8
117   119    1
SMALL
USER_CHARGES


@<TRIPOS>ATOM
      1 CA         16.7428  -23.7334  -48.1557 C.3       0 UNK        -0.2013 
      2 C          18.0012  -23.9416  -47.3262 C.2       0 UNK         0.4866 
      3 O          18.5166  -22.9863  -46.7441 O.2       0 UNK        -0.5176 
      4 N          18.5052  -25.1802  -47.2755 N.am      1 UNK        -0.4884 
      5 CA         19.6571  -25.5848  -46.4637 C.3       1 UNK         0.0853 
      6 C6         20.2926  -26.8944  -47.0035 C.3       10 UNK        -0.0849 
      7 S7         19.1521  -28.3246  -47.0624 S.3       10 UNK        -0.2776 
      8 C8         19.7959  -29.3214  -45.6821 C.3       10 UNK         0.0316 
      9 C9         18.7193  -30.1838  -45.0417 C.ar      10 UNK        -0.0863 
     10 C10        18.8210  -31.5777  -45.0525 C.ar      10 UNK        -0.1009 
     11 C11        17.8719  -32.3626  -44.3896 C.ar      10 UNK        -0.0712 
     12 C12        16.8067  -31.7429  -43.7288 C.ar      10 UNK        -0.0894 
     13 C13        16.6825  -30.3508  -43.7227 C.ar      10 UNK        -0.0745 
     14 C14        17.6424  -29.5793  -44.3873 C.ar      10 UNK        -0.0972 
     15 C15        15.4893  -29.7046  -43.0235 C.3       10 UNK         0.0209 
     16 S16        15.8954  -28.1731  -42.1207 S.3       10 UNK        -0.2568 
     17 C17        16.9166  -28.7912  -40.7386 C.3       10 UNK        -0.0983 
     18 CA         18.4491  -28.6817  -40.9815 C.3       3 UNK         0.0876 
     19 N          18.8337  -27.3487  -41.4669 N.am      3 UNK        -0.4424 
     20 C          19.9103  -27.0827  -42.2138 C.2       2 UNK         0.4918 
     21 O          20.7390  -27.9295  -42.5440 O.2       2 UNK        -0.4875 
     22 CA         20.1304  -25.6216  -42.6334 C.3       2 UNK         0.0481 
     23 CB         21.3838  -25.0542  -41.9457 C.3       2 UNK        -0.1831 
     24 N          20.2814  -25.5084  -44.0861 N.am      2 UNK        -0.4498 
     25 C          19.2829  -25.6744  -44.9652 C.2       1 UNK         0.5027 
     26 O          18.1146  -25.8928  -44.6324 O.2       1 UNK        -0.4969 
     27 C          19.2656  -29.0511  -39.7201 C.2       3 UNK         0.5005 
     28 O          18.6913  -29.2902  -38.6550 O.2       3 UNK        -0.5279 
     29 N          20.5952  -29.0253  -39.8428 N.am      4 UNK        -0.4463 
     30 CA         21.5806  -29.1736  -38.7791 C.3       4 UNK         0.0283 
     31 CB         21.5765  -27.9229  -37.8752 C.3       4 UNK        -0.1875 
     32 C          22.9576  -29.3661  -39.4230 C.2       4 UNK         0.4949 
     33 O          23.1126  -29.1458  -40.6257 O.2       4 UNK        -0.5039 
     34 N          23.9579  -29.7073  -38.5986 N.am      5 UNK        -0.4663 
     35 CA         25.3591  -29.9474  -38.9835 C.3       5 UNK         0.0242 
     36 CB         26.1525  -30.3563  -37.7313 C.3       5 UNK        -0.1982 
     37 C          26.0666  -28.7854  -39.7153 C.2       5 UNK         0.5017 
     38 O          27.1280  -29.0031  -40.3000 O.2       5 UNK        -0.5012 
     39 N          25.4595  -27.5906  -39.6988 N.am      6 UNK        -0.4439 
     40 CA         25.8210  -26.4306  -40.5143 C.3       6 UNK         0.0297 
     41 CB         24.9690  -25.2277  -40.0773 C.3       6 UNK        -0.2006 
     42 C          25.6822  -26.6649  -42.0337 C.2       6 UNK         0.4892 
     43 O          26.3696  -25.9813  -42.7939 O.2       6 UNK        -0.5089 
     44 N          24.8303  -27.6133  -42.4536 N.am      7 UNK        -0.4243 
     45 CA         24.7232  -28.0613  -43.8414 C.3       7 UNK         0.0196 
     46 CB         23.5796  -27.3405  -44.5759 C.3       7 UNK        -0.2007 
     47 C          24.5989  -29.5877  -43.8902 C.2       7 UNK         0.5020 
     48 O          25.5496  -30.2452  -44.3154 O.2       7 UNK        -0.5147 
     49 N          23.4590  -30.1364  -43.4513 N.am      8 UNK        -0.4734 
     50 CA         23.1978  -31.5763  -43.4172 C.3       8 UNK         0.0238 
     51 CB         22.9141  -32.1057  -44.8381 C.3       8 UNK        -0.1912 
     52 C          22.0206  -31.8893  -42.4861 C.2       8 UNK         0.5038 
     53 O          21.1943  -31.0149  -42.2232 O.2       8 UNK        -0.5046 
     54 N          21.9517  -33.1542  -42.0510 N.am      9 UNK        -0.4200 
     55 CA         20.8641  -33.7368  -41.2435 C.3       9 UNK         0.0839 
     56 C          20.8034  -33.2188  -39.7757 C.2       9 UNK         0.5513 
     57 N          21.9068  -32.7479  -39.2074 N.am      9 UNK        -0.7519 
     58 O          19.7622  -33.2820  -39.1272 O.2       9 UNK        -0.4960 
     59 C59        19.4823  -33.7113  -41.9608 C.3       10 UNK        -0.0876 
     60 S60        19.5489  -34.4646  -43.6258 S.3       10 UNK        -0.2414 
     61 C61        17.9941  -33.8813  -44.3764 C.3       10 UNK         0.0169 
     62 H62        16.9283  -23.0033  -48.9430 H         1 UNK         0.0903 
     63 H63        16.4052  -24.6581  -48.6235 H         1 UNK         0.0903 
     64 H64        15.9366  -23.3585  -47.5257 H         1 UNK         0.0903 
     65 H65        18.0225  -25.9390  -47.7365 H         1 UNK         0.3096 
     66 H66        20.4095  -24.7975  -46.5554 H         1 UNK         0.1121 
     67 H67        20.6499  -26.7229  -48.0202 H         1 UNK         0.0849 
     68 H68        21.1858  -27.1510  -46.4323 H         1 UNK         0.0849 
     69 H69        20.6253  -29.9279  -46.0454 H         1 UNK         0.0865 
     70 H70        20.2092  -28.6706  -44.9136 H         1 UNK         0.0865 
     71 H71        19.6518  -32.0568  -45.5514 H         1 UNK         0.1346 
     72 H72        16.0684  -32.3478  -43.2201 H         1 UNK         0.1412 
     73 H73        17.5630  -28.5006  -44.3866 H         1 UNK         0.1426 
     74 H74        15.0199  -30.4042  -42.3301 H         1 UNK         0.0716 
     75 H75        14.7382  -29.4698  -43.7786 H         1 UNK         0.0716 
     76 H76        16.6285  -28.2123  -39.8589 H         1 UNK         0.0695 
     77 H77        16.6413  -29.8251  -40.5224 H         1 UNK         0.0695 
     78 H78        18.7152  -29.4163  -41.7456 H         1 UNK         0.0983 
     79 H79        18.2009  -26.5983  -41.2323 H         1 UNK         0.3095 
     80 H80        19.2698  -25.0233  -42.3262 H         1 UNK         0.0454 
     81 H81        21.2924  -25.1137  -40.8604 H         1 UNK         0.0851 
     82 H82        22.2832  -25.6048  -42.2254 H         1 UNK         0.0851 
     83 H83        21.5384  -24.0057  -42.2000 H         1 UNK         0.0851 
     84 H84        21.2181  -25.3518  -44.4272 H         1 UNK         0.2976 
     85 H85        20.9972  -28.8932  -40.7711 H         1 UNK         0.3116 
     86 H86        21.3391  -30.0620  -38.1933 H         1 UNK         0.0646 
     87 H87        22.3172  -28.0018  -37.0788 H         1 UNK         0.0847 
     88 H88        20.6103  -27.7808  -37.3913 H         1 UNK         0.0847 
     89 H89        21.7996  -27.0178  -38.4418 H         1 UNK         0.0847 
     90 H90        23.7427  -29.8415  -37.6206 H         1 UNK         0.3040 
     91 H91        25.3591  -30.7899  -39.6784 H         1 UNK         0.1015 
     92 H92        25.7341  -31.2507  -37.2692 H         1 UNK         0.0786 
     93 H93        26.1614  -29.5623  -36.9835 H         1 UNK         0.0786 
     94 H94        27.1909  -30.5810  -37.9799 H         1 UNK         0.0786 
     95 H95        24.5917  -27.5289  -39.1879 H         1 UNK         0.3172 
     96 H96        26.8693  -26.1999  -40.3141 H         1 UNK         0.0595 
     97 H97        25.1376  -24.9807  -39.0290 H         1 UNK         0.0839 
     98 H98        23.9037  -25.4174  -40.2113 H         1 UNK         0.0839 
     99 H99        25.2177  -24.3399  -40.6608 H         1 UNK         0.0839 
    100 H100       24.2984  -28.1470  -41.7684 H         1 UNK         0.2998 
    101 H101       25.6486  -27.8189  -44.3692 H         1 UNK         0.0822 
    102 H102       23.5144  -27.6771  -45.6111 H         1 UNK         0.0787 
    103 H103       22.6152  -27.5270  -44.1116 H         1 UNK         0.0787 
    104 H104       23.7411  -26.2628  -44.5930 H         1 UNK         0.0787 
    105 H105       22.7327  -29.5631  -43.0303 H         1 UNK         0.3055 
    106 H106       24.0823  -32.0754  -43.0148 H         1 UNK         0.1106 
    107 H107       22.0628  -31.5985  -45.2887 H         1 UNK         0.0828 
    108 H108       23.7708  -31.9711  -45.4981 H         1 UNK         0.0828 
    109 H109       22.6858  -33.1722  -44.8263 H         1 UNK         0.0828 
    110 H110       22.6756  -33.8024  -42.3243 H         1 UNK         0.2931 
    111 H111       21.1328  -34.7884  -41.1375 H         1 UNK         0.0412 
    112 H112       21.8742  -32.4545  -38.2449 H         1 UNK         0.3472 
    113 H113       22.7714  -32.7135  -39.7221 H         1 UNK         0.3472 
    114 H114       19.1221  -32.6842  -42.0319 H         1 UNK         0.0970 
    115 H115       18.7362  -34.2550  -41.3788 H         1 UNK         0.0970 
    116 H116       17.1586  -34.3352  -43.8411 H         1 UNK         0.0612 
    117 H117       17.9394  -34.2496  -45.4015 H         1 UNK         0.0612 
@<TRIPOS>BOND
     1    1    2 1    
     2    1   62 1    
     3    1   63 1    
     4    1   64 1    
     5    2    3 2    
     6    2    4 am   BACKBONE|DICT|INTERRES
     7    4    5 1    
     8    4   65 1    
     9    5    6 1    
    10    5   25 1    
    11    5   66 1    
    12    6    7 1    
    13    6   67 1    
    14    6   68 1    
    15    7    8 1    
    16    8    9 1    
    17    8   69 1    
    18    8   70 1    
    19    9   10 ar   
    20    9   14 ar   
    21   10   11 ar   
    22   10   71 1    
    23   11   12 ar   
    24   11   61 1    
    25   12   13 ar   
    26   12   72 1    
    27   13   14 ar   
    28   13   15 1    
    29   14   73 1    
    30   15   16 1    
    31   15   74 1    
    32   15   75 1    
    33   16   17 1    
    34   17   18 1    
    35   17   76 1    
    36   17   77 1    
    37   18   19 1    
    38   18   27 1    
    39   18   78 1    
    40   19   20 am   BACKBONE|DICT|INTERRES
    41   19   79 1    
    42   20   21 2    
    43   20   22 1    
    44   22   23 1    
    45   22   24 1    
    46   22   80 1    
    47   23   81 1    
    48   23   82 1    
    49   23   83 1    
    50   24   25 am   BACKBONE|DICT|INTERRES
    51   24   84 1    
    52   25   26 2    
    53   27   28 2    
    54   27   29 am   BACKBONE|DICT|INTERRES
    55   29   30 1    
    56   29   85 1    
    57   30   31 1    
    58   30   32 1    
    59   30   86 1    
    60   31   87 1    
    61   31   88 1    
    62   31   89 1    
    63   32   33 2    
    64   32   34 am   BACKBONE|DICT|INTERRES
    65   34   35 1    
    66   34   90 1    
    67   35   36 1    
    68   35   37 1    
    69   35   91 1    
    70   36   92 1    
    71   36   93 1    
    72   36   94 1    
    73   37   38 2    
    74   37   39 am   BACKBONE|DICT|INTERRES
    75   39   40 1    
    76   39   95 1    
    77   40   41 1    
    78   40   42 1    
    79   40   96 1    
    80   41   97 1    
    81   41   98 1    
    82   41   99 1    
    83   42   43 2    
    84   42   44 am   BACKBONE|DICT|INTERRES
    85   44   45 1    
    86   44  100 1    
    87   45   46 1    
    88   45   47 1    
    89   45  101 1    
    90   46  102 1    
    91   46  103 1    
    92   46  104 1    
    93   47   48 2    
    94   47   49 am   BACKBONE|DICT|INTERRES
    95   49   50 1    
    96   49  105 1    
    97   50   51 1    
    98   50   52 1    
    99   50  106 1    
   100   51  107 1    
   101   51  108 1    
   102   51  109 1    
   103   52   53 2    
   104   52   54 am   BACKBONE|DICT|INTERRES
   105   54   55 1    
   106   54  110 1    
   107   55   56 1    
   108   55   59 1    
   109   55  111 1    
   110   56   57 am   BACKBONE|DICT|INTERRES
   111   56   58 2    
   112   57  112 1    
   113   57  113 1    
   114   59   60 1    
   115   59  114 1    
   116   59  115 1    
   117   60   61 1    
   118   61  116 1    
   119   61  117 1    
@<TRIPOS>SUBSTRUCTURE
     1 UNK         1 GROUP             0       ****    0 ROOT    
