@<TRIPOS>MOLECULE
3R8
117   119    1
SMALL
USER_CHARGES


@<TRIPOS>ATOM
      1 CA         12.5444  -26.2316  -47.0709 C.3       0 UNK        -0.2013 
      2 C          13.7158  -26.8907  -46.3579 C.2       0 UNK         0.4866 
      3 O          13.7956  -28.1191  -46.3176 O.2       0 UNK        -0.5176 
      4 N          14.6193  -26.0853  -45.7864 N.am      1 UNK        -0.4884 
      5 CA         15.8323  -26.5460  -45.1030 C.3       1 UNK         0.0853 
      6 C6         16.4396  -25.4409  -44.2039 C.3       10 UNK        -0.0849 
      7 S7         15.3667  -24.9637  -42.8051 S.3       10 UNK        -0.2776 
      8 C8         15.3107  -26.4734  -41.7726 C.3       10 UNK         0.0316 
      9 C9         16.6682  -27.1476  -41.6049 C.ar      10 UNK        -0.0863 
     10 C10        16.8655  -28.4533  -42.0653 C.ar      10 UNK        -0.1009 
     11 C11        18.1131  -29.0697  -41.9392 C.ar      10 UNK        -0.0712 
     12 C12        19.1634  -28.3734  -41.3341 C.ar      10 UNK        -0.0894 
     13 C13        18.9861  -27.0634  -40.8752 C.ar      10 UNK        -0.0745 
     14 C14        17.7291  -26.4640  -41.0028 C.ar      10 UNK        -0.0972 
     15 C15        20.1313  -26.2755  -40.2390 C.3       10 UNK         0.0209 
     16 S16        21.7432  -26.4369  -41.0887 S.3       10 UNK        -0.2568 
     17 C17        21.3260  -26.1089  -42.8308 C.3       10 UNK        -0.0983 
     18 CA         21.4858  -27.3874  -43.7006 C.3       3 UNK         0.0876 
     19 N          20.4111  -27.4965  -44.6889 N.am      3 UNK        -0.4424 
     20 C          20.1260  -28.5970  -45.3972 C.2       2 UNK         0.4918 
     21 O          20.7388  -29.6597  -45.2900 O.2       2 UNK        -0.4875 
     22 CA         18.9138  -28.4956  -46.3359 C.3       2 UNK         0.0481 
     23 CB         18.5035  -29.8503  -46.9453 C.3       2 UNK        -0.1831 
     24 N          17.7851  -27.9220  -45.6030 N.am      2 UNK        -0.4498 
     25 C          16.8917  -27.0587  -46.1004 C.2       1 UNK         0.5027 
     26 O          16.9087  -26.6412  -47.2615 O.2       1 UNK        -0.4969 
     27 C          22.8633  -27.4508  -44.3880 C.2       3 UNK         0.5005 
     28 O          23.0945  -26.6837  -45.3273 O.2       3 UNK        -0.5279 
     29 N          23.7358  -28.3559  -43.9265 N.am      4 UNK        -0.4463 
     30 CA         25.0620  -28.5878  -44.5090 C.3       4 UNK         0.0283 
     31 CB         25.1546  -30.0446  -44.9894 C.3       4 UNK        -0.1875 
     32 C          26.2045  -28.2652  -43.5346 C.2       4 UNK         0.4949 
     33 O          27.3157  -27.9986  -43.9936 O.2       4 UNK        -0.5039 
     34 N          25.9325  -28.2821  -42.2251 N.am      5 UNK        -0.4663 
     35 CA         26.8848  -27.9674  -41.1604 C.3       5 UNK         0.0242 
     36 CB         27.8758  -29.1378  -40.9552 C.3       5 UNK        -0.1982 
     37 C          26.0729  -27.5999  -39.9109 C.2       5 UNK         0.5017 
     38 O          25.1189  -26.8281  -40.0226 O.2       5 UNK        -0.5012 
     39 N          26.4130  -28.1844  -38.7545 N.am      6 UNK        -0.4439 
     40 CA         25.5708  -28.2053  -37.5577 C.3       6 UNK         0.0297 
     41 CB         26.4370  -28.5496  -36.3323 C.3       6 UNK        -0.2006 
     42 C          24.4394  -29.2228  -37.7851 C.2       6 UNK         0.4892 
     43 O          24.5806  -30.3876  -37.4092 O.2       6 UNK        -0.5089 
     44 N          23.3915  -28.7697  -38.4877 N.am      7 UNK        -0.4243 
     45 CA         22.3561  -29.5635  -39.1514 C.3       7 UNK         0.0196 
     46 CB         21.5422  -30.4331  -38.1657 C.3       7 UNK        -0.2007 
     47 C          22.9707  -30.3323  -40.3338 C.2       7 UNK         0.5020 
     48 O          23.1675  -29.7380  -41.3979 O.2       7 UNK        -0.5147 
     49 N          23.2859  -31.6172  -40.1128 N.am      8 UNK        -0.4734 
     50 CA         23.8576  -32.5697  -41.0741 C.3       8 UNK         0.0238 
     51 CB         25.2982  -32.1670  -41.4562 C.3       8 UNK        -0.1912 
     52 C          22.9336  -32.7970  -42.2862 C.2       8 UNK         0.5038 
     53 O          23.3820  -32.7489  -43.4322 O.2       8 UNK        -0.5046 
     54 N          21.6478  -33.0263  -41.9892 N.am      9 UNK        -0.4200 
     55 CA         20.5553  -33.1959  -42.9606 C.3       9 UNK         0.0839 
     56 C          20.6456  -34.4662  -43.8567 C.2       9 UNK         0.5513 
     57 N          21.4677  -35.4566  -43.5314 N.am      9 UNK        -0.7519 
     58 O          19.9494  -34.5543  -44.8646 O.2       9 UNK        -0.4960 
     59 C59        19.1644  -33.1227  -42.2728 C.3       10 UNK        -0.0876 
     60 S60        18.9343  -31.6345  -41.2409 S.3       10 UNK        -0.2414 
     61 C61        18.3383  -30.4672  -42.4994 C.3       10 UNK         0.0169 
     62 H62        11.6040  -26.5523  -46.6234 H         1 UNK         0.0903 
     63 H63        12.5925  -25.1442  -47.0156 H         1 UNK         0.0903 
     64 H64        12.5369  -26.5175  -48.1224 H         1 UNK         0.0903 
     65 H65        14.5118  -25.0835  -45.8584 H         1 UNK         0.3096 
     66 H66        15.5506  -27.3940  -44.4767 H         1 UNK         0.1121 
     67 H67        17.4076  -25.7418  -43.7996 H         1 UNK         0.0849 
     68 H68        16.6411  -24.5446  -44.7938 H         1 UNK         0.0849 
     69 H69        14.9212  -26.2110  -40.7880 H         1 UNK         0.0865 
     70 H70        14.5863  -27.1647  -42.2058 H         1 UNK         0.0865 
     71 H71        16.0490  -28.9887  -42.5307 H         1 UNK         0.1346 
     72 H72        20.1254  -28.8540  -41.2402 H         1 UNK         0.1412 
     73 H73        17.5752  -25.4525  -40.6513 H         1 UNK         0.1426 
     74 H74        20.2479  -26.6033  -39.2054 H         1 UNK         0.0716 
     75 H75        19.8822  -25.2140  -40.1977 H         1 UNK         0.0716 
     76 H76        20.3027  -25.7329  -42.8720 H         1 UNK         0.0695 
     77 H77        21.9432  -25.2835  -43.1916 H         1 UNK         0.0695 
     78 H78        21.3969  -28.2702  -43.0649 H         1 UNK         0.0983 
     79 H79        19.8863  -26.6552  -44.8727 H         1 UNK         0.3095 
     80 H80        19.2082  -27.8276  -47.1479 H         1 UNK         0.0454 
     81 H81        19.3240  -30.2881  -47.5152 H         1 UNK         0.0851 
     82 H82        18.2198  -30.5686  -46.1752 H         1 UNK         0.0851 
     83 H83        17.6604  -29.7392  -47.6271 H         1 UNK         0.0851 
     84 H84        17.7249  -28.1837  -44.6280 H         1 UNK         0.2976 
     85 H85        23.4717  -28.9390  -43.1341 H         1 UNK         0.3116 
     86 H86        25.2138  -27.9483  -45.3809 H         1 UNK         0.0646 
     87 H87        26.1287  -30.2505  -45.4350 H         1 UNK         0.0847 
     88 H88        24.3995  -30.2596  -45.7457 H         1 UNK         0.0847 
     89 H89        25.0136  -30.7504  -44.1726 H         1 UNK         0.0847 
     90 H90        24.9834  -28.4590  -41.9158 H         1 UNK         0.3040 
     91 H91        27.4465  -27.0745  -41.4434 H         1 UNK         0.1015 
     92 H92        28.4187  -29.3641  -41.8729 H         1 UNK         0.0786 
     93 H93        27.3681  -30.0512  -40.6439 H         1 UNK         0.0786 
     94 H94        28.6285  -28.8958  -40.2039 H         1 UNK         0.0786 
     95 H95        27.1958  -28.8225  -38.7604 H         1 UNK         0.3172 
     96 H96        25.1320  -27.2178  -37.3973 H         1 UNK         0.0595 
     97 H97        25.8287  -28.5936  -35.4280 H         1 UNK         0.0839 
     98 H98        27.2072  -27.7960  -36.1678 H         1 UNK         0.0839 
     99 H99        26.9318  -29.5160  -36.4385 H         1 UNK         0.0839 
    100 H100       23.4537  -27.8117  -38.8133 H         1 UNK         0.2998 
    101 H101       21.6579  -28.8480  -39.5788 H         1 UNK         0.0822 
    102 H102       21.0600  -29.8127  -37.4103 H         1 UNK         0.0787 
    103 H103       20.7504  -30.9705  -38.6892 H         1 UNK         0.0787 
    104 H104       22.1469  -31.1730  -37.6424 H         1 UNK         0.0787 
    105 H105       23.1240  -31.9756  -39.1812 H         1 UNK         0.3055 
    106 H106       23.9183  -33.5323  -40.5635 H         1 UNK         0.1106 
    107 H107       25.3378  -31.1889  -41.9328 H         1 UNK         0.0828 
    108 H108       25.9398  -32.1322  -40.5761 H         1 UNK         0.0828 
    109 H109       25.7388  -32.8860  -42.1480 H         1 UNK         0.0828 
    110 H110       21.3724  -33.0296  -41.0188 H         1 UNK         0.2931 
    111 H111       20.6246  -32.3478  -43.6449 H         1 UNK         0.0412 
    112 H112       22.0450  -35.3933  -42.7086 H         1 UNK         0.3472 
    113 H113       21.5166  -36.2725  -44.1214 H         1 UNK         0.3472 
    114 H114       18.3650  -33.1621  -43.0156 H         1 UNK         0.0970 
    115 H115       19.0168  -33.9947  -41.6329 H         1 UNK         0.0970 
    116 H116       17.4210  -30.8602  -42.9405 H         1 UNK         0.0612 
    117 H117       19.0722  -30.4117  -43.3023 H         1 UNK         0.0612 
@<TRIPOS>BOND
     1    1    2 1    
     2    1   62 1    
     3    1   63 1    
     4    1   64 1    
     5    2    3 2    
     6    2    4 am   BACKBONE|DICT|INTERRES
     7    4    5 1    
     8    4   65 1    
     9    5    6 1    
    10    5   25 1    
    11    5   66 1    
    12    6    7 1    
    13    6   67 1    
    14    6   68 1    
    15    7    8 1    
    16    8    9 1    
    17    8   69 1    
    18    8   70 1    
    19    9   10 ar   
    20    9   14 ar   
    21   10   11 ar   
    22   10   71 1    
    23   11   12 ar   
    24   11   61 1    
    25   12   13 ar   
    26   12   72 1    
    27   13   14 ar   
    28   13   15 1    
    29   14   73 1    
    30   15   16 1    
    31   15   74 1    
    32   15   75 1    
    33   16   17 1    
    34   17   18 1    
    35   17   76 1    
    36   17   77 1    
    37   18   19 1    
    38   18   27 1    
    39   18   78 1    
    40   19   20 am   BACKBONE|DICT|INTERRES
    41   19   79 1    
    42   20   21 2    
    43   20   22 1    
    44   22   23 1    
    45   22   24 1    
    46   22   80 1    
    47   23   81 1    
    48   23   82 1    
    49   23   83 1    
    50   24   25 am   BACKBONE|DICT|INTERRES
    51   24   84 1    
    52   25   26 2    
    53   27   28 2    
    54   27   29 am   BACKBONE|DICT|INTERRES
    55   29   30 1    
    56   29   85 1    
    57   30   31 1    
    58   30   32 1    
    59   30   86 1    
    60   31   87 1    
    61   31   88 1    
    62   31   89 1    
    63   32   33 2    
    64   32   34 am   BACKBONE|DICT|INTERRES
    65   34   35 1    
    66   34   90 1    
    67   35   36 1    
    68   35   37 1    
    69   35   91 1    
    70   36   92 1    
    71   36   93 1    
    72   36   94 1    
    73   37   38 2    
    74   37   39 am   BACKBONE|DICT|INTERRES
    75   39   40 1    
    76   39   95 1    
    77   40   41 1    
    78   40   42 1    
    79   40   96 1    
    80   41   97 1    
    81   41   98 1    
    82   41   99 1    
    83   42   43 2    
    84   42   44 am   BACKBONE|DICT|INTERRES
    85   44   45 1    
    86   44  100 1    
    87   45   46 1    
    88   45   47 1    
    89   45  101 1    
    90   46  102 1    
    91   46  103 1    
    92   46  104 1    
    93   47   48 2    
    94   47   49 am   BACKBONE|DICT|INTERRES
    95   49   50 1    
    96   49  105 1    
    97   50   51 1    
    98   50   52 1    
    99   50  106 1    
   100   51  107 1    
   101   51  108 1    
   102   51  109 1    
   103   52   53 2    
   104   52   54 am   BACKBONE|DICT|INTERRES
   105   54   55 1    
   106   54  110 1    
   107   55   56 1    
   108   55   59 1    
   109   55  111 1    
   110   56   57 am   BACKBONE|DICT|INTERRES
   111   56   58 2    
   112   57  112 1    
   113   57  113 1    
   114   59   60 1    
   115   59  114 1    
   116   59  115 1    
   117   60   61 1    
   118   61  116 1    
   119   61  117 1    
@<TRIPOS>SUBSTRUCTURE
     1 UNK         1 GROUP             0       ****    0 ROOT    
