@<TRIPOS>MOLECULE
3R8
117   119    1
SMALL
USER_CHARGES


@<TRIPOS>ATOM
      1 CA         20.3573  -26.1262  -49.1383 C.3       0 UNK        -0.2013 
      2 C          19.4887  -25.9051  -47.9090 C.2       0 UNK         0.4866 
      3 O          19.1044  -24.7689  -47.6324 O.2       0 UNK        -0.5176 
      4 N          19.1898  -26.9833  -47.1691 N.am      1 UNK        -0.4884 
      5 CA         18.3419  -27.0157  -45.9632 C.3       1 UNK         0.0853 
      6 C6         16.8603  -26.6293  -46.2335 C.3       10 UNK        -0.0849 
      7 S7         16.0714  -27.7750  -47.4157 S.3       10 UNK        -0.2776 
      8 C8         15.0177  -28.7788  -46.3171 C.3       10 UNK         0.0316 
      9 C9         15.8198  -29.5302  -45.2613 C.ar      10 UNK        -0.0863 
     10 C10        16.6458  -30.5975  -45.6302 C.ar      10 UNK        -0.1009 
     11 C11        17.3721  -31.3065  -44.6670 C.ar      10 UNK        -0.0712 
     12 C12        17.2435  -30.9456  -43.3220 C.ar      10 UNK        -0.0894 
     13 C13        16.4418  -29.8676  -42.9392 C.ar      10 UNK        -0.0745 
     14 C14        15.7295  -29.1640  -43.9140 C.ar      10 UNK        -0.0972 
     15 C15        16.3360  -29.4763  -41.4702 C.3       10 UNK         0.0209 
     16 S16        17.5475  -28.1966  -41.0015 S.3       10 UNK        -0.2568 
     17 C17        19.1117  -29.1423  -41.0186 C.3       10 UNK        -0.0983 
     18 CA         20.4000  -28.2901  -41.1032 C.3       3 UNK         0.0876 
     19 N          20.3205  -27.2254  -42.1015 N.am      3 UNK        -0.4424 
     20 C          21.3650  -26.5375  -42.5753 C.2       2 UNK         0.4918 
     21 O          22.5267  -26.7378  -42.2133 O.2       2 UNK        -0.4875 
     22 CA         21.0660  -25.4950  -43.6693 C.3       2 UNK         0.0481 
     23 CB         22.3494  -24.8758  -44.2541 C.3       2 UNK        -0.1831 
     24 N          20.2833  -26.0854  -44.7589 N.am      2 UNK        -0.4498 
     25 C          18.9525  -26.2530  -44.7642 C.2       1 UNK         0.5027 
     26 O          18.2303  -25.8762  -43.8399 O.2       1 UNK        -0.4969 
     27 C          20.8642  -27.7540  -39.7380 C.2       3 UNK         0.5005 
     28 O          20.4034  -26.6958  -39.3033 O.2       3 UNK        -0.5279 
     29 N          21.8224  -28.4650  -39.1268 N.am      4 UNK        -0.4463 
     30 CA         22.5625  -28.1529  -37.8949 C.3       4 UNK         0.0283 
     31 CB         21.6251  -27.9531  -36.6880 C.3       4 UNK        -0.1875 
     32 C          23.5518  -26.9809  -38.0395 C.2       4 UNK         0.4949 
     33 O          24.6150  -27.0192  -37.4205 O.2       4 UNK        -0.5039 
     34 N          23.2119  -25.9807  -38.8629 N.am      5 UNK        -0.4663 
     35 CA         24.0683  -24.8505  -39.2257 C.3       5 UNK         0.0242 
     36 CB         23.2306  -23.7970  -39.9687 C.3       5 UNK        -0.1982 
     37 C          25.2830  -25.2706  -40.0708 C.2       5 UNK         0.5017 
     38 O          26.3656  -24.7141  -39.8824 O.2       5 UNK        -0.5012 
     39 N          25.0857  -26.2425  -40.9708 N.am      6 UNK        -0.4439 
     40 CA         26.1252  -26.8040  -41.8320 C.3       6 UNK         0.0297 
     41 CB         26.2722  -25.9589  -43.1103 C.3       6 UNK        -0.2006 
     42 C          25.8540  -28.2755  -42.1720 C.2       6 UNK         0.4892 
     43 O          26.7749  -29.0885  -42.0821 O.2       6 UNK        -0.5089 
     44 N          24.6163  -28.5961  -42.5721 N.am      7 UNK        -0.4243 
     45 CA         24.2096  -29.9400  -42.9833 C.3       7 UNK         0.0196 
     46 CB         23.0486  -29.8306  -43.9869 C.3       7 UNK        -0.2007 
     47 C          23.7946  -30.7935  -41.7770 C.2       7 UNK         0.5020 
     48 O          23.1839  -30.2769  -40.8384 O.2       7 UNK        -0.5147 
     49 N          24.0876  -32.0965  -41.8473 N.am      8 UNK        -0.4734 
     50 CA         23.6349  -33.0875  -40.8660 C.3       8 UNK         0.0238 
     51 CB         24.6834  -34.2062  -40.7497 C.3       8 UNK        -0.1912 
     52 C          22.2617  -33.6786  -41.2293 C.2       8 UNK         0.5038 
     53 O          21.4946  -34.0084  -40.3242 O.2       8 UNK        -0.5046 
     54 N          21.9822  -33.8038  -42.5364 N.am      9 UNK        -0.4200 
     55 CA         20.7998  -34.4698  -43.1087 C.3       9 UNK         0.0839 
     56 C          20.7401  -35.9949  -42.7722 C.2       9 UNK         0.5513 
     57 N          19.5770  -36.6255  -42.8521 N.am      9 UNK        -0.7519 
     58 O          21.7552  -36.6285  -42.4880 O.2       9 UNK        -0.4960 
     59 C59        19.4889  -33.6765  -42.8213 C.3       10 UNK        -0.0876 
     60 S60        18.1940  -33.9376  -44.0897 S.3       10 UNK        -0.2414 
     61 C61        18.3185  -32.4245  -45.1019 C.3       10 UNK         0.0169 
     62 H62        20.6316  -27.1736  -49.2629 H         1 UNK         0.0903 
     63 H63        19.8254  -25.8071  -50.0342 H         1 UNK         0.0903 
     64 H64        21.2740  -25.5423  -49.0603 H         1 UNK         0.0903 
     65 H65        19.5366  -27.8855  -47.4659 H         1 UNK         0.3096 
     66 H66        18.3414  -28.0567  -45.6351 H         1 UNK         0.1121 
     67 H67        16.7893  -25.6148  -46.6278 H         1 UNK         0.0849 
     68 H68        16.2770  -26.6270  -45.3113 H         1 UNK         0.0849 
     69 H69        14.2696  -28.1345  -45.8521 H         1 UNK         0.0865 
     70 H70        14.4624  -29.4973  -46.9217 H         1 UNK         0.0865 
     71 H71        16.7292  -30.8661  -46.6748 H         1 UNK         0.1346 
     72 H72        17.7770  -31.4953  -42.5622 H         1 UNK         0.1412 
     73 H73        15.1023  -28.3333  -43.6198 H         1 UNK         0.1426 
     74 H74        16.4667  -30.3511  -40.8312 H         1 UNK         0.0716 
     75 H75        15.3332  -29.0994  -41.2637 H         1 UNK         0.0716 
     76 H76        19.1079  -29.7922  -41.8898 H         1 UNK         0.0695 
     77 H77        19.1340  -29.8110  -40.1558 H         1 UNK         0.0695 
     78 H78        21.1789  -28.9614  -41.4601 H         1 UNK         0.0983 
     79 H79        19.3892  -26.9677  -42.4069 H         1 UNK         0.3095 
     80 H80        20.4906  -24.6921  -43.2043 H         1 UNK         0.0454 
     81 H81        22.9812  -25.6275  -44.7285 H         1 UNK         0.0851 
     82 H82        22.9437  -24.3948  -43.4761 H         1 UNK         0.0851 
     83 H83        22.1178  -24.1140  -44.9986 H         1 UNK         0.0851 
     84 H84        20.8032  -26.4442  -45.5468 H         1 UNK         0.2976 
     85 H85        22.2036  -29.2586  -39.6434 H         1 UNK         0.3116 
     86 H86        23.1657  -29.0398  -37.6940 H         1 UNK         0.0646 
     87 H87        21.0202  -27.0510  -36.7817 H         1 UNK         0.0847 
     88 H88        22.1991  -27.8587  -35.7654 H         1 UNK         0.0847 
     89 H89        20.9501  -28.7998  -36.5645 H         1 UNK         0.0847 
     90 H90        22.2855  -26.0163  -39.2761 H         1 UNK         0.3040 
     91 H91        24.4463  -24.4038  -38.3034 H         1 UNK         0.1015 
     92 H92        22.8029  -24.1955  -40.8891 H         1 UNK         0.0786 
     93 H93        23.8401  -22.9335  -40.2389 H         1 UNK         0.0786 
     94 H94        22.4110  -23.4332  -39.3487 H         1 UNK         0.0786 
     95 H95        24.1463  -26.6098  -41.0858 H         1 UNK         0.3172 
     96 H96        27.0763  -26.7787  -41.2953 H         1 UNK         0.0595 
     97 H97        25.3375  -25.9084  -43.6695 H         1 UNK         0.0839 
     98 H98        27.0290  -26.3803  -43.7733 H         1 UNK         0.0839 
     99 H99        26.5780  -24.9386  -42.8785 H         1 UNK         0.0839 
    100 H100       23.8892  -27.8856  -42.5701 H         1 UNK         0.2998 
    101 H101       25.0485  -30.4251  -43.4877 H         1 UNK         0.0822 
    102 H102       23.3385  -29.2511  -44.8636 H         1 UNK         0.0787 
    103 H103       22.7399  -30.8158  -44.3391 H         1 UNK         0.0787 
    104 H104       22.1721  -29.3542  -43.5496 H         1 UNK         0.0787 
    105 H105       24.6160  -32.4392  -42.6374 H         1 UNK         0.3055 
    106 H106       23.5393  -32.6144  -39.8854 H         1 UNK         0.1106 
    107 H107       24.3804  -34.9476  -40.0088 H         1 UNK         0.0828 
    108 H108       24.8256  -34.7318  -41.6949 H         1 UNK         0.0828 
    109 H109       25.6500  -33.8124  -40.4349 H         1 UNK         0.0828 
    110 H110       22.6874  -33.5267  -43.2015 H         1 UNK         0.2931 
    111 H111       20.9761  -34.4309  -44.1844 H         1 UNK         0.0412 
    112 H112       19.5313  -37.6134  -42.6562 H         1 UNK         0.3472 
    113 H113       18.7460  -36.1209  -43.1256 H         1 UNK         0.3472 
    114 H114       19.7153  -32.6109  -42.7732 H         1 UNK         0.0970 
    115 H115       19.0878  -33.9333  -41.8391 H         1 UNK         0.0970 
    116 H116       18.1078  -32.7067  -46.1346 H         1 UNK         0.0612 
    117 H117       19.3442  -32.0536  -45.0935 H         1 UNK         0.0612 
@<TRIPOS>BOND
     1    1    2 1    
     2    1   62 1    
     3    1   63 1    
     4    1   64 1    
     5    2    3 2    
     6    2    4 am   BACKBONE|DICT|INTERRES
     7    4    5 1    
     8    4   65 1    
     9    5    6 1    
    10    5   25 1    
    11    5   66 1    
    12    6    7 1    
    13    6   67 1    
    14    6   68 1    
    15    7    8 1    
    16    8    9 1    
    17    8   69 1    
    18    8   70 1    
    19    9   10 ar   
    20    9   14 ar   
    21   10   11 ar   
    22   10   71 1    
    23   11   12 ar   
    24   11   61 1    
    25   12   13 ar   
    26   12   72 1    
    27   13   14 ar   
    28   13   15 1    
    29   14   73 1    
    30   15   16 1    
    31   15   74 1    
    32   15   75 1    
    33   16   17 1    
    34   17   18 1    
    35   17   76 1    
    36   17   77 1    
    37   18   19 1    
    38   18   27 1    
    39   18   78 1    
    40   19   20 am   BACKBONE|DICT|INTERRES
    41   19   79 1    
    42   20   21 2    
    43   20   22 1    
    44   22   23 1    
    45   22   24 1    
    46   22   80 1    
    47   23   81 1    
    48   23   82 1    
    49   23   83 1    
    50   24   25 am   BACKBONE|DICT|INTERRES
    51   24   84 1    
    52   25   26 2    
    53   27   28 2    
    54   27   29 am   BACKBONE|DICT|INTERRES
    55   29   30 1    
    56   29   85 1    
    57   30   31 1    
    58   30   32 1    
    59   30   86 1    
    60   31   87 1    
    61   31   88 1    
    62   31   89 1    
    63   32   33 2    
    64   32   34 am   BACKBONE|DICT|INTERRES
    65   34   35 1    
    66   34   90 1    
    67   35   36 1    
    68   35   37 1    
    69   35   91 1    
    70   36   92 1    
    71   36   93 1    
    72   36   94 1    
    73   37   38 2    
    74   37   39 am   BACKBONE|DICT|INTERRES
    75   39   40 1    
    76   39   95 1    
    77   40   41 1    
    78   40   42 1    
    79   40   96 1    
    80   41   97 1    
    81   41   98 1    
    82   41   99 1    
    83   42   43 2    
    84   42   44 am   BACKBONE|DICT|INTERRES
    85   44   45 1    
    86   44  100 1    
    87   45   46 1    
    88   45   47 1    
    89   45  101 1    
    90   46  102 1    
    91   46  103 1    
    92   46  104 1    
    93   47   48 2    
    94   47   49 am   BACKBONE|DICT|INTERRES
    95   49   50 1    
    96   49  105 1    
    97   50   51 1    
    98   50   52 1    
    99   50  106 1    
   100   51  107 1    
   101   51  108 1    
   102   51  109 1    
   103   52   53 2    
   104   52   54 am   BACKBONE|DICT|INTERRES
   105   54   55 1    
   106   54  110 1    
   107   55   56 1    
   108   55   59 1    
   109   55  111 1    
   110   56   57 am   BACKBONE|DICT|INTERRES
   111   56   58 2    
   112   57  112 1    
   113   57  113 1    
   114   59   60 1    
   115   59  114 1    
   116   59  115 1    
   117   60   61 1    
   118   61  116 1    
   119   61  117 1    
@<TRIPOS>SUBSTRUCTURE
     1 UNK         1 GROUP             0       ****    0 ROOT    
