@<TRIPOS>MOLECULE
3R8
117   119    1
SMALL
USER_CHARGES


@<TRIPOS>ATOM
      1 CA         22.2949  -23.2746  -44.7416 C.3       0 UNK        -0.2013 
      2 C          21.6364  -23.7494  -46.0357 C.2       0 UNK         0.4866 
      3 O          21.6007  -22.9937  -47.0043 O.2       0 UNK        -0.5176 
      4 N          21.1092  -24.9805  -46.1143 N.am      1 UNK        -0.4884 
      5 CA         21.0383  -25.9862  -45.0465 C.3       1 UNK         0.0853 
      6 C6         20.5690  -27.3633  -45.5770 C.3       10 UNK        -0.0849 
      7 S7         21.7165  -28.1575  -46.7471 S.3       10 UNK        -0.2776 
      8 C8         20.6635  -29.4701  -47.4706 C.3       10 UNK         0.0316 
      9 C9         19.7598  -30.1541  -46.4471 C.ar      10 UNK        -0.0863 
     10 C10        20.3118  -30.8629  -45.3751 C.ar      10 UNK        -0.1009 
     11 C11        19.4856  -31.4235  -44.3962 C.ar      10 UNK        -0.0712 
     12 C12        18.0979  -31.3170  -44.5178 C.ar      10 UNK        -0.0894 
     13 C13        17.5335  -30.6061  -45.5803 C.ar      10 UNK        -0.0745 
     14 C14        18.3685  -30.0348  -46.5462 C.ar      10 UNK        -0.0972 
     15 C15        16.0244  -30.4209  -45.6624 C.3       10 UNK         0.0209 
     16 S16        15.5115  -28.7651  -45.0923 S.3       10 UNK        -0.2568 
     17 C17        15.7897  -28.8587  -43.2873 C.3       10 UNK        -0.0983 
     18 CA         17.1936  -28.3434  -42.8716 C.3       3 UNK         0.0876 
     19 N          17.4837  -26.9877  -43.3397 N.am      3 UNK        -0.4424 
     20 C          17.1075  -25.8100  -42.8236 C.2       2 UNK         0.4918 
     21 O          16.2675  -25.6840  -41.9325 O.2       2 UNK        -0.4875 
     22 CA         17.8412  -24.5607  -43.3751 C.3       2 UNK         0.0481 
     23 CB         18.2576  -23.6045  -42.2378 C.3       2 UNK        -0.1831 
     24 N          19.0023  -24.8677  -44.2350 N.am      2 UNK        -0.4498 
     25 C          20.0873  -25.5891  -43.9039 C.2       1 UNK         0.5027 
     26 O          20.2906  -26.0368  -42.7746 O.2       1 UNK        -0.4969 
     27 C          17.5282  -28.5568  -41.3762 C.2       3 UNK         0.5005 
     28 O          16.8117  -29.2891  -40.6899 O.2       3 UNK        -0.5279 
     29 N          18.6107  -27.9204  -40.8965 N.am      4 UNK        -0.4463 
     30 CA         19.0681  -28.0059  -39.5056 C.3       4 UNK         0.0283 
     31 CB         18.1165  -27.2267  -38.5742 C.3       4 UNK        -0.1875 
     32 C          20.5081  -27.5125  -39.2967 C.2       4 UNK         0.4949 
     33 O          21.1742  -28.0089  -38.3885 O.2       4 UNK        -0.5039 
     34 N          20.9597  -26.5266  -40.0853 N.am      5 UNK        -0.4663 
     35 CA         22.2518  -25.8583  -39.8992 C.3       5 UNK         0.0242 
     36 CB         22.1628  -24.4268  -40.4562 C.3       5 UNK        -0.1982 
     37 C          23.4291  -26.6090  -40.5416 C.2       5 UNK         0.5017 
     38 O          24.5685  -26.3954  -40.1246 O.2       5 UNK        -0.5012 
     39 N          23.1515  -27.4501  -41.5468 N.am      6 UNK        -0.4439 
     40 CA         24.1515  -28.2734  -42.2280 C.3       6 UNK         0.0297 
     41 CB         23.5654  -28.8153  -43.5413 C.3       6 UNK        -0.2006 
     42 C          24.6286  -29.4330  -41.3415 C.2       6 UNK         0.4892 
     43 O          23.8152  -30.0504  -40.6523 O.2       6 UNK        -0.5089 
     44 N          25.9265  -29.7561  -41.4317 N.am      7 UNK        -0.4243 
     45 CA         26.5561  -30.8868  -40.7354 C.3       7 UNK         0.0196 
     46 CB         28.0767  -30.8382  -40.9532 C.3       7 UNK        -0.2007 
     47 C          25.9938  -32.2563  -41.1594 C.2       7 UNK         0.5020 
     48 O          25.9901  -33.1887  -40.3554 O.2       7 UNK        -0.5147 
     49 N          25.4825  -32.3363  -42.3966 N.am      8 UNK        -0.4734 
     50 CA         24.7729  -33.4897  -42.9565 C.3       8 UNK         0.0238 
     51 CB         24.4684  -33.2147  -44.4388 C.3       8 UNK        -0.1912 
     52 C          23.4760  -33.8530  -42.2088 C.2       8 UNK         0.5038 
     53 O          23.0371  -34.9995  -42.3070 O.2       8 UNK        -0.5046 
     54 N          22.8893  -32.8895  -41.4844 N.am      9 UNK        -0.4200 
     55 CA         21.7022  -33.0898  -40.6422 C.3       9 UNK         0.0839 
     56 C          22.0059  -33.7867  -39.2831 C.2       9 UNK         0.5513 
     57 N          23.2606  -34.0031  -38.9014 N.am      9 UNK        -0.7519 
     58 O          21.0794  -34.1476  -38.5622 O.2       9 UNK        -0.4960 
     59 C59        20.9178  -31.7673  -40.4231 C.3       10 UNK        -0.0876 
     60 S60        20.4892  -30.8160  -41.9253 S.3       10 UNK        -0.2414 
     61 C61        20.0909  -32.0835  -43.1706 C.3       10 UNK         0.0169 
     62 H62        21.5422  -23.0252  -43.9935 H         1 UNK         0.0903 
     63 H63        22.9691  -24.0250  -44.3302 H         1 UNK         0.0903 
     64 H64        22.8854  -22.3772  -44.9266 H         1 UNK         0.0903 
     65 H65        20.7244  -25.2746  -47.0012 H         1 UNK         0.3096 
     66 H66        22.0324  -26.1057  -44.6140 H         1 UNK         0.1121 
     67 H67        20.4416  -28.0634  -44.7477 H         1 UNK         0.0849 
     68 H68        19.5927  -27.2757  -46.0587 H         1 UNK         0.0849 
     69 H69        20.0682  -29.0316  -48.2729 H         1 UNK         0.0865 
     70 H70        21.3026  -30.2179  -47.9419 H         1 UNK         0.0865 
     71 H71        21.3866  -30.9320  -45.2755 H         1 UNK         0.1346 
     72 H72        17.4590  -31.7410  -43.7549 H         1 UNK         0.1412 
     73 H73        17.9306  -29.4723  -47.3599 H         1 UNK         0.1426 
     74 H74        15.7016  -30.5514  -46.6963 H         1 UNK         0.0716 
     75 H75        15.5046  -31.1860  -45.0836 H         1 UNK         0.0716 
     76 H76        15.0145  -28.2727  -42.7909 H         1 UNK         0.0695 
     77 H77        15.6428  -29.8918  -42.9674 H         1 UNK         0.0695 
     78 H78        17.9304  -28.9594  -43.3822 H         1 UNK         0.0983 
     79 H79        18.1421  -26.9430  -44.1004 H         1 UNK         0.3095 
     80 H80        17.1219  -24.0377  -44.0067 H         1 UNK         0.0454 
     81 H81        17.3873  -23.2550  -41.6812 H         1 UNK         0.0851 
     82 H82        18.9249  -24.0864  -41.5228 H         1 UNK         0.0851 
     83 H83        18.7650  -22.7221  -42.6271 H         1 UNK         0.0851 
     84 H84        18.9236  -24.5623  -45.1962 H         1 UNK         0.2976 
     85 H85        19.1705  -27.3685  -41.5351 H         1 UNK         0.3116 
     86 H86        19.0560  -29.0585  -39.2139 H         1 UNK         0.0646 
     87 H87        18.4752  -27.2408  -37.5440 H         1 UNK         0.0847 
     88 H88        17.1153  -27.6568  -38.5665 H         1 UNK         0.0847 
     89 H89        18.0284  -26.1823  -38.8759 H         1 UNK         0.0847 
     90 H90        20.4008  -26.1836  -40.8584 H         1 UNK         0.3040 
     91 H91        22.4603  -25.7875  -38.8289 H         1 UNK         0.1015 
     92 H92        21.3524  -23.8675  -39.9884 H         1 UNK         0.0786 
     93 H93        21.9992  -24.4178  -41.5339 H         1 UNK         0.0786 
     94 H94        23.0859  -23.8777  -40.2654 H         1 UNK         0.0786 
     95 H95        22.1830  -27.5926  -41.7929 H         1 UNK         0.3172 
     96 H96        25.0085  -27.6415  -42.4714 H         1 UNK         0.0595 
     97 H97        22.6491  -29.3825  -43.3778 H         1 UNK         0.0839 
     98 H98        24.2702  -29.4760  -44.0475 H         1 UNK         0.0839 
     99 H99        23.3423  -28.0056  -44.2329 H         1 UNK         0.0839 
    100 H100       26.5264  -29.1997  -42.0243 H         1 UNK         0.2998 
    101 H101       26.3568  -30.7710  -39.6678 H         1 UNK         0.0822 
    102 H102       28.5024  -29.9075  -40.5775 H         1 UNK         0.0787 
    103 H103       28.5722  -31.6546  -40.4256 H         1 UNK         0.0787 
    104 H104       28.3376  -30.9267  -42.0086 H         1 UNK         0.0787 
    105 H105       25.5435  -31.5163  -42.9817 H         1 UNK         0.3055 
    106 H106       25.4367  -34.3545  -42.8898 H         1 UNK         0.1106 
    107 H107       23.9654  -34.0668  -44.8986 H         1 UNK         0.0828 
    108 H108       23.8178  -32.3479  -44.5638 H         1 UNK         0.0828 
    109 H109       25.3814  -33.0366  -45.0071 H         1 UNK         0.0828 
    110 H110       23.3171  -31.9728  -41.4259 H         1 UNK         0.2931 
    111 H111       21.0366  -33.7747  -41.1700 H         1 UNK         0.0412 
    112 H112       23.4344  -34.4597  -38.0200 H         1 UNK         0.3472 
    113 H113       24.0387  -33.7151  -39.4807 H         1 UNK         0.3472 
    114 H114       21.4844  -31.1002  -39.7704 H         1 UNK         0.0970 
    115 H115       19.9844  -31.9718  -39.8953 H         1 UNK         0.0970 
    116 H116       19.3960  -32.8097  -42.7463 H         1 UNK         0.0612 
    117 H117       20.9896  -32.6300  -43.4560 H         1 UNK         0.0612 
@<TRIPOS>BOND
     1    1    2 1    
     2    1   62 1    
     3    1   63 1    
     4    1   64 1    
     5    2    3 2    
     6    2    4 am   BACKBONE|DICT|INTERRES
     7    4    5 1    
     8    4   65 1    
     9    5    6 1    
    10    5   25 1    
    11    5   66 1    
    12    6    7 1    
    13    6   67 1    
    14    6   68 1    
    15    7    8 1    
    16    8    9 1    
    17    8   69 1    
    18    8   70 1    
    19    9   10 ar   
    20    9   14 ar   
    21   10   11 ar   
    22   10   71 1    
    23   11   12 ar   
    24   11   61 1    
    25   12   13 ar   
    26   12   72 1    
    27   13   14 ar   
    28   13   15 1    
    29   14   73 1    
    30   15   16 1    
    31   15   74 1    
    32   15   75 1    
    33   16   17 1    
    34   17   18 1    
    35   17   76 1    
    36   17   77 1    
    37   18   19 1    
    38   18   27 1    
    39   18   78 1    
    40   19   20 am   BACKBONE|DICT|INTERRES
    41   19   79 1    
    42   20   21 2    
    43   20   22 1    
    44   22   23 1    
    45   22   24 1    
    46   22   80 1    
    47   23   81 1    
    48   23   82 1    
    49   23   83 1    
    50   24   25 am   BACKBONE|DICT|INTERRES
    51   24   84 1    
    52   25   26 2    
    53   27   28 2    
    54   27   29 am   BACKBONE|DICT|INTERRES
    55   29   30 1    
    56   29   85 1    
    57   30   31 1    
    58   30   32 1    
    59   30   86 1    
    60   31   87 1    
    61   31   88 1    
    62   31   89 1    
    63   32   33 2    
    64   32   34 am   BACKBONE|DICT|INTERRES
    65   34   35 1    
    66   34   90 1    
    67   35   36 1    
    68   35   37 1    
    69   35   91 1    
    70   36   92 1    
    71   36   93 1    
    72   36   94 1    
    73   37   38 2    
    74   37   39 am   BACKBONE|DICT|INTERRES
    75   39   40 1    
    76   39   95 1    
    77   40   41 1    
    78   40   42 1    
    79   40   96 1    
    80   41   97 1    
    81   41   98 1    
    82   41   99 1    
    83   42   43 2    
    84   42   44 am   BACKBONE|DICT|INTERRES
    85   44   45 1    
    86   44  100 1    
    87   45   46 1    
    88   45   47 1    
    89   45  101 1    
    90   46  102 1    
    91   46  103 1    
    92   46  104 1    
    93   47   48 2    
    94   47   49 am   BACKBONE|DICT|INTERRES
    95   49   50 1    
    96   49  105 1    
    97   50   51 1    
    98   50   52 1    
    99   50  106 1    
   100   51  107 1    
   101   51  108 1    
   102   51  109 1    
   103   52   53 2    
   104   52   54 am   BACKBONE|DICT|INTERRES
   105   54   55 1    
   106   54  110 1    
   107   55   56 1    
   108   55   59 1    
   109   55  111 1    
   110   56   57 am   BACKBONE|DICT|INTERRES
   111   56   58 2    
   112   57  112 1    
   113   57  113 1    
   114   59   60 1    
   115   59  114 1    
   116   59  115 1    
   117   60   61 1    
   118   61  116 1    
   119   61  117 1    
@<TRIPOS>SUBSTRUCTURE
     1 UNK         1 GROUP             0       ****    0 ROOT    
