@<TRIPOS>MOLECULE
3R8
117   119    1
SMALL
USER_CHARGES


@<TRIPOS>ATOM
      1 CA         17.0025  -25.8667  -37.8876 C.3       0 UNK        -0.2013 
      2 C          17.3915  -25.5921  -39.3325 C.2       0 UNK         0.4866 
      3 O          17.5198  -24.4318  -39.7231 O.2       0 UNK        -0.5176 
      4 N          17.5792  -26.6491  -40.1270 N.am      1 UNK        -0.4884 
      5 CA         18.0046  -26.5969  -41.5233 C.3       1 UNK         0.0853 
      6 C6         16.8101  -26.3527  -42.4809 C.3       10 UNK        -0.0849 
      7 S7         17.3234  -25.9067  -44.1775 S.3       10 UNK        -0.2776 
      8 C8         16.3717  -27.0854  -45.1911 C.3       10 UNK         0.0316 
      9 C9         17.0796  -28.4224  -45.3862 C.ar      10 UNK        -0.0863 
     10 C10        16.8622  -29.4801  -44.4970 C.ar      10 UNK        -0.1009 
     11 C11        17.4309  -30.7368  -44.7297 C.ar      10 UNK        -0.0712 
     12 C12        18.2153  -30.9284  -45.8734 C.ar      10 UNK        -0.0894 
     13 C13        18.4673  -29.8754  -46.7625 C.ar      10 UNK        -0.0745 
     14 C14        17.8941  -28.6249  -46.5060 C.ar      10 UNK        -0.0972 
     15 C15        19.2827  -30.0749  -48.0438 C.3       10 UNK         0.0209 
     16 S16        20.5537  -31.3934  -47.9704 S.3       10 UNK        -0.2568 
     17 C17        22.1566  -30.5843  -47.6001 C.3       10 UNK        -0.0983 
     18 CA         22.1311  -29.2919  -46.7438 C.3       3 UNK         0.0876 
     19 N          21.4656  -29.5084  -45.4615 N.am      3 UNK        -0.4424 
     20 C          20.9744  -28.5361  -44.6887 C.2       2 UNK         0.4918 
     21 O          20.9851  -27.3399  -44.9978 O.2       2 UNK        -0.4875 
     22 CA         20.4148  -28.9738  -43.3360 C.3       2 UNK         0.0481 
     23 CB         21.5539  -29.3450  -42.3764 C.3       2 UNK        -0.1831 
     24 N          19.6425  -27.8643  -42.8015 N.am      2 UNK        -0.4498 
     25 C          18.7355  -27.9123  -41.8263 C.2       1 UNK         0.5027 
     26 O          18.4592  -28.9256  -41.1787 O.2       1 UNK        -0.4969 
     27 C          23.5486  -28.7362  -46.4795 C.2       3 UNK         0.5005 
     28 O          24.5142  -29.4999  -46.4398 O.2       3 UNK        -0.5279 
     29 N          23.6265  -27.4253  -46.2076 N.am      4 UNK        -0.4463 
     30 CA         24.7975  -26.6133  -45.8404 C.3       4 UNK         0.0283 
     31 CB         25.9063  -26.6937  -46.9080 C.3       4 UNK        -0.1875 
     32 C          25.3649  -26.8803  -44.4320 C.2       4 UNK         0.4949 
     33 O          25.9401  -25.9648  -43.8429 O.2       4 UNK        -0.5039 
     34 N          25.1861  -28.0932  -43.8939 N.am      5 UNK        -0.4663 
     35 CA         25.6807  -28.5565  -42.5905 C.3       5 UNK         0.0242 
     36 CB         25.6835  -30.0976  -42.5929 C.3       5 UNK        -0.1982 
     37 C          24.9158  -27.9773  -41.3787 C.2       5 UNK         0.5017 
     38 O          24.5273  -28.7321  -40.4854 O.2       5 UNK        -0.5012 
     39 N          24.7035  -26.6540  -41.3644 N.am      6 UNK        -0.4439 
     40 CA         23.9930  -25.8718  -40.3453 C.3       6 UNK         0.0297 
     41 CB         24.8289  -25.7876  -39.0475 C.3       6 UNK        -0.2006 
     42 C          22.5533  -26.3798  -40.1279 C.2       6 UNK         0.4892 
     43 O          21.6882  -26.0891  -40.9541 O.2       6 UNK        -0.5089 
     44 N          22.3342  -27.1295  -39.0406 N.am      7 UNK        -0.4243 
     45 CA         21.0719  -27.7852  -38.6955 C.3       7 UNK         0.0196 
     46 CB         20.5062  -27.1348  -37.4205 C.3       7 UNK        -0.2007 
     47 C          21.2354  -29.3080  -38.5246 C.2       7 UNK         0.5020 
     48 O          20.2878  -29.9675  -38.0967 O.2       7 UNK        -0.5147 
     49 N          22.4119  -29.8623  -38.8524 N.am      8 UNK        -0.4734 
     50 CA         22.7422  -31.2802  -38.6879 C.3       8 UNK         0.0238 
     51 CB         24.2394  -31.4049  -38.3453 C.3       8 UNK        -0.1912 
     52 C          22.3496  -32.0989  -39.9317 C.2       8 UNK         0.5038 
     53 O          23.2115  -32.7200  -40.5567 O.2       8 UNK        -0.5046 
     54 N          21.0567  -32.0755  -40.2806 N.am      9 UNK        -0.4200 
     55 CA         20.4756  -32.8906  -41.3570 C.3       9 UNK         0.0839 
     56 C          20.4403  -34.3950  -40.9678 C.2       9 UNK         0.5513 
     57 N          20.8129  -35.2867  -41.8753 N.am      9 UNK        -0.7519 
     58 O          20.0505  -34.7565  -39.8591 O.2       9 UNK        -0.4960 
     59 C59        19.0756  -32.3638  -41.7672 C.3       10 UNK        -0.0876 
     60 S60        18.5679  -32.9545  -43.4172 S.3       10 UNK        -0.2414 
     61 C61        17.1243  -31.8980  -43.7855 C.3       10 UNK         0.0169 
     62 H62        16.0249  -25.4353  -37.6742 H         1 UNK         0.0903 
     63 H63        16.9563  -26.9343  -37.6733 H         1 UNK         0.0903 
     64 H64        17.7283  -25.4163  -37.2110 H         1 UNK         0.0903 
     65 H65        17.5055  -27.5940  -39.7672 H         1 UNK         0.3096 
     66 H66        18.7280  -25.7837  -41.6278 H         1 UNK         0.1121 
     67 H67        16.1430  -27.2160  -42.4920 H         1 UNK         0.0849 
     68 H68        16.2068  -25.5227  -42.1099 H         1 UNK         0.0849 
     69 H69        16.1920  -26.6271  -46.1648 H         1 UNK         0.0865 
     70 H70        15.3825  -27.2387  -44.7569 H         1 UNK         0.0865 
     71 H71        16.2249  -29.3337  -43.6361 H         1 UNK         0.1346 
     72 H72        18.6172  -31.9108  -46.0757 H         1 UNK         0.1412 
     73 H73        18.0564  -27.8105  -47.1992 H         1 UNK         0.1426 
     74 H74        19.7337  -29.1389  -48.3723 H         1 UNK         0.0716 
     75 H75        18.5785  -30.3491  -48.8301 H         1 UNK         0.0716 
     76 H76        22.6368  -30.3752  -48.5578 H         1 UNK         0.0695 
     77 H77        22.7788  -31.3418  -47.1194 H         1 UNK         0.0695 
     78 H78        21.5893  -28.5256  -47.3001 H         1 UNK         0.0983 
     79 H79        21.4133  -30.4661  -45.1478 H         1 UNK         0.3095 
     80 H80        19.7580  -29.8295  -43.4887 H         1 UNK         0.0454 
     81 H81        21.1694  -29.5774  -41.3877 H         1 UNK         0.0851 
     82 H82        22.2624  -28.5250  -42.2727 H         1 UNK         0.0851 
     83 H83        22.1052  -30.2187  -42.7245 H         1 UNK         0.0851 
     84 H84        19.7782  -27.0009  -43.3156 H         1 UNK         0.2976 
     85 H85        22.7392  -26.9376  -46.1326 H         1 UNK         0.3116 
     86 H86        24.4366  -25.5836  -45.8277 H         1 UNK         0.0646 
     87 H87        26.7087  -25.9886  -46.6867 H         1 UNK         0.0847 
     88 H88        25.5239  -26.4473  -47.8984 H         1 UNK         0.0847 
     89 H89        26.3566  -27.6853  -46.9579 H         1 UNK         0.0847 
     90 H90        24.7467  -28.7892  -44.4846 H         1 UNK         0.3040 
     91 H91        26.7162  -28.2249  -42.4865 H         1 UNK         0.1015 
     92 H92        26.2693  -30.4937  -43.4226 H         1 UNK         0.0786 
     93 H93        24.6738  -30.5027  -42.6706 H         1 UNK         0.0786 
     94 H94        26.1211  -30.4921  -41.6746 H         1 UNK         0.0786 
     95 H95        25.0565  -26.1341  -42.1643 H         1 UNK         0.3172 
     96 H96        23.9025  -24.8592  -40.7415 H         1 UNK         0.0595 
     97 H97        25.0544  -26.7688  -38.6284 H         1 UNK         0.0839 
     98 H98        24.3103  -25.2091  -38.2815 H         1 UNK         0.0839 
     99 H99        25.7801  -25.2882  -39.2317 H         1 UNK         0.0839 
    100 H100       23.1184  -27.3240  -38.4338 H         1 UNK         0.2998 
    101 H101       20.3468  -27.6453  -39.4964 H         1 UNK         0.0822 
    102 H102       21.1772  -27.2644  -36.5707 H         1 UNK         0.0787 
    103 H103       20.3457  -26.0659  -37.5617 H         1 UNK         0.0787 
    104 H104       19.5448  -27.5718  -37.1478 H         1 UNK         0.0787 
    105 H105       23.1214  -29.2985  -39.3163 H         1 UNK         0.3055 
    106 H106       22.1808  -31.6913  -37.8455 H         1 UNK         0.1106 
    107 H107       24.5126  -32.4446  -38.1609 H         1 UNK         0.0828 
    108 H108       24.8722  -31.0412  -39.1557 H         1 UNK         0.0828 
    109 H109       24.4895  -30.8410  -37.4467 H         1 UNK         0.0828 
    110 H110       20.4130  -31.5536  -39.6995 H         1 UNK         0.2931 
    111 H111       21.1353  -32.7744  -42.2201 H         1 UNK         0.0412 
    112 H112       21.1111  -34.9959  -42.7936 H         1 UNK         0.3472 
    113 H113       20.7852  -36.2674  -41.6435 H         1 UNK         0.3472 
    114 H114       18.3166  -32.6339  -41.0305 H         1 UNK         0.0970 
    115 H115       19.0877  -31.2767  -41.8015 H         1 UNK         0.0970 
    116 H116       16.6960  -31.5346  -42.8499 H         1 UNK         0.0612 
    117 H117       16.3583  -32.5186  -44.2518 H         1 UNK         0.0612 
@<TRIPOS>BOND
     1    1    2 1    
     2    1   62 1    
     3    1   63 1    
     4    1   64 1    
     5    2    3 2    
     6    2    4 am   BACKBONE|DICT|INTERRES
     7    4    5 1    
     8    4   65 1    
     9    5    6 1    
    10    5   25 1    
    11    5   66 1    
    12    6    7 1    
    13    6   67 1    
    14    6   68 1    
    15    7    8 1    
    16    8    9 1    
    17    8   69 1    
    18    8   70 1    
    19    9   10 ar   
    20    9   14 ar   
    21   10   11 ar   
    22   10   71 1    
    23   11   12 ar   
    24   11   61 1    
    25   12   13 ar   
    26   12   72 1    
    27   13   14 ar   
    28   13   15 1    
    29   14   73 1    
    30   15   16 1    
    31   15   74 1    
    32   15   75 1    
    33   16   17 1    
    34   17   18 1    
    35   17   76 1    
    36   17   77 1    
    37   18   19 1    
    38   18   27 1    
    39   18   78 1    
    40   19   20 am   BACKBONE|DICT|INTERRES
    41   19   79 1    
    42   20   21 2    
    43   20   22 1    
    44   22   23 1    
    45   22   24 1    
    46   22   80 1    
    47   23   81 1    
    48   23   82 1    
    49   23   83 1    
    50   24   25 am   BACKBONE|DICT|INTERRES
    51   24   84 1    
    52   25   26 2    
    53   27   28 2    
    54   27   29 am   BACKBONE|DICT|INTERRES
    55   29   30 1    
    56   29   85 1    
    57   30   31 1    
    58   30   32 1    
    59   30   86 1    
    60   31   87 1    
    61   31   88 1    
    62   31   89 1    
    63   32   33 2    
    64   32   34 am   BACKBONE|DICT|INTERRES
    65   34   35 1    
    66   34   90 1    
    67   35   36 1    
    68   35   37 1    
    69   35   91 1    
    70   36   92 1    
    71   36   93 1    
    72   36   94 1    
    73   37   38 2    
    74   37   39 am   BACKBONE|DICT|INTERRES
    75   39   40 1    
    76   39   95 1    
    77   40   41 1    
    78   40   42 1    
    79   40   96 1    
    80   41   97 1    
    81   41   98 1    
    82   41   99 1    
    83   42   43 2    
    84   42   44 am   BACKBONE|DICT|INTERRES
    85   44   45 1    
    86   44  100 1    
    87   45   46 1    
    88   45   47 1    
    89   45  101 1    
    90   46  102 1    
    91   46  103 1    
    92   46  104 1    
    93   47   48 2    
    94   47   49 am   BACKBONE|DICT|INTERRES
    95   49   50 1    
    96   49  105 1    
    97   50   51 1    
    98   50   52 1    
    99   50  106 1    
   100   51  107 1    
   101   51  108 1    
   102   51  109 1    
   103   52   53 2    
   104   52   54 am   BACKBONE|DICT|INTERRES
   105   54   55 1    
   106   54  110 1    
   107   55   56 1    
   108   55   59 1    
   109   55  111 1    
   110   56   57 am   BACKBONE|DICT|INTERRES
   111   56   58 2    
   112   57  112 1    
   113   57  113 1    
   114   59   60 1    
   115   59  114 1    
   116   59  115 1    
   117   60   61 1    
   118   61  116 1    
   119   61  117 1    
@<TRIPOS>SUBSTRUCTURE
     1 UNK         1 GROUP             0       ****    0 ROOT    
