@<TRIPOS>MOLECULE
3R8
117   119    1
SMALL
USER_CHARGES


@<TRIPOS>ATOM
      1 CA         15.2321  -22.9565  -47.3750 C.3       0 UNK        -0.2013 
      2 C          16.1813  -24.0083  -46.8200 C.2       0 UNK         0.4866 
      3 O          16.1149  -24.3211  -45.6312 O.2       0 UNK        -0.5176 
      4 N          17.0575  -24.5550  -47.6747 N.am      1 UNK        -0.4884 
      5 CA         18.0882  -25.5481  -47.3441 C.3       1 UNK         0.0853 
      6 C6         17.4836  -26.9002  -46.8669 C.3       10 UNK        -0.0849 
      7 S7         18.5669  -28.3252  -47.2291 S.3       10 UNK        -0.2776 
      8 C8         17.5792  -29.7083  -46.5756 C.3       10 UNK         0.0316 
      9 C9         17.6702  -29.7977  -45.0594 C.ar      10 UNK        -0.0863 
     10 C10        18.6578  -30.5811  -44.4557 C.ar      10 UNK        -0.1009 
     11 C11        18.7336  -30.6805  -43.0624 C.ar      10 UNK        -0.0712 
     12 C12        17.8279  -29.9681  -42.2696 C.ar      10 UNK        -0.0894 
     13 C13        16.8561  -29.1567  -42.8640 C.ar      10 UNK        -0.0745 
     14 C14        16.7644  -29.1008  -44.2571 C.ar      10 UNK        -0.0972 
     15 C15        15.9068  -28.3220  -42.0183 C.3       10 UNK         0.0209 
     16 S16        16.2539  -26.5422  -42.2114 S.3       10 UNK        -0.2568 
     17 C17        17.5245  -26.2434  -40.9376 C.3       10 UNK        -0.0983 
     18 CA         18.9704  -26.6001  -41.3668 C.3       3 UNK         0.0876 
     19 N          19.3690  -25.9816  -42.6378 N.am      3 UNK        -0.4424 
     20 C          20.5534  -26.1650  -43.2401 C.2       2 UNK         0.4918 
     21 O          21.4375  -26.9029  -42.8009 O.2       2 UNK        -0.4875 
     22 CA         20.7714  -25.4136  -44.5598 C.3       2 UNK         0.0481 
     23 CB         22.1443  -25.6980  -45.2013 C.3       2 UNK        -0.1831 
     24 N          19.7129  -25.7706  -45.4991 N.am      2 UNK        -0.4498 
     25 C          19.1664  -24.9518  -46.4049 C.2       1 UNK         0.5027 
     26 O          19.5007  -23.7714  -46.5402 O.2       1 UNK        -0.4969 
     27 C          19.9559  -26.2420  -40.2356 C.2       3 UNK         0.5005 
     28 O          20.3451  -25.0771  -40.1187 O.2       3 UNK        -0.5279 
     29 N          20.3677  -27.2515  -39.4549 N.am      4 UNK        -0.4463 
     30 CA         21.3684  -27.2273  -38.3746 C.3       4 UNK         0.0283 
     31 CB         20.9700  -26.2557  -37.2463 C.3       4 UNK        -0.1875 
     32 C          22.8178  -26.9747  -38.8376 C.2       4 UNK         0.4949 
     33 O          23.7338  -27.5463  -38.2475 O.2       4 UNK        -0.5039 
     34 N          23.0104  -26.1519  -39.8772 N.am      5 UNK        -0.4663 
     35 CA         24.2984  -25.8818  -40.5201 C.3       5 UNK         0.0242 
     36 CB         24.1515  -24.7063  -41.4988 C.3       5 UNK        -0.1982 
     37 C          24.8660  -27.1263  -41.2207 C.2       5 UNK         0.5017 
     38 O          26.0323  -27.4623  -41.0100 O.2       5 UNK        -0.5012 
     39 N          24.0182  -27.8297  -41.9846 N.am      6 UNK        -0.4439 
     40 CA         24.2969  -29.1541  -42.5417 C.3       6 UNK         0.0297 
     41 CB         23.4505  -29.3600  -43.8122 C.3       6 UNK        -0.2006 
     42 C          24.0258  -30.2277  -41.4731 C.2       6 UNK         0.4892 
     43 O          23.0871  -31.0113  -41.6115 O.2       6 UNK        -0.5089 
     44 N          24.8367  -30.2167  -40.4060 N.am      7 UNK        -0.4243 
     45 CA         24.6670  -31.0172  -39.1875 C.3       7 UNK         0.0196 
     46 CB         25.7636  -30.6373  -38.1798 C.3       7 UNK        -0.2007 
     47 C          24.6440  -32.5404  -39.4048 C.2       7 UNK         0.5020 
     48 O          23.9717  -33.2440  -38.6505 O.2       7 UNK        -0.5147 
     49 N          25.3641  -33.0240  -40.4267 N.am      8 UNK        -0.4734 
     50 CA         25.3670  -34.4324  -40.8355 C.3       8 UNK         0.0238 
     51 CB         26.5581  -34.6892  -41.7730 C.3       8 UNK        -0.1912 
     52 C          24.0500  -34.8647  -41.5057 C.2       8 UNK         0.5038 
     53 O          23.6535  -36.0210  -41.3568 O.2       8 UNK        -0.5046 
     54 N          23.4051  -33.9290  -42.2180 N.am      9 UNK        -0.4200 
     55 CA         22.1188  -34.0822  -42.9144 C.3       9 UNK         0.0839 
     56 C          22.0713  -35.2211  -43.9809 C.2       9 UNK         0.5513 
     57 N          23.1850  -35.5403  -44.6299 N.am      9 UNK        -0.7519 
     58 O          21.0265  -35.8124  -44.2408 O.2       9 UNK        -0.4960 
     59 C59        20.9289  -34.0740  -41.9110 C.3       10 UNK        -0.0876 
     60 S60        19.4201  -33.3155  -42.6027 S.3       10 UNK        -0.2414 
     61 C61        19.8076  -31.5459  -42.4232 C.3       10 UNK         0.0169 
     62 H62        15.3757  -22.0103  -46.8540 H         1 UNK         0.0903 
     63 H63        15.3890  -22.7847  -48.4397 H         1 UNK         0.0903 
     64 H64        14.1987  -23.2711  -47.2313 H         1 UNK         0.0903 
     65 H65        17.0764  -24.2248  -48.6302 H         1 UNK         0.3096 
     66 H66        18.6063  -25.7319  -48.2870 H         1 UNK         0.1121 
     67 H67        16.5396  -27.0829  -47.3832 H         1 UNK         0.0849 
     68 H68        17.2351  -26.8619  -45.8058 H         1 UNK         0.0849 
     69 H69        16.5399  -29.6061  -46.8921 H         1 UNK         0.0865 
     70 H70        17.9388  -30.6371  -47.0213 H         1 UNK         0.0865 
     71 H71        19.3638  -31.1246  -45.0690 H         1 UNK         0.1346 
     72 H72        17.8906  -30.0323  -41.1921 H         1 UNK         0.1412 
     73 H73        15.9982  -28.4895  -44.7141 H         1 UNK         0.1426 
     74 H74        15.9552  -28.6052  -40.9658 H         1 UNK         0.0716 
     75 H75        14.8826  -28.5161  -42.3402 H         1 UNK         0.0716 
     76 H76        17.2469  -26.7918  -40.0354 H         1 UNK         0.0695 
     77 H77        17.4638  -25.1858  -40.6727 H         1 UNK         0.0695 
     78 H78        19.0258  -27.6763  -41.5267 H         1 UNK         0.0983 
     79 H79        18.6909  -25.3669  -43.0635 H         1 UNK         0.3095 
     80 H80        20.7152  -24.3493  -44.3223 H         1 UNK         0.0454 
     81 H81        22.2485  -26.7487  -45.4732 H         1 UNK         0.0851 
     82 H82        22.9597  -25.4542  -44.5204 H         1 UNK         0.0851 
     83 H83        22.2907  -25.1038  -46.1031 H         1 UNK         0.0851 
     84 H84        19.3895  -26.7298  -45.4618 H         1 UNK         0.2976 
     85 H85        20.0055  -28.1728  -39.6592 H         1 UNK         0.3116 
     86 H86        21.3569  -28.2333  -37.9515 H         1 UNK         0.0646 
     87 H87        20.9956  -25.2154  -37.5716 H         1 UNK         0.0847 
     88 H88        21.6540  -26.3436  -36.4012 H         1 UNK         0.0847 
     89 H89        19.9676  -26.4672  -36.8744 H         1 UNK         0.0847 
     90 H90        22.1900  -25.6917  -40.2605 H         1 UNK         0.3040 
     91 H91        25.0080  -25.5917  -39.7420 H         1 UNK         0.1015 
     92 H92        23.3935  -24.9030  -42.2563 H         1 UNK         0.0786 
     93 H93        25.0908  -24.5068  -42.0165 H         1 UNK         0.0786 
     94 H94        23.8690  -23.7920  -40.9765 H         1 UNK         0.0786 
     95 H95        23.0688  -27.4824  -42.1107 H         1 UNK         0.3172 
     96 H96        25.3490  -29.2197  -42.8266 H         1 UNK         0.0595 
     97 H97        22.3813  -29.3097  -43.6014 H         1 UNK         0.0839 
     98 H98        23.6476  -30.3352  -44.2590 H         1 UNK         0.0839 
     99 H99        23.6784  -28.6060  -44.5651 H         1 UNK         0.0839 
    100 H100       25.5550  -29.5024  -40.3807 H         1 UNK         0.2998 
    101 H101       23.7014  -30.7406  -38.7587 H         1 UNK         0.0822 
    102 H102       25.7209  -29.5768  -37.9294 H         1 UNK         0.0787 
    103 H103       25.6485  -31.1927  -37.2479 H         1 UNK         0.0787 
    104 H104       26.7602  -30.8518  -38.5677 H         1 UNK         0.0787 
    105 H105       25.9021  -32.3758  -40.9838 H         1 UNK         0.3055 
    106 H106       25.4957  -35.0487  -39.9424 H         1 UNK         0.1106 
    107 H107       26.5944  -35.7359  -42.0787 H         1 UNK         0.0828 
    108 H108       26.4990  -34.0869  -42.6803 H         1 UNK         0.0828 
    109 H109       27.5051  -34.4652  -41.2816 H         1 UNK         0.0828 
    110 H110       23.7744  -32.9873  -42.2128 H         1 UNK         0.2931 
    111 H111       22.0495  -33.1708  -43.5080 H         1 UNK         0.0412 
    112 H112       23.1606  -36.2728  -45.3222 H         1 UNK         0.3472 
    113 H113       24.0489  -35.0617  -44.4309 H         1 UNK         0.3472 
    114 H114       20.7027  -35.0853  -41.5685 H         1 UNK         0.0970 
    115 H115       21.1923  -33.5128  -41.0125 H         1 UNK         0.0970 
    116 H116       19.9259  -31.3048  -41.3656 H         1 UNK         0.0612 
    117 H117       20.7637  -31.3274  -42.8989 H         1 UNK         0.0612 
@<TRIPOS>BOND
     1    1    2 1    
     2    1   62 1    
     3    1   63 1    
     4    1   64 1    
     5    2    3 2    
     6    2    4 am   BACKBONE|DICT|INTERRES
     7    4    5 1    
     8    4   65 1    
     9    5    6 1    
    10    5   25 1    
    11    5   66 1    
    12    6    7 1    
    13    6   67 1    
    14    6   68 1    
    15    7    8 1    
    16    8    9 1    
    17    8   69 1    
    18    8   70 1    
    19    9   10 ar   
    20    9   14 ar   
    21   10   11 ar   
    22   10   71 1    
    23   11   12 ar   
    24   11   61 1    
    25   12   13 ar   
    26   12   72 1    
    27   13   14 ar   
    28   13   15 1    
    29   14   73 1    
    30   15   16 1    
    31   15   74 1    
    32   15   75 1    
    33   16   17 1    
    34   17   18 1    
    35   17   76 1    
    36   17   77 1    
    37   18   19 1    
    38   18   27 1    
    39   18   78 1    
    40   19   20 am   BACKBONE|DICT|INTERRES
    41   19   79 1    
    42   20   21 2    
    43   20   22 1    
    44   22   23 1    
    45   22   24 1    
    46   22   80 1    
    47   23   81 1    
    48   23   82 1    
    49   23   83 1    
    50   24   25 am   BACKBONE|DICT|INTERRES
    51   24   84 1    
    52   25   26 2    
    53   27   28 2    
    54   27   29 am   BACKBONE|DICT|INTERRES
    55   29   30 1    
    56   29   85 1    
    57   30   31 1    
    58   30   32 1    
    59   30   86 1    
    60   31   87 1    
    61   31   88 1    
    62   31   89 1    
    63   32   33 2    
    64   32   34 am   BACKBONE|DICT|INTERRES
    65   34   35 1    
    66   34   90 1    
    67   35   36 1    
    68   35   37 1    
    69   35   91 1    
    70   36   92 1    
    71   36   93 1    
    72   36   94 1    
    73   37   38 2    
    74   37   39 am   BACKBONE|DICT|INTERRES
    75   39   40 1    
    76   39   95 1    
    77   40   41 1    
    78   40   42 1    
    79   40   96 1    
    80   41   97 1    
    81   41   98 1    
    82   41   99 1    
    83   42   43 2    
    84   42   44 am   BACKBONE|DICT|INTERRES
    85   44   45 1    
    86   44  100 1    
    87   45   46 1    
    88   45   47 1    
    89   45  101 1    
    90   46  102 1    
    91   46  103 1    
    92   46  104 1    
    93   47   48 2    
    94   47   49 am   BACKBONE|DICT|INTERRES
    95   49   50 1    
    96   49  105 1    
    97   50   51 1    
    98   50   52 1    
    99   50  106 1    
   100   51  107 1    
   101   51  108 1    
   102   51  109 1    
   103   52   53 2    
   104   52   54 am   BACKBONE|DICT|INTERRES
   105   54   55 1    
   106   54  110 1    
   107   55   56 1    
   108   55   59 1    
   109   55  111 1    
   110   56   57 am   BACKBONE|DICT|INTERRES
   111   56   58 2    
   112   57  112 1    
   113   57  113 1    
   114   59   60 1    
   115   59  114 1    
   116   59  115 1    
   117   60   61 1    
   118   61  116 1    
   119   61  117 1    
@<TRIPOS>SUBSTRUCTURE
     1 UNK         1 GROUP             0       ****    0 ROOT    
