@<TRIPOS>MOLECULE
3R8
117   119    1
SMALL
USER_CHARGES


@<TRIPOS>ATOM
      1 CA         17.6044  -27.1880  -40.5343 C.3       0 UNK        -0.2013 
      2 C          16.8232  -26.7298  -41.7554 C.2       0 UNK         0.4866 
      3 O          15.6405  -26.4079  -41.6369 O.2       0 UNK        -0.5176 
      4 N          17.4760  -26.6842  -42.9211 N.am      1 UNK        -0.4884 
      5 CA         16.9226  -26.1438  -44.1614 C.3       1 UNK         0.0853 
      6 C6         16.0471  -27.1641  -44.9511 C.3       10 UNK        -0.0849 
      7 S7         16.9053  -28.4388  -45.9444 S.3       10 UNK        -0.2776 
      8 C8         17.0054  -29.8697  -44.8186 C.3       10 UNK         0.0316 
      9 C9         18.3647  -29.9546  -44.1390 C.ar      10 UNK        -0.0863 
     10 C10        18.4672  -29.9577  -42.7451 C.ar      10 UNK        -0.1009 
     11 C11        19.7198  -30.0220  -42.1268 C.ar      10 UNK        -0.0712 
     12 C12        20.8751  -30.0755  -42.9136 C.ar      10 UNK        -0.0894 
     13 C13        20.7847  -30.0979  -44.3085 C.ar      10 UNK        -0.0745 
     14 C14        19.5259  -30.0501  -44.9121 C.ar      10 UNK        -0.0972 
     15 C15        22.0414  -30.1880  -45.1651 C.3       10 UNK         0.0209 
     16 S16        22.2151  -28.7804  -46.3076 S.3       10 UNK        -0.2568 
     17 C17        22.5531  -27.4294  -45.1342 C.3       10 UNK        -0.0983 
     18 CA         22.2921  -26.0332  -45.7483 C.3       3 UNK         0.0876 
     19 N          20.9051  -25.8790  -46.2029 N.am      3 UNK        -0.4424 
     20 C          20.4468  -24.8511  -46.9299 C.2       2 UNK         0.4918 
     21 O          21.1683  -23.9588  -47.3769 O.2       2 UNK        -0.4875 
     22 CA         18.9298  -24.7823  -47.1993 C.3       2 UNK         0.0481 
     23 CB         18.6257  -25.2661  -48.6263 C.3       2 UNK        -0.1831 
     24 N          18.0635  -25.5079  -46.2595 N.am      2 UNK        -0.4498 
     25 C          18.0366  -25.3971  -44.9238 C.2       1 UNK         0.5027 
     26 O          18.8472  -24.7235  -44.2818 O.2       1 UNK        -0.4969 
     27 C          22.7157  -24.9421  -44.7410 C.2       3 UNK         0.5005 
     28 O          23.8989  -24.6019  -44.6958 O.2       3 UNK        -0.5279 
     29 N          21.7565  -24.4350  -43.9455 N.am      4 UNK        -0.4463 
     30 CA         21.9187  -23.4407  -42.8741 C.3       4 UNK         0.0283 
     31 CB         22.2891  -22.0637  -43.4640 C.3       4 UNK        -0.1875 
     32 C          22.8784  -23.8791  -41.7448 C.2       4 UNK         0.4949 
     33 O          23.4482  -23.0280  -41.0599 O.2       4 UNK        -0.5039 
     34 N          23.0352  -25.1945  -41.5618 N.am      5 UNK        -0.4663 
     35 CA         23.9147  -25.8431  -40.5945 C.3       5 UNK         0.0242 
     36 CB         25.3786  -25.7539  -41.0694 C.3       5 UNK        -0.1982 
     37 C          23.4761  -27.3055  -40.4504 C.2       5 UNK         0.5017 
     38 O          22.7417  -27.8074  -41.3061 O.2       5 UNK        -0.5012 
     39 N          23.9377  -27.9606  -39.3782 N.am      6 UNK        -0.4439 
     40 CA         23.6955  -29.3787  -39.1069 C.3       6 UNK         0.0297 
     41 CB         24.0688  -29.6866  -37.6478 C.3       6 UNK        -0.2006 
     42 C          24.4800  -30.2901  -40.0667 C.2       6 UNK         0.4892 
     43 O          25.5939  -29.9451  -40.4692 O.2       6 UNK        -0.5089 
     44 N          23.8954  -31.4503  -40.3772 N.am      7 UNK        -0.4243 
     45 CA         24.4621  -32.4943  -41.2275 C.3       7 UNK         0.0196 
     46 CB         24.3289  -32.1033  -42.7170 C.3       7 UNK        -0.2007 
     47 C          23.7849  -33.8258  -40.8641 C.2       7 UNK         0.5020 
     48 O          23.6150  -34.1131  -39.6773 O.2       7 UNK        -0.5147 
     49 N          23.3649  -34.5990  -41.8767 N.am      8 UNK        -0.4734 
     50 CA         22.6532  -35.8810  -41.7519 C.3       8 UNK         0.0238 
     51 CB         22.4951  -36.5011  -43.1503 C.3       8 UNK        -0.1912 
     52 C          21.2861  -35.7978  -41.0410 C.2       8 UNK         0.5038 
     53 O          20.7577  -36.8318  -40.6303 O.2       8 UNK        -0.5046 
     54 N          20.7556  -34.5780  -40.8922 N.am      9 UNK        -0.4200 
     55 CA         19.6141  -34.2256  -40.0383 C.3       9 UNK         0.0839 
     56 C          19.8135  -34.5172  -38.5193 C.2       9 UNK         0.5513 
     57 N          21.0388  -34.6526  -38.0219 N.am      9 UNK        -0.7519 
     58 O          18.8351  -34.6275  -37.7850 O.2       9 UNK        -0.4960 
     59 C59        19.1844  -32.7535  -40.2787 C.3       10 UNK        -0.0876 
     60 S60        20.5322  -31.5589  -39.9572 S.3       10 UNK        -0.2414 
     61 C61        19.8283  -30.0155  -40.6089 C.3       10 UNK         0.0169 
     62 H62        18.6564  -27.3523  -40.7648 H         1 UNK         0.0903 
     63 H63        17.5474  -26.4342  -39.7496 H         1 UNK         0.0903 
     64 H64        17.1828  -28.1142  -40.1460 H         1 UNK         0.0903 
     65 H65        18.4536  -26.9373  -42.9656 H         1 UNK         0.3096 
     66 H66        16.2474  -25.3330  -43.8768 H         1 UNK         0.1121 
     67 H67        15.4075  -26.6122  -45.6422 H         1 UNK         0.0849 
     68 H68        15.3492  -27.6536  -44.2704 H         1 UNK         0.0849 
     69 H69        16.1964  -29.8340  -44.0876 H         1 UNK         0.0865 
     70 H70        16.8510  -30.7809  -45.3982 H         1 UNK         0.0865 
     71 H71        17.5716  -29.9049  -42.1415 H         1 UNK         0.1346 
     72 H72        21.8433  -30.1060  -42.4326 H         1 UNK         0.1412 
     73 H73        19.4512  -30.0650  -45.9911 H         1 UNK         0.1426 
     74 H74        22.0100  -31.1123  -45.7432 H         1 UNK         0.0716 
     75 H75        22.9361  -30.2398  -44.5442 H         1 UNK         0.0716 
     76 H76        21.9437  -27.5685  -44.2390 H         1 UNK         0.0695 
     77 H77        23.5928  -27.5231  -44.8132 H         1 UNK         0.0695 
     78 H78        22.9360  -25.9214  -46.6237 H         1 UNK         0.0983 
     79 H79        20.2541  -26.5914  -45.9083 H         1 UNK         0.3095 
     80 H80        18.6484  -23.7296  -47.1333 H         1 UNK         0.0454 
     81 H81        19.2278  -24.7286  -49.3604 H         1 UNK         0.0851 
     82 H82        18.8405  -26.3290  -48.7446 H         1 UNK         0.0851 
     83 H83        17.5805  -25.1026  -48.8889 H         1 UNK         0.0851 
     84 H84        17.3984  -26.1465  -46.6757 H         1 UNK         0.2976 
     85 H85        20.7994  -24.7452  -44.0946 H         1 UNK         0.3116 
     86 H86        20.9365  -23.3438  -42.4091 H         1 UNK         0.0646 
     87 H87        22.2623  -21.2879  -42.6980 H         1 UNK         0.0847 
     88 H88        21.5912  -21.7673  -44.2471 H         1 UNK         0.0847 
     89 H89        23.2924  -22.0638  -43.8908 H         1 UNK         0.0847 
     90 H90        22.5015  -25.8450  -42.1257 H         1 UNK         0.3040 
     91 H91        23.8048  -25.3490  -39.6266 H         1 UNK         0.1015 
     92 H92        25.7119  -24.7189  -41.1474 H         1 UNK         0.0786 
     93 H93        25.5097  -26.2202  -42.0470 H         1 UNK         0.0786 
     94 H94        26.0528  -26.2563  -40.3748 H         1 UNK         0.0786 
     95 H95        24.5705  -27.4842  -38.7521 H         1 UNK         0.3172 
     96 H96        22.6287  -29.5676  -39.2345 H         1 UNK         0.0595 
     97 H97        23.8644  -30.7305  -37.4048 H         1 UNK         0.0839 
     98 H98        23.4927  -29.0762  -36.9520 H         1 UNK         0.0839 
     99 H99        25.1278  -29.5097  -37.4553 H         1 UNK         0.0839 
    100 H100       23.0053  -31.6797  -39.9517 H         1 UNK         0.2998 
    101 H101       25.5214  -32.6045  -40.9861 H         1 UNK         0.0822 
    102 H102       24.7764  -31.1288  -42.9136 H         1 UNK         0.0787 
    103 H103       24.8411  -32.8169  -43.3634 H         1 UNK         0.0787 
    104 H104       23.2850  -32.0556  -43.0279 H         1 UNK         0.0787 
    105 H105       23.5408  -34.2772  -42.8180 H         1 UNK         0.3055 
    106 H106       23.2772  -36.5449  -41.1494 H         1 UNK         0.1106 
    107 H107       21.8954  -35.8692  -43.8066 H         1 UNK         0.0828 
    108 H108       23.4624  -36.6611  -43.6270 H         1 UNK         0.0828 
    109 H109       22.0015  -37.4726  -43.0945 H         1 UNK         0.0828 
    110 H110       21.2698  -33.7955  -41.2661 H         1 UNK         0.2931 
    111 H111       18.7853  -34.8599  -40.3583 H         1 UNK         0.0412 
    112 H112       21.1546  -34.8438  -37.0395 H         1 UNK         0.3472 
    113 H113       21.8532  -34.5337  -38.6132 H         1 UNK         0.3472 
    114 H114       18.3220  -32.4939  -39.6618 H         1 UNK         0.0970 
    115 H115       18.8547  -32.6384  -41.3123 H         1 UNK         0.0970 
    116 H116       20.4596  -29.1805  -40.3032 H         1 UNK         0.0612 
    117 H117       18.8555  -29.8556  -40.1437 H         1 UNK         0.0612 
@<TRIPOS>BOND
     1    1    2 1    
     2    1   62 1    
     3    1   63 1    
     4    1   64 1    
     5    2    3 2    
     6    2    4 am   BACKBONE|DICT|INTERRES
     7    4    5 1    
     8    4   65 1    
     9    5    6 1    
    10    5   25 1    
    11    5   66 1    
    12    6    7 1    
    13    6   67 1    
    14    6   68 1    
    15    7    8 1    
    16    8    9 1    
    17    8   69 1    
    18    8   70 1    
    19    9   10 ar   
    20    9   14 ar   
    21   10   11 ar   
    22   10   71 1    
    23   11   12 ar   
    24   11   61 1    
    25   12   13 ar   
    26   12   72 1    
    27   13   14 ar   
    28   13   15 1    
    29   14   73 1    
    30   15   16 1    
    31   15   74 1    
    32   15   75 1    
    33   16   17 1    
    34   17   18 1    
    35   17   76 1    
    36   17   77 1    
    37   18   19 1    
    38   18   27 1    
    39   18   78 1    
    40   19   20 am   BACKBONE|DICT|INTERRES
    41   19   79 1    
    42   20   21 2    
    43   20   22 1    
    44   22   23 1    
    45   22   24 1    
    46   22   80 1    
    47   23   81 1    
    48   23   82 1    
    49   23   83 1    
    50   24   25 am   BACKBONE|DICT|INTERRES
    51   24   84 1    
    52   25   26 2    
    53   27   28 2    
    54   27   29 am   BACKBONE|DICT|INTERRES
    55   29   30 1    
    56   29   85 1    
    57   30   31 1    
    58   30   32 1    
    59   30   86 1    
    60   31   87 1    
    61   31   88 1    
    62   31   89 1    
    63   32   33 2    
    64   32   34 am   BACKBONE|DICT|INTERRES
    65   34   35 1    
    66   34   90 1    
    67   35   36 1    
    68   35   37 1    
    69   35   91 1    
    70   36   92 1    
    71   36   93 1    
    72   36   94 1    
    73   37   38 2    
    74   37   39 am   BACKBONE|DICT|INTERRES
    75   39   40 1    
    76   39   95 1    
    77   40   41 1    
    78   40   42 1    
    79   40   96 1    
    80   41   97 1    
    81   41   98 1    
    82   41   99 1    
    83   42   43 2    
    84   42   44 am   BACKBONE|DICT|INTERRES
    85   44   45 1    
    86   44  100 1    
    87   45   46 1    
    88   45   47 1    
    89   45  101 1    
    90   46  102 1    
    91   46  103 1    
    92   46  104 1    
    93   47   48 2    
    94   47   49 am   BACKBONE|DICT|INTERRES
    95   49   50 1    
    96   49  105 1    
    97   50   51 1    
    98   50   52 1    
    99   50  106 1    
   100   51  107 1    
   101   51  108 1    
   102   51  109 1    
   103   52   53 2    
   104   52   54 am   BACKBONE|DICT|INTERRES
   105   54   55 1    
   106   54  110 1    
   107   55   56 1    
   108   55   59 1    
   109   55  111 1    
   110   56   57 am   BACKBONE|DICT|INTERRES
   111   56   58 2    
   112   57  112 1    
   113   57  113 1    
   114   59   60 1    
   115   59  114 1    
   116   59  115 1    
   117   60   61 1    
   118   61  116 1    
   119   61  117 1    
@<TRIPOS>SUBSTRUCTURE
     1 UNK         1 GROUP             0       ****    0 ROOT    
