@<TRIPOS>MOLECULE
3R8
117   119    1
SMALL
USER_CHARGES


@<TRIPOS>ATOM
      1 CA         24.0450  -25.8611  -46.3696 C.3       0 UNK        -0.2013 
      2 C          23.3382  -25.4217  -47.6495 C.2       0 UNK         0.4866 
      3 O          23.9732  -24.8156  -48.5103 O.2       0 UNK        -0.5176 
      4 N          22.0425  -25.7107  -47.8366 N.am      1 UNK        -0.4884 
      5 CA         21.1236  -26.3358  -46.8792 C.3       1 UNK         0.0853 
      6 C6         19.8770  -26.9042  -47.6169 C.3       10 UNK        -0.0849 
      7 S7         18.5275  -27.5067  -46.5381 S.3       10 UNK        -0.2776 
      8 C8         18.8963  -29.2878  -46.3928 C.3       10 UNK         0.0316 
      9 C9         18.1364  -29.9743  -45.2560 C.ar      10 UNK        -0.0863 
     10 C10        18.7403  -31.0340  -44.5683 C.ar      10 UNK        -0.1009 
     11 C11        18.0648  -31.6903  -43.5341 C.ar      10 UNK        -0.0712 
     12 C12        16.7799  -31.2756  -43.1782 C.ar      10 UNK        -0.0894 
     13 C13        16.1685  -30.2116  -43.8432 C.ar      10 UNK        -0.0745 
     14 C14        16.8400  -29.5811  -44.8940 C.ar      10 UNK        -0.0972 
     15 C15        14.7959  -29.7274  -43.4015 C.3       10 UNK         0.0209 
     16 S16        14.8723  -28.9038  -41.7767 S.3       10 UNK        -0.2568 
     17 C17        15.8400  -27.4002  -42.1506 C.3       10 UNK        -0.0983 
     18 CA         17.3616  -27.5615  -41.8990 C.3       3 UNK         0.0876 
     19 N          18.1168  -26.4524  -42.4890 N.am      3 UNK        -0.4424 
     20 C          19.4512  -26.3595  -42.5319 C.2       2 UNK         0.4918 
     21 O          20.2232  -27.1731  -42.0153 O.2       2 UNK        -0.4875 
     22 CA         20.0287  -25.2201  -43.3757 C.3       2 UNK         0.0481 
     23 CB         21.0916  -24.3982  -42.6252 C.3       2 UNK        -0.1831 
     24 N          20.6054  -25.8718  -44.5415 N.am      2 UNK        -0.4498 
     25 C          20.7505  -25.3384  -45.7580 C.2       1 UNK         0.5027 
     26 O          20.5675  -24.1472  -46.0209 O.2       1 UNK        -0.4969 
     27 C          17.7072  -27.7588  -40.4088 C.2       3 UNK         0.5005 
     28 O          17.4726  -26.8530  -39.6055 O.2       3 UNK        -0.5279 
     29 N          18.2961  -28.9241  -40.0959 N.am      4 UNK        -0.4463 
     30 CA         18.7972  -29.3512  -38.7829 C.3       4 UNK         0.0283 
     31 CB         17.6350  -29.5052  -37.7790 C.3       4 UNK        -0.1875 
     32 C          19.9497  -28.4888  -38.2228 C.2       4 UNK         0.4949 
     33 O          20.2135  -28.5550  -37.0211 O.2       4 UNK        -0.5039 
     34 N          20.6222  -27.7105  -39.0824 N.am      5 UNK        -0.4663 
     35 CA         21.7154  -26.8086  -38.7081 C.3       5 UNK         0.0242 
     36 CB         21.2278  -25.3543  -38.8048 C.3       5 UNK        -0.1982 
     37 C          22.9744  -27.0238  -39.5600 C.2       5 UNK         0.5017 
     38 O          24.0780  -26.8756  -39.0330 O.2       5 UNK        -0.5012 
     39 N          22.8081  -27.3648  -40.8461 N.am      6 UNK        -0.4439 
     40 CA         23.9035  -27.6879  -41.7625 C.3       6 UNK         0.0297 
     41 CB         23.3659  -27.7280  -43.2019 C.3       6 UNK        -0.2006 
     42 C          24.5583  -29.0320  -41.4145 C.2       6 UNK         0.4892 
     43 O          23.8692  -29.9431  -40.9512 O.2       6 UNK        -0.5089 
     44 N          25.8586  -29.1547  -41.7182 N.am      7 UNK        -0.4243 
     45 CA         26.6618  -30.3694  -41.5205 C.3       7 UNK         0.0196 
     46 CB         28.1241  -30.0822  -41.8968 C.3       7 UNK        -0.2007 
     47 C          26.1381  -31.5947  -42.2917 C.2       7 UNK         0.5020 
     48 O          26.2838  -32.7193  -41.8134 O.2       7 UNK        -0.5147 
     49 N          25.4816  -31.3529  -43.4358 N.am      8 UNK        -0.4734 
     50 CA         24.7606  -32.3555  -44.2281 C.3       8 UNK         0.0238 
     51 CB         24.2999  -31.7112  -45.5464 C.3       8 UNK        -0.1912 
     52 C          23.5597  -32.9868  -43.4945 C.2       8 UNK         0.5038 
     53 O          23.1439  -34.0837  -43.8690 O.2       8 UNK        -0.5046 
     54 N          23.0376  -32.2944  -42.4739 N.am      9 UNK        -0.4200 
     55 CA         21.9846  -32.7583  -41.5642 C.3       9 UNK         0.0839 
     56 C          22.5427  -33.2346  -40.1875 C.2       9 UNK         0.5513 
     57 N          23.8528  -33.3566  -39.9996 N.am      9 UNK        -0.7519 
     58 O          21.7783  -33.5256  -39.2718 O.2       9 UNK        -0.4960 
     59 C59        20.8691  -31.6812  -41.4422 C.3       10 UNK        -0.0876 
     60 S60        19.2287  -32.4108  -41.1235 S.3       10 UNK        -0.2414 
     61 C61        18.7013  -32.8628  -42.8057 C.3       10 UNK         0.0169 
     62 H62        23.9328  -26.9318  -46.2056 H         1 UNK         0.0903 
     63 H63        25.1128  -25.6530  -46.4359 H         1 UNK         0.0903 
     64 H64        23.6595  -25.3220  -45.5051 H         1 UNK         0.0903 
     65 H65        21.6080  -25.3810  -48.6868 H         1 UNK         0.3096 
     66 H66        21.6355  -27.1842  -46.4214 H         1 UNK         0.1121 
     67 H67        20.1777  -27.7064  -48.2930 H         1 UNK         0.0849 
     68 H68        19.4441  -26.1308  -48.2544 H         1 UNK         0.0849 
     69 H69        18.6520  -29.7826  -47.3337 H         1 UNK         0.0865 
     70 H70        19.9704  -29.4090  -46.2439 H         1 UNK         0.0865 
     71 H71        19.7352  -31.3571  -44.8437 H         1 UNK         0.1346 
     72 H72        16.2612  -31.7708  -42.3682 H         1 UNK         0.1412 
     73 H73        16.3545  -28.7676  -45.4147 H         1 UNK         0.1426 
     74 H74        14.1184  -30.5799  -43.3347 H         1 UNK         0.0716 
     75 H75        14.3616  -29.0472  -44.1359 H         1 UNK         0.0716 
     76 H76        15.4391  -26.5758  -41.5578 H         1 UNK         0.0695 
     77 H77        15.6594  -27.1312  -43.1926 H         1 UNK         0.0695 
     78 H78        17.6949  -28.4506  -42.4356 H         1 UNK         0.0983 
     79 H79        17.5681  -25.7355  -42.9400 H         1 UNK         0.3095 
     80 H80        19.2216  -24.5558  -43.6922 H         1 UNK         0.0454 
     81 H81        21.8923  -25.0212  -42.2278 H         1 UNK         0.0851 
     82 H82        20.6436  -23.8624  -41.7884 H         1 UNK         0.0851 
     83 H83        21.5457  -23.6509  -43.2757 H         1 UNK         0.0851 
     84 H84        20.7364  -26.8678  -44.4246 H         1 UNK         0.2976 
     85 H85        18.4481  -29.5900  -40.8420 H         1 UNK         0.3116 
     86 H86        19.2246  -30.3427  -38.9339 H         1 UNK         0.0646 
     87 H87        17.2003  -28.5417  -37.5116 H         1 UNK         0.0847 
     88 H88        17.9735  -29.9751  -36.8549 H         1 UNK         0.0847 
     89 H89        16.8406  -30.1314  -38.1850 H         1 UNK         0.0847 
     90 H90        20.3373  -27.7062  -40.0553 H         1 UNK         0.3040 
     91 H91        22.0174  -26.9904  -37.6742 H         1 UNK         0.1015 
     92 H92        20.8471  -25.1247  -39.7987 H         1 UNK         0.0786 
     93 H93        22.0333  -24.6514  -38.5872 H         1 UNK         0.0786 
     94 H94        20.4264  -25.1616  -38.0913 H         1 UNK         0.0786 
     95 H95        21.8680  -27.4439  -41.2224 H         1 UNK         0.3172 
     96 H96        24.6567  -26.9002  -41.6915 H         1 UNK         0.0595 
     97 H97        24.1474  -28.0109  -43.9080 H         1 UNK         0.0839 
     98 H98        23.0014  -26.7492  -43.5068 H         1 UNK         0.0839 
     99 H99        22.5511  -28.4455  -43.3099 H         1 UNK         0.0839 
    100 H100       26.3408  -28.3564  -42.1066 H         1 UNK         0.2998 
    101 H101       26.6226  -30.6170  -40.4574 H         1 UNK         0.0822 
    102 H102       28.7481  -30.9628  -41.7364 H         1 UNK         0.0787 
    103 H103       28.2240  -29.7987  -42.9454 H         1 UNK         0.0787 
    104 H104       28.5406  -29.2786  -41.2891 H         1 UNK         0.0787 
    105 H105       25.4231  -30.3963  -43.7525 H         1 UNK         0.3055 
    106 H106       25.4573  -33.1642  -44.4599 H         1 UNK         0.1106 
    107 H107       23.7838  -32.4375  -46.1763 H         1 UNK         0.0828 
    108 H108       23.6108  -30.8835  -45.3734 H         1 UNK         0.0828 
    109 H109       25.1452  -31.3323  -46.1211 H         1 UNK         0.0828 
    110 H110       23.4776  -31.4241  -42.1922 H         1 UNK         0.2931 
    111 H111       21.5359  -33.6509  -42.0023 H         1 UNK         0.0412 
    112 H112       24.1896  -33.6732  -39.1043 H         1 UNK         0.3472 
    113 H113       24.5129  -33.1403  -40.7356 H         1 UNK         0.3472 
    114 H114       20.7966  -31.0941  -42.3591 H         1 UNK         0.0970 
    115 H115       21.1064  -30.9610  -40.6567 H         1 UNK         0.0970 
    116 H116       17.9754  -33.6741  -42.7354 H         1 UNK         0.0612 
    117 H117       19.5471  -33.2612  -43.3683 H         1 UNK         0.0612 
@<TRIPOS>BOND
     1    1    2 1    
     2    1   62 1    
     3    1   63 1    
     4    1   64 1    
     5    2    3 2    
     6    2    4 am   BACKBONE|DICT|INTERRES
     7    4    5 1    
     8    4   65 1    
     9    5    6 1    
    10    5   25 1    
    11    5   66 1    
    12    6    7 1    
    13    6   67 1    
    14    6   68 1    
    15    7    8 1    
    16    8    9 1    
    17    8   69 1    
    18    8   70 1    
    19    9   10 ar   
    20    9   14 ar   
    21   10   11 ar   
    22   10   71 1    
    23   11   12 ar   
    24   11   61 1    
    25   12   13 ar   
    26   12   72 1    
    27   13   14 ar   
    28   13   15 1    
    29   14   73 1    
    30   15   16 1    
    31   15   74 1    
    32   15   75 1    
    33   16   17 1    
    34   17   18 1    
    35   17   76 1    
    36   17   77 1    
    37   18   19 1    
    38   18   27 1    
    39   18   78 1    
    40   19   20 am   BACKBONE|DICT|INTERRES
    41   19   79 1    
    42   20   21 2    
    43   20   22 1    
    44   22   23 1    
    45   22   24 1    
    46   22   80 1    
    47   23   81 1    
    48   23   82 1    
    49   23   83 1    
    50   24   25 am   BACKBONE|DICT|INTERRES
    51   24   84 1    
    52   25   26 2    
    53   27   28 2    
    54   27   29 am   BACKBONE|DICT|INTERRES
    55   29   30 1    
    56   29   85 1    
    57   30   31 1    
    58   30   32 1    
    59   30   86 1    
    60   31   87 1    
    61   31   88 1    
    62   31   89 1    
    63   32   33 2    
    64   32   34 am   BACKBONE|DICT|INTERRES
    65   34   35 1    
    66   34   90 1    
    67   35   36 1    
    68   35   37 1    
    69   35   91 1    
    70   36   92 1    
    71   36   93 1    
    72   36   94 1    
    73   37   38 2    
    74   37   39 am   BACKBONE|DICT|INTERRES
    75   39   40 1    
    76   39   95 1    
    77   40   41 1    
    78   40   42 1    
    79   40   96 1    
    80   41   97 1    
    81   41   98 1    
    82   41   99 1    
    83   42   43 2    
    84   42   44 am   BACKBONE|DICT|INTERRES
    85   44   45 1    
    86   44  100 1    
    87   45   46 1    
    88   45   47 1    
    89   45  101 1    
    90   46  102 1    
    91   46  103 1    
    92   46  104 1    
    93   47   48 2    
    94   47   49 am   BACKBONE|DICT|INTERRES
    95   49   50 1    
    96   49  105 1    
    97   50   51 1    
    98   50   52 1    
    99   50  106 1    
   100   51  107 1    
   101   51  108 1    
   102   51  109 1    
   103   52   53 2    
   104   52   54 am   BACKBONE|DICT|INTERRES
   105   54   55 1    
   106   54  110 1    
   107   55   56 1    
   108   55   59 1    
   109   55  111 1    
   110   56   57 am   BACKBONE|DICT|INTERRES
   111   56   58 2    
   112   57  112 1    
   113   57  113 1    
   114   59   60 1    
   115   59  114 1    
   116   59  115 1    
   117   60   61 1    
   118   61  116 1    
   119   61  117 1    
@<TRIPOS>SUBSTRUCTURE
     1 UNK         1 GROUP             0       ****    0 ROOT    
