@<TRIPOS>MOLECULE
3R8
117   119    1
SMALL
USER_CHARGES


@<TRIPOS>ATOM
      1 CA         17.5303  -22.0548  -44.1732 C.3       0 UNK        -0.2013 
      2 C          17.7177  -23.3153  -45.0045 C.2       0 UNK         0.4866 
      3 O          17.3358  -23.3413  -46.1750 O.2       0 UNK        -0.5176 
      4 N          18.3078  -24.3557  -44.4107 N.am      1 UNK        -0.4884 
      5 CA         18.6059  -25.6433  -45.0365 C.3       1 UNK         0.0853 
      6 C6         17.3501  -26.5294  -45.2662 C.3       10 UNK        -0.0849 
      7 S7         16.4263  -26.9268  -43.7444 S.3       10 UNK        -0.2776 
      8 C8         15.5986  -28.4719  -44.2385 C.3       10 UNK         0.0316 
      9 C9         16.4063  -29.7053  -43.8585 C.ar      10 UNK        -0.0863 
     10 C10        16.9053  -30.5756  -44.8345 C.ar      10 UNK        -0.1009 
     11 C11        17.5536  -31.7612  -44.4650 C.ar      10 UNK        -0.0712 
     12 C12        17.7359  -32.0513  -43.1082 C.ar      10 UNK        -0.0894 
     13 C13        17.2403  -31.1862  -42.1263 C.ar      10 UNK        -0.0745 
     14 C14        16.5784  -30.0185  -42.5089 C.ar      10 UNK        -0.0972 
     15 C15        17.3438  -31.5458  -40.6525 C.3       10 UNK         0.0209 
     16 S16        18.9596  -31.1209  -39.9438 S.3       10 UNK        -0.2568 
     17 C17        18.9035  -29.3022  -39.8126 C.3       10 UNK        -0.0983 
     18 CA         20.1930  -28.6692  -40.3908 C.3       3 UNK         0.0876 
     19 N          20.1920  -28.6005  -41.8592 N.am      3 UNK        -0.4424 
     20 C          21.3134  -28.4872  -42.5835 C.2       2 UNK         0.4918 
     21 O          22.4394  -28.4915  -42.0887 O.2       2 UNK        -0.4875 
     22 CA         21.1910  -28.3442  -44.1078 C.3       2 UNK         0.0481 
     23 CB         21.1980  -29.7276  -44.7589 C.3       2 UNK        -0.1831 
     24 N          20.0322  -27.5890  -44.5853 N.am      2 UNK        -0.4498 
     25 C          19.7308  -26.3308  -44.2400 C.2       1 UNK         0.5027 
     26 O          20.3156  -25.7142  -43.3434 O.2       1 UNK        -0.4969 
     27 C          20.5082  -27.3077  -39.7349 C.2       3 UNK         0.5005 
     28 O          21.0727  -27.2983  -38.6405 O.2       3 UNK        -0.5279 
     29 N          20.2019  -26.1885  -40.4104 N.am      4 UNK        -0.4463 
     30 CA         20.6087  -24.8450  -39.9801 C.3       4 UNK         0.0283 
     31 CB         19.7221  -23.7806  -40.6477 C.3       4 UNK        -0.1875 
     32 C          22.0956  -24.5860  -40.2794 C.2       4 UNK         0.4949 
     33 O          22.7690  -23.9262  -39.4886 O.2       4 UNK        -0.5039 
     34 N          22.5873  -25.1429  -41.3959 N.am      5 UNK        -0.4663 
     35 CA         23.9972  -25.1196  -41.8019 C.3       5 UNK         0.0242 
     36 CB         24.0797  -25.4271  -43.3062 C.3       5 UNK        -0.1982 
     37 C          24.8915  -26.0942  -41.0069 C.2       5 UNK         0.5017 
     38 O          26.1134  -26.0196  -41.1363 O.2       5 UNK        -0.5012 
     39 N          24.2734  -26.9957  -40.2284 N.am      6 UNK        -0.4439 
     40 CA         24.8718  -28.0713  -39.4257 C.3       6 UNK         0.0297 
     41 CB         25.8250  -27.5090  -38.3499 C.3       6 UNK        -0.2006 
     42 C          25.5114  -29.2030  -40.2593 C.2       6 UNK         0.4892 
     43 O          26.3231  -29.9632  -39.7292 O.2       6 UNK        -0.5089 
     44 N          25.1109  -29.3226  -41.5317 N.am      7 UNK        -0.4243 
     45 CA         25.4530  -30.4356  -42.4214 C.3       7 UNK         0.0196 
     46 CB         25.4542  -29.9331  -43.8744 C.3       7 UNK        -0.2007 
     47 C          24.4690  -31.6070  -42.2592 C.2       7 UNK         0.5020 
     48 O          24.8578  -32.7614  -42.4383 O.2       7 UNK        -0.5147 
     49 N          23.2081  -31.2792  -41.9380 N.am      8 UNK        -0.4734 
     50 CA         22.0840  -32.1704  -41.6162 C.3       8 UNK         0.0238 
     51 CB         22.3159  -32.8324  -40.2426 C.3       8 UNK        -0.1912 
     52 C          21.7050  -33.1965  -42.7037 C.2       8 UNK         0.5038 
     53 O          21.0536  -34.1943  -42.3908 O.2       8 UNK        -0.5046 
     54 N          22.1159  -32.9366  -43.9522 N.am      9 UNK        -0.4200 
     55 CA         21.9853  -33.8300  -45.1150 C.3       9 UNK         0.0839 
     56 C          22.8199  -35.1431  -44.9918 C.2       9 UNK         0.5513 
     57 N          23.8584  -35.1867  -44.1633 N.am      9 UNK        -0.7519 
     58 O          22.5486  -36.1265  -45.6764 O.2       9 UNK        -0.4960 
     59 C59        20.5069  -34.0699  -45.5446 C.3       10 UNK        -0.0876 
     60 S60        19.6852  -32.5311  -46.0887 S.3       10 UNK        -0.2414 
     61 C61        17.9709  -32.7700  -45.5287 C.3       10 UNK         0.0169 
     62 H62        16.4724  -21.8016  -44.1101 H         1 UNK         0.0903 
     63 H63        17.9107  -22.1744  -43.1589 H         1 UNK         0.0903 
     64 H64        18.0541  -21.2187  -44.6355 H         1 UNK         0.0903 
     65 H65        18.6644  -24.2780  -43.4673 H         1 UNK         0.3096 
     66 H66        19.0431  -25.4301  -46.0147 H         1 UNK         0.1121 
     67 H67        16.6638  -26.0174  -45.9423 H         1 UNK         0.0849 
     68 H68        17.6166  -27.4529  -45.7825 H         1 UNK         0.0849 
     69 H69        15.3781  -28.4557  -45.3071 H         1 UNK         0.0865 
     70 H70        14.6314  -28.5214  -43.7360 H         1 UNK         0.0865 
     71 H71        16.7483  -30.3566  -45.8820 H         1 UNK         0.1346 
     72 H72        18.2279  -32.9696  -42.8162 H         1 UNK         0.1412 
     73 H73        16.1661  -29.3613  -41.7552 H         1 UNK         0.1426 
     74 H74        17.1838  -32.6182  -40.5319 H         1 UNK         0.0716 
     75 H75        16.5561  -31.0578  -40.0762 H         1 UNK         0.0716 
     76 H76        18.7938  -29.0752  -38.7500 H         1 UNK         0.0695 
     77 H77        18.0160  -28.8976  -40.2992 H         1 UNK         0.0695 
     78 H78        21.0262  -29.3119  -40.0947 H         1 UNK         0.0983 
     79 H79        19.2968  -28.6218  -42.3267 H         1 UNK         0.3095 
     80 H80        22.0754  -27.8093  -44.4571 H         1 UNK         0.0454 
     81 H81        21.1008  -29.6668  -45.8429 H         1 UNK         0.0851 
     82 H82        20.3841  -30.3456  -44.3781 H         1 UNK         0.0851 
     83 H83        22.1337  -30.2445  -44.5532 H         1 UNK         0.0851 
     84 H84        19.4837  -28.0330  -45.3071 H         1 UNK         0.2976 
     85 H85        19.8033  -26.2664  -41.3379 H         1 UNK         0.3116 
     86 H86        20.4642  -24.7676  -38.9001 H         1 UNK         0.0646 
     87 H87        19.9354  -22.7925  -40.2378 H         1 UNK         0.0847 
     88 H88        18.6636  -23.9785  -40.4790 H         1 UNK         0.0847 
     89 H89        19.8902  -23.7219  -41.7224 H         1 UNK         0.0847 
     90 H90        21.9383  -25.6050  -42.0234 H         1 UNK         0.3040 
     91 H91        24.3869  -24.1130  -41.6343 H         1 UNK         0.1015 
     92 H92        23.4561  -24.7478  -43.8879 H         1 UNK         0.0786 
     93 H93        23.7634  -26.4464  -43.5260 H         1 UNK         0.0786 
     94 H94        25.1023  -25.3203  -43.6707 H         1 UNK         0.0786 
     95 H95        23.2629  -26.9750  -40.2359 H         1 UNK         0.3172 
     96 H96        24.0350  -28.5359  -38.9020 H         1 UNK         0.0595 
     97 H97        26.7362  -27.1004  -38.7873 H         1 UNK         0.0839 
     98 H98        26.1260  -28.2878  -37.6482 H         1 UNK         0.0839 
     99 H99        25.3471  -26.7201  -37.7691 H         1 UNK         0.0839 
    100 H100       24.3927  -28.6838  -41.8559 H         1 UNK         0.2998 
    101 H101       26.4539  -30.8017  -42.1821 H         1 UNK         0.0822 
    102 H102       24.4871  -29.5210  -44.1640 H         1 UNK         0.0787 
    103 H103       26.2033  -29.1545  -44.0196 H         1 UNK         0.0787 
    104 H104       25.6893  -30.7414  -44.5683 H         1 UNK         0.0787 
    105 H105       23.0045  -30.2872  -41.8579 H         1 UNK         0.3055 
    106 H106       21.2143  -31.5214  -41.5339 H         1 UNK         0.1106 
    107 H107       23.1513  -33.5328  -40.2700 H         1 UNK         0.0828 
    108 H108       22.5255  -32.0877  -39.4747 H         1 UNK         0.0828 
    109 H109       21.4344  -33.3862  -39.9171 H         1 UNK         0.0828 
    110 H110       22.6776  -32.1131  -44.0978 H         1 UNK         0.2931 
    111 H111       22.4661  -33.2951  -45.9350 H         1 UNK         0.0412 
    112 H112       24.1098  -34.3821  -43.6005 H         1 UNK         0.3472 
    113 H113       24.4000  -36.0339  -44.0968 H         1 UNK         0.3472 
    114 H114       20.4562  -34.7662  -46.3833 H         1 UNK         0.0970 
    115 H115       19.9460  -34.5365  -44.7343 H         1 UNK         0.0970 
    116 H116       17.3147  -32.6805  -46.3957 H         1 UNK         0.0612 
    117 H117       17.8249  -33.7846  -45.1563 H         1 UNK         0.0612 
@<TRIPOS>BOND
     1    1    2 1    
     2    1   62 1    
     3    1   63 1    
     4    1   64 1    
     5    2    3 2    
     6    2    4 am   BACKBONE|DICT|INTERRES
     7    4    5 1    
     8    4   65 1    
     9    5    6 1    
    10    5   25 1    
    11    5   66 1    
    12    6    7 1    
    13    6   67 1    
    14    6   68 1    
    15    7    8 1    
    16    8    9 1    
    17    8   69 1    
    18    8   70 1    
    19    9   10 ar   
    20    9   14 ar   
    21   10   11 ar   
    22   10   71 1    
    23   11   12 ar   
    24   11   61 1    
    25   12   13 ar   
    26   12   72 1    
    27   13   14 ar   
    28   13   15 1    
    29   14   73 1    
    30   15   16 1    
    31   15   74 1    
    32   15   75 1    
    33   16   17 1    
    34   17   18 1    
    35   17   76 1    
    36   17   77 1    
    37   18   19 1    
    38   18   27 1    
    39   18   78 1    
    40   19   20 am   BACKBONE|DICT|INTERRES
    41   19   79 1    
    42   20   21 2    
    43   20   22 1    
    44   22   23 1    
    45   22   24 1    
    46   22   80 1    
    47   23   81 1    
    48   23   82 1    
    49   23   83 1    
    50   24   25 am   BACKBONE|DICT|INTERRES
    51   24   84 1    
    52   25   26 2    
    53   27   28 2    
    54   27   29 am   BACKBONE|DICT|INTERRES
    55   29   30 1    
    56   29   85 1    
    57   30   31 1    
    58   30   32 1    
    59   30   86 1    
    60   31   87 1    
    61   31   88 1    
    62   31   89 1    
    63   32   33 2    
    64   32   34 am   BACKBONE|DICT|INTERRES
    65   34   35 1    
    66   34   90 1    
    67   35   36 1    
    68   35   37 1    
    69   35   91 1    
    70   36   92 1    
    71   36   93 1    
    72   36   94 1    
    73   37   38 2    
    74   37   39 am   BACKBONE|DICT|INTERRES
    75   39   40 1    
    76   39   95 1    
    77   40   41 1    
    78   40   42 1    
    79   40   96 1    
    80   41   97 1    
    81   41   98 1    
    82   41   99 1    
    83   42   43 2    
    84   42   44 am   BACKBONE|DICT|INTERRES
    85   44   45 1    
    86   44  100 1    
    87   45   46 1    
    88   45   47 1    
    89   45  101 1    
    90   46  102 1    
    91   46  103 1    
    92   46  104 1    
    93   47   48 2    
    94   47   49 am   BACKBONE|DICT|INTERRES
    95   49   50 1    
    96   49  105 1    
    97   50   51 1    
    98   50   52 1    
    99   50  106 1    
   100   51  107 1    
   101   51  108 1    
   102   51  109 1    
   103   52   53 2    
   104   52   54 am   BACKBONE|DICT|INTERRES
   105   54   55 1    
   106   54  110 1    
   107   55   56 1    
   108   55   59 1    
   109   55  111 1    
   110   56   57 am   BACKBONE|DICT|INTERRES
   111   56   58 2    
   112   57  112 1    
   113   57  113 1    
   114   59   60 1    
   115   59  114 1    
   116   59  115 1    
   117   60   61 1    
   118   61  116 1    
   119   61  117 1    
@<TRIPOS>SUBSTRUCTURE
     1 UNK         1 GROUP             0       ****    0 ROOT    
