@<TRIPOS>MOLECULE
3R8
117   119    1
SMALL
USER_CHARGES


@<TRIPOS>ATOM
      1 CA         18.2634  -24.8173  -46.0630 C.3       0 UNK        -0.2013 
      2 C          17.9204  -26.2192  -46.5636 C.2       0 UNK         0.4866 
      3 O          17.7376  -26.3858  -47.7677 O.2       0 UNK        -0.5176 
      4 N          17.8276  -27.2628  -45.7226 N.am      1 UNK        -0.4884 
      5 CA         17.9892  -27.3279  -44.2597 C.3       1 UNK         0.0853 
      6 C6         16.7804  -26.7735  -43.4593 C.3       10 UNK        -0.0849 
      7 S7         15.2330  -27.6493  -43.8611 S.3       10 UNK        -0.2776 
      8 C8         15.0123  -28.7066  -42.3931 C.3       10 UNK         0.0316 
      9 C9         15.9672  -29.8948  -42.3702 C.ar      10 UNK        -0.0863 
     10 C10        15.8120  -30.9297  -43.2980 C.ar      10 UNK        -0.1009 
     11 C11        16.6164  -32.0718  -43.2369 C.ar      10 UNK        -0.0712 
     12 C12        17.5940  -32.1670  -42.2420 C.ar      10 UNK        -0.0894 
     13 C13        17.7613  -31.1403  -41.3069 C.ar      10 UNK        -0.0745 
     14 C14        16.9519  -30.0012  -41.3811 C.ar      10 UNK        -0.0972 
     15 C15        18.7686  -31.3069  -40.1775 C.3       10 UNK         0.0209 
     16 S16        20.4243  -30.7180  -40.6390 S.3       10 UNK        -0.2568 
     17 C17        20.4042  -29.0282  -39.9677 C.3       10 UNK        -0.0983 
     18 CA         21.5811  -28.1739  -40.4964 C.3       3 UNK         0.0876 
     19 N          21.4866  -27.9704  -41.9490 N.am      3 UNK        -0.4424 
     20 C          22.3084  -27.2388  -42.7165 C.2       2 UNK         0.4918 
     21 O          23.3816  -26.7916  -42.3172 O.2       2 UNK        -0.4875 
     22 CA         21.8195  -26.8409  -44.1258 C.3       2 UNK         0.0481 
     23 CB         22.7645  -27.3641  -45.2199 C.3       2 UNK        -0.1831 
     24 N          20.4300  -27.2102  -44.4343 N.am      2 UNK        -0.4498 
     25 C          19.3439  -26.7695  -43.7797 C.2       1 UNK         0.5027 
     26 O          19.3966  -25.9767  -42.8364 O.2       1 UNK        -0.4969 
     27 C          21.6657  -26.8550  -39.6948 C.2       3 UNK         0.5005 
     28 O          22.2332  -26.8520  -38.6021 O.2       3 UNK        -0.5279 
     29 N          21.1344  -25.7553  -40.2527 N.am      4 UNK        -0.4463 
     30 CA         21.2822  -24.3968  -39.7254 C.3       4 UNK         0.0283 
     31 CB         20.3662  -23.4533  -40.5213 C.3       4 UNK        -0.1875 
     32 C          22.7343  -23.8733  -39.7433 C.2       4 UNK         0.4949 
     33 O          23.0538  -22.9886  -38.9487 O.2       4 UNK        -0.5039 
     34 N          23.5765  -24.4089  -40.6391 N.am      5 UNK        -0.4663 
     35 CA         24.9853  -24.0400  -40.7956 C.3       5 UNK         0.0242 
     36 CB         25.2457  -23.6650  -42.2653 C.3       5 UNK        -0.1982 
     37 C          25.9286  -25.1732  -40.3599 C.2       5 UNK         0.5017 
     38 O          26.9339  -24.8941  -39.7051 O.2       5 UNK        -0.5012 
     39 N          25.6068  -26.4179  -40.7350 N.am      6 UNK        -0.4439 
     40 CA         26.4118  -27.6107  -40.4854 C.3       6 UNK         0.0297 
     41 CB         27.4757  -27.7738  -41.5928 C.3       6 UNK        -0.2006 
     42 C          25.4893  -28.8283  -40.3337 C.2       6 UNK         0.4892 
     43 O          25.0490  -29.1095  -39.2189 O.2       6 UNK        -0.5089 
     44 N          25.2140  -29.5300  -41.4393 N.am      7 UNK        -0.4243 
     45 CA         24.3904  -30.7360  -41.5021 C.3       7 UNK         0.0196 
     46 CB         25.2578  -31.9730  -41.2064 C.3       7 UNK        -0.2007 
     47 C          23.7497  -30.8329  -42.8911 C.2       7 UNK         0.5020 
     48 O          24.2519  -30.2247  -43.8392 O.2       7 UNK        -0.5147 
     49 N          22.6667  -31.6076  -42.9889 N.am      8 UNK        -0.4734 
     50 CA         21.9090  -31.8674  -44.2095 C.3       8 UNK         0.0238 
     51 CB         20.8224  -30.7913  -44.3864 C.3       8 UNK        -0.1912 
     52 C          21.2547  -33.2478  -44.1089 C.2       8 UNK         0.5038 
     53 O          21.1008  -33.7731  -43.0026 O.2       8 UNK        -0.5046 
     54 N          20.8394  -33.7750  -45.2669 N.am      9 UNK        -0.4200 
     55 CA         20.0227  -34.9922  -45.4193 C.3       9 UNK         0.0839 
     56 C          20.7288  -36.3201  -45.0060 C.2       9 UNK         0.5513 
     57 N          22.0517  -36.3586  -44.9021 N.am      9 UNK        -0.7519 
     58 O          20.0748  -37.3414  -44.8093 O.2       9 UNK        -0.4960 
     59 C59        18.6057  -34.8409  -44.7927 C.3       10 UNK        -0.0876 
     60 S60        17.6961  -33.3930  -45.4397 S.3       10 UNK        -0.2414 
     61 C61        16.3742  -33.2263  -44.2013 C.3       10 UNK         0.0169 
     62 H62        17.8471  -24.6007  -45.0830 H         1 UNK         0.0903 
     63 H63        19.3445  -24.6892  -46.0158 H         1 UNK         0.0903 
     64 H64        17.8707  -24.0681  -46.7502 H         1 UNK         0.0903 
     65 H65        17.5861  -28.1518  -46.1386 H         1 UNK         0.3096 
     66 H66        18.0418  -28.3937  -44.0267 H         1 UNK         0.1121 
     67 H67        16.6264  -25.7117  -43.6457 H         1 UNK         0.0849 
     68 H68        16.9605  -26.8587  -42.3858 H         1 UNK         0.0849 
     69 H69        15.1094  -28.1047  -41.4882 H         1 UNK         0.0865 
     70 H70        13.9883  -29.0831  -42.3900 H         1 UNK         0.0865 
     71 H71        15.0396  -30.8553  -44.0517 H         1 UNK         0.1346 
     72 H72        18.2113  -33.0523  -42.1781 H         1 UNK         0.1412 
     73 H73        17.0634  -29.2169  -40.6450 H         1 UNK         0.1426 
     74 H74        18.8429  -32.3618  -39.9089 H         1 UNK         0.0716 
     75 H75        18.4245  -30.7950  -39.2775 H         1 UNK         0.0716 
     76 H76        20.4439  -29.1133  -38.8795 H         1 UNK         0.0695 
     77 H77        19.4496  -28.5561  -40.2075 H         1 UNK         0.0695 
     78 H78        22.5116  -28.7052  -40.3015 H         1 UNK         0.0983 
     79 H79        20.6392  -28.3153  -42.3712 H         1 UNK         0.3095 
     80 H80        21.8656  -25.7504  -44.1579 H         1 UNK         0.0454 
     81 H81        22.4893  -26.9758  -46.2005 H         1 UNK         0.0851 
     82 H82        22.7719  -28.4512  -45.2803 H         1 UNK         0.0851 
     83 H83        23.7918  -27.0501  -45.0294 H         1 UNK         0.0851 
     84 H84        20.2921  -27.8309  -45.2196 H         1 UNK         0.2976 
     85 H85        20.6374  -25.8474  -41.1332 H         1 UNK         0.3116 
     86 H86        20.9484  -24.4028  -38.6856 H         1 UNK         0.0646 
     87 H87        20.6376  -23.4236  -41.5776 H         1 UNK         0.0847 
     88 H88        20.4276  -22.4334  -40.1392 H         1 UNK         0.0847 
     89 H89        19.3226  -23.7614  -40.4537 H         1 UNK         0.0847 
     90 H90        23.2418  -25.1580  -41.2345 H         1 UNK         0.3040 
     91 H91        25.2211  -23.1677  -40.1807 H         1 UNK         0.1015 
     92 H92        25.0240  -24.4921  -42.9421 H         1 UNK         0.0786 
     93 H93        26.2897  -23.3878  -42.4187 H         1 UNK         0.0786 
     94 H94        24.6371  -22.8126  -42.5688 H         1 UNK         0.0786 
     95 H95        24.7572  -26.5658  -41.2803 H         1 UNK         0.3172 
     96 H96        26.9328  -27.5000  -39.5311 H         1 UNK         0.0595 
     97 H97        27.0370  -27.7613  -42.5917 H         1 UNK         0.0839 
     98 H98        28.0221  -28.7116  -41.4794 H         1 UNK         0.0839 
     99 H99        28.2104  -26.9695  -41.5487 H         1 UNK         0.0839 
    100 H100       25.5433  -29.2050  -42.3402 H         1 UNK         0.2998 
    101 H101       23.5912  -30.6757  -40.7613 H         1 UNK         0.0822 
    102 H102       24.6666  -32.8887  -41.2516 H         1 UNK         0.0787 
    103 H103       26.0727  -32.0730  -41.9246 H         1 UNK         0.0787 
    104 H104       25.6951  -31.9213  -40.2091 H         1 UNK         0.0787 
    105 H105       22.3266  -32.1154  -42.1801 H         1 UNK         0.3055 
    106 H106       22.5876  -31.8589  -45.0658 H         1 UNK         0.1106 
    107 H107       20.3269  -30.8850  -45.3534 H         1 UNK         0.0828 
    108 H108       20.0504  -30.8659  -43.6193 H         1 UNK         0.0828 
    109 H109       21.2473  -29.7951  -44.3307 H         1 UNK         0.0828 
    110 H110       21.0213  -33.2723  -46.1233 H         1 UNK         0.2931 
    111 H111       19.8777  -35.0961  -46.4953 H         1 UNK         0.0412 
    112 H112       22.6015  -35.5310  -45.0680 H         1 UNK         0.3472 
    113 H113       22.5028  -37.2228  -44.6451 H         1 UNK         0.3472 
    114 H114       18.0001  -35.7249  -45.0001 H         1 UNK         0.0970 
    115 H115       18.6786  -34.7736  -43.7068 H         1 UNK         0.0970 
    116 H116       16.2615  -34.1546  -43.6399 H         1 UNK         0.0612 
    117 H117       15.4314  -33.0837  -44.7312 H         1 UNK         0.0612 
@<TRIPOS>BOND
     1    1    2 1    
     2    1   62 1    
     3    1   63 1    
     4    1   64 1    
     5    2    3 2    
     6    2    4 am   BACKBONE|DICT|INTERRES
     7    4    5 1    
     8    4   65 1    
     9    5    6 1    
    10    5   25 1    
    11    5   66 1    
    12    6    7 1    
    13    6   67 1    
    14    6   68 1    
    15    7    8 1    
    16    8    9 1    
    17    8   69 1    
    18    8   70 1    
    19    9   10 ar   
    20    9   14 ar   
    21   10   11 ar   
    22   10   71 1    
    23   11   12 ar   
    24   11   61 1    
    25   12   13 ar   
    26   12   72 1    
    27   13   14 ar   
    28   13   15 1    
    29   14   73 1    
    30   15   16 1    
    31   15   74 1    
    32   15   75 1    
    33   16   17 1    
    34   17   18 1    
    35   17   76 1    
    36   17   77 1    
    37   18   19 1    
    38   18   27 1    
    39   18   78 1    
    40   19   20 am   BACKBONE|DICT|INTERRES
    41   19   79 1    
    42   20   21 2    
    43   20   22 1    
    44   22   23 1    
    45   22   24 1    
    46   22   80 1    
    47   23   81 1    
    48   23   82 1    
    49   23   83 1    
    50   24   25 am   BACKBONE|DICT|INTERRES
    51   24   84 1    
    52   25   26 2    
    53   27   28 2    
    54   27   29 am   BACKBONE|DICT|INTERRES
    55   29   30 1    
    56   29   85 1    
    57   30   31 1    
    58   30   32 1    
    59   30   86 1    
    60   31   87 1    
    61   31   88 1    
    62   31   89 1    
    63   32   33 2    
    64   32   34 am   BACKBONE|DICT|INTERRES
    65   34   35 1    
    66   34   90 1    
    67   35   36 1    
    68   35   37 1    
    69   35   91 1    
    70   36   92 1    
    71   36   93 1    
    72   36   94 1    
    73   37   38 2    
    74   37   39 am   BACKBONE|DICT|INTERRES
    75   39   40 1    
    76   39   95 1    
    77   40   41 1    
    78   40   42 1    
    79   40   96 1    
    80   41   97 1    
    81   41   98 1    
    82   41   99 1    
    83   42   43 2    
    84   42   44 am   BACKBONE|DICT|INTERRES
    85   44   45 1    
    86   44  100 1    
    87   45   46 1    
    88   45   47 1    
    89   45  101 1    
    90   46  102 1    
    91   46  103 1    
    92   46  104 1    
    93   47   48 2    
    94   47   49 am   BACKBONE|DICT|INTERRES
    95   49   50 1    
    96   49  105 1    
    97   50   51 1    
    98   50   52 1    
    99   50  106 1    
   100   51  107 1    
   101   51  108 1    
   102   51  109 1    
   103   52   53 2    
   104   52   54 am   BACKBONE|DICT|INTERRES
   105   54   55 1    
   106   54  110 1    
   107   55   56 1    
   108   55   59 1    
   109   55  111 1    
   110   56   57 am   BACKBONE|DICT|INTERRES
   111   56   58 2    
   112   57  112 1    
   113   57  113 1    
   114   59   60 1    
   115   59  114 1    
   116   59  115 1    
   117   60   61 1    
   118   61  116 1    
   119   61  117 1    
@<TRIPOS>SUBSTRUCTURE
     1 UNK         1 GROUP             0       ****    0 ROOT    
