@<TRIPOS>MOLECULE
3R8
117   119    1
SMALL
USER_CHARGES


@<TRIPOS>ATOM
      1 CA         14.0307  -24.4188  -47.1231 C.3       0 UNK        -0.2013 
      2 C          14.8782  -24.3843  -45.8603 C.2       0 UNK         0.4866 
      3 O          14.8786  -23.3768  -45.1535 O.2       0 UNK        -0.5176 
      4 N          15.6063  -25.4753  -45.5794 N.am      1 UNK        -0.4884 
      5 CA         16.4793  -25.6597  -44.4078 C.3       1 UNK         0.0853 
      6 C6         15.6968  -25.5955  -43.0642 C.3       10 UNK        -0.0849 
      7 S7         16.4188  -26.5629  -41.6913 S.3       10 UNK        -0.2776 
      8 C8         15.9926  -28.2881  -42.1052 C.3       10 UNK         0.0316 
      9 C9         17.2040  -29.0397  -42.6424 C.ar      10 UNK        -0.0863 
     10 C10        18.1824  -29.5155  -41.7627 C.ar      10 UNK        -0.1009 
     11 C11        19.3151  -30.1778  -42.2469 C.ar      10 UNK        -0.0712 
     12 C12        19.4767  -30.3418  -43.6269 C.ar      10 UNK        -0.0894 
     13 C13        18.4960  -29.8913  -44.5148 C.ar      10 UNK        -0.0745 
     14 C14        17.3528  -29.2616  -44.0139 C.ar      10 UNK        -0.0972 
     15 C15        18.6481  -30.1046  -46.0139 C.3       10 UNK         0.0209 
     16 S16        18.7694  -28.5275  -46.9188 S.3       10 UNK        -0.2568 
     17 C17        20.5757  -28.2569  -47.0614 C.3       10 UNK        -0.0983 
     18 CA         21.1426  -27.1062  -46.1817 C.3       3 UNK         0.0876 
     19 N          20.2580  -25.9393  -46.2024 N.am      3 UNK        -0.4424 
     20 C          20.5800  -24.6627  -45.9626 C.2       2 UNK         0.4918 
     21 O          21.7241  -24.2745  -45.7315 O.2       2 UNK        -0.4875 
     22 CA         19.4094  -23.6589  -45.9484 C.3       2 UNK         0.0481 
     23 CB         19.3151  -22.9242  -47.2946 C.3       2 UNK        -0.1831 
     24 N          18.1217  -24.3026  -45.6557 N.am      2 UNK        -0.4498 
     25 C          17.7675  -24.7997  -44.4591 C.2       1 UNK         0.5027 
     26 O          18.4593  -24.6542  -43.4520 O.2       1 UNK        -0.4969 
     27 C          21.5220  -27.5818  -44.7595 C.2       3 UNK         0.5005 
     28 O          22.2322  -28.5829  -44.6371 O.2       3 UNK        -0.5279 
     29 N          21.0767  -26.8749  -43.7090 N.am      4 UNK        -0.4463 
     30 CA         21.3591  -27.1629  -42.3011 C.3       4 UNK         0.0283 
     31 CB         20.3286  -26.4414  -41.4181 C.3       4 UNK        -0.1875 
     32 C          22.8085  -26.8457  -41.8914 C.2       4 UNK         0.4949 
     33 O          23.0439  -25.9928  -41.0330 O.2       4 UNK        -0.5039 
     34 N          23.7642  -27.5649  -42.4892 N.am      5 UNK        -0.4663 
     35 CA         25.1902  -27.5518  -42.1568 C.3       5 UNK         0.0242 
     36 CB         25.9823  -28.1067  -43.3552 C.3       5 UNK        -0.1982 
     37 C          25.4606  -28.3277  -40.8523 C.2       5 UNK         0.5017 
     38 O          26.1412  -29.3546  -40.8695 O.2       5 UNK        -0.5012 
     39 N          24.8833  -27.8354  -39.7479 N.am      6 UNK        -0.4439 
     40 CA         24.8802  -28.4280  -38.4087 C.3       6 UNK         0.0297 
     41 CB         26.2925  -28.3657  -37.7805 C.3       6 UNK        -0.2006 
     42 C          24.2405  -29.8319  -38.4191 C.2       6 UNK         0.4892 
     43 O          23.1014  -29.9689  -38.8674 O.2       6 UNK        -0.5089 
     44 N          24.9722  -30.8418  -37.9334 N.am      7 UNK        -0.4243 
     45 CA         24.5246  -32.2290  -37.7883 C.3       7 UNK         0.0196 
     46 CB         25.3447  -32.8881  -36.6641 C.3       7 UNK        -0.2007 
     47 C          24.5883  -33.0635  -39.0840 C.2       7 UNK         0.5020 
     48 O          24.3899  -34.2764  -39.0103 O.2       7 UNK        -0.5147 
     49 N          24.8621  -32.4395  -40.2407 N.am      8 UNK        -0.4734 
     50 CA         25.0204  -33.0961  -41.5486 C.3       8 UNK         0.0238 
     51 CB         25.3490  -32.0377  -42.6138 C.3       8 UNK        -0.1912 
     52 C          23.8262  -33.9549  -42.0097 C.2       8 UNK         0.5038 
     53 O          24.0359  -34.9281  -42.7352 O.2       8 UNK        -0.5046 
     54 N          22.6123  -33.5918  -41.5792 N.am      9 UNK        -0.4200 
     55 CA         21.3763  -34.3595  -41.7952 C.3       9 UNK         0.0839 
     56 C          21.1498  -35.5281  -40.7902 C.2       9 UNK         0.5513 
     57 N          22.0049  -35.7441  -39.7977 N.am      9 UNK        -0.7519 
     58 O          20.1826  -36.2731  -40.9276 O.2       9 UNK        -0.4960 
     59 C59        20.1389  -33.4323  -41.9241 C.3       10 UNK        -0.0876 
     60 S60        19.9173  -32.2768  -40.5243 S.3       10 UNK        -0.2414 
     61 C61        20.3774  -30.6842  -41.2781 C.3       10 UNK         0.0169 
     62 H62        12.9792  -24.2811  -46.8720 H         1 UNK         0.0903 
     63 H63        14.3276  -23.6152  -47.7966 H         1 UNK         0.0903 
     64 H64        14.1301  -25.3634  -47.6576 H         1 UNK         0.0903 
     65 H65        15.5592  -26.2661  -46.2088 H         1 UNK         0.3096 
     66 H66        16.8523  -26.6751  -44.5115 H         1 UNK         0.1121 
     67 H67        14.6768  -25.9556  -43.2072 H         1 UNK         0.0849 
     68 H68        15.5924  -24.5594  -42.7374 H         1 UNK         0.0849 
     69 H69        15.6310  -28.7861  -41.2043 H         1 UNK         0.0865 
     70 H70        15.1667  -28.3175  -42.8175 H         1 UNK         0.0865 
     71 H71        18.0673  -29.3611  -40.6984 H         1 UNK         0.1346 
     72 H72        20.3659  -30.8226  -44.0110 H         1 UNK         0.1412 
     73 H73        16.5874  -28.9302  -44.7018 H         1 UNK         0.1426 
     74 H74        17.7721  -30.6436  -46.3772 H         1 UNK         0.0716 
     75 H75        19.5063  -30.7386  -46.2408 H         1 UNK         0.0716 
     76 H76        21.1135  -29.1933  -46.9031 H         1 UNK         0.0695 
     77 H77        20.7605  -28.0078  -48.1074 H         1 UNK         0.0695 
     78 H78        22.0899  -26.7987  -46.6304 H         1 UNK         0.0983 
     79 H79        19.2908  -26.1571  -46.3932 H         1 UNK         0.3095 
     80 H80        19.6117  -22.9212  -45.1691 H         1 UNK         0.0454 
     81 H81        18.5291  -22.1690  -47.2805 H         1 UNK         0.0851 
     82 H82        20.2501  -22.4112  -47.5245 H         1 UNK         0.0851 
     83 H83        19.1092  -23.6093  -48.1180 H         1 UNK         0.0851 
     84 H84        17.4890  -24.4400  -46.4309 H         1 UNK         0.2976 
     85 H85        20.5115  -26.0567  -43.8882 H         1 UNK         0.3116 
     86 H86        21.2286  -28.2319  -42.1476 H         1 UNK         0.0646 
     87 H87        20.3895  -25.3578  -41.5251 H         1 UNK         0.0847 
     88 H88        20.4790  -26.6778  -40.3641 H         1 UNK         0.0847 
     89 H89        19.3154  -26.7463  -41.6740 H         1 UNK         0.0847 
     90 H90        23.4632  -28.2150  -43.2115 H         1 UNK         0.3040 
     91 H91        25.5071  -26.5191  -41.9942 H         1 UNK         0.1015 
     92 H92        25.8239  -27.5018  -44.2482 H         1 UNK         0.0786 
     93 H93        25.6946  -29.1317  -43.5913 H         1 UNK         0.0786 
     94 H94        27.0537  -28.1064  -43.1501 H         1 UNK         0.0786 
     95 H95        24.2790  -27.0284  -39.8778 H         1 UNK         0.3172 
     96 H96        24.2236  -27.8037  -37.8010 H         1 UNK         0.0595 
     97 H97        26.6658  -27.3416  -37.7666 H         1 UNK         0.0839 
     98 H98        27.0186  -28.9686  -38.3273 H         1 UNK         0.0839 
     99 H99        26.2820  -28.7094  -36.7453 H         1 UNK         0.0839 
    100 H100       25.9131  -30.6401  -37.6268 H         1 UNK         0.2998 
    101 H101       23.4776  -32.2205  -37.4771 H         1 UNK         0.0822 
    102 H102       26.4017  -32.9576  -36.9244 H         1 UNK         0.0787 
    103 H103       25.2634  -32.3284  -35.7320 H         1 UNK         0.0787 
    104 H104       24.9926  -33.9001  -36.4588 H         1 UNK         0.0787 
    105 H105       25.0296  -31.4415  -40.2147 H         1 UNK         0.3055 
    106 H106       25.8745  -33.7717  -41.4656 H         1 UNK         0.1106 
    107 H107       26.2953  -31.5413  -42.3994 H         1 UNK         0.0828 
    108 H108       25.4436  -32.4886  -43.6028 H         1 UNK         0.0828 
    109 H109       24.5731  -31.2735  -42.6757 H         1 UNK         0.0828 
    110 H110       22.5356  -32.7976  -40.9609 H         1 UNK         0.2931 
    111 H111       21.4721  -34.8551  -42.7632 H         1 UNK         0.0412 
    112 H112       21.8373  -36.5125  -39.1681 H         1 UNK         0.3472 
    113 H113       22.8239  -35.1584  -39.6634 H         1 UNK         0.3472 
    114 H114       19.2239  -34.0173  -42.0346 H         1 UNK         0.0970 
    115 H115       20.2217  -32.8697  -42.8522 H         1 UNK         0.0970 
    116 H116       21.3433  -30.7804  -41.7770 H         1 UNK         0.0612 
    117 H117       20.5206  -29.9529  -40.4810 H         1 UNK         0.0612 
@<TRIPOS>BOND
     1    1    2 1    
     2    1   62 1    
     3    1   63 1    
     4    1   64 1    
     5    2    3 2    
     6    2    4 am   BACKBONE|DICT|INTERRES
     7    4    5 1    
     8    4   65 1    
     9    5    6 1    
    10    5   25 1    
    11    5   66 1    
    12    6    7 1    
    13    6   67 1    
    14    6   68 1    
    15    7    8 1    
    16    8    9 1    
    17    8   69 1    
    18    8   70 1    
    19    9   10 ar   
    20    9   14 ar   
    21   10   11 ar   
    22   10   71 1    
    23   11   12 ar   
    24   11   61 1    
    25   12   13 ar   
    26   12   72 1    
    27   13   14 ar   
    28   13   15 1    
    29   14   73 1    
    30   15   16 1    
    31   15   74 1    
    32   15   75 1    
    33   16   17 1    
    34   17   18 1    
    35   17   76 1    
    36   17   77 1    
    37   18   19 1    
    38   18   27 1    
    39   18   78 1    
    40   19   20 am   BACKBONE|DICT|INTERRES
    41   19   79 1    
    42   20   21 2    
    43   20   22 1    
    44   22   23 1    
    45   22   24 1    
    46   22   80 1    
    47   23   81 1    
    48   23   82 1    
    49   23   83 1    
    50   24   25 am   BACKBONE|DICT|INTERRES
    51   24   84 1    
    52   25   26 2    
    53   27   28 2    
    54   27   29 am   BACKBONE|DICT|INTERRES
    55   29   30 1    
    56   29   85 1    
    57   30   31 1    
    58   30   32 1    
    59   30   86 1    
    60   31   87 1    
    61   31   88 1    
    62   31   89 1    
    63   32   33 2    
    64   32   34 am   BACKBONE|DICT|INTERRES
    65   34   35 1    
    66   34   90 1    
    67   35   36 1    
    68   35   37 1    
    69   35   91 1    
    70   36   92 1    
    71   36   93 1    
    72   36   94 1    
    73   37   38 2    
    74   37   39 am   BACKBONE|DICT|INTERRES
    75   39   40 1    
    76   39   95 1    
    77   40   41 1    
    78   40   42 1    
    79   40   96 1    
    80   41   97 1    
    81   41   98 1    
    82   41   99 1    
    83   42   43 2    
    84   42   44 am   BACKBONE|DICT|INTERRES
    85   44   45 1    
    86   44  100 1    
    87   45   46 1    
    88   45   47 1    
    89   45  101 1    
    90   46  102 1    
    91   46  103 1    
    92   46  104 1    
    93   47   48 2    
    94   47   49 am   BACKBONE|DICT|INTERRES
    95   49   50 1    
    96   49  105 1    
    97   50   51 1    
    98   50   52 1    
    99   50  106 1    
   100   51  107 1    
   101   51  108 1    
   102   51  109 1    
   103   52   53 2    
   104   52   54 am   BACKBONE|DICT|INTERRES
   105   54   55 1    
   106   54  110 1    
   107   55   56 1    
   108   55   59 1    
   109   55  111 1    
   110   56   57 am   BACKBONE|DICT|INTERRES
   111   56   58 2    
   112   57  112 1    
   113   57  113 1    
   114   59   60 1    
   115   59  114 1    
   116   59  115 1    
   117   60   61 1    
   118   61  116 1    
   119   61  117 1    
@<TRIPOS>SUBSTRUCTURE
     1 UNK         1 GROUP             0       ****    0 ROOT    
