@<TRIPOS>MOLECULE
3R8
117   119    1
SMALL
USER_CHARGES


@<TRIPOS>ATOM
      1 CA         20.4590  -29.7331  -44.3940 C.3       0 UNK        -0.2013 
      2 C          20.5466  -29.4006  -45.8806 C.2       0 UNK         0.4866 
      3 O          21.5015  -29.8114  -46.5350 O.2       0 UNK        -0.5176 
      4 N          19.5923  -28.6606  -46.4652 N.am      1 UNK        -0.4884 
      5 CA         18.4121  -28.0606  -45.8252 C.3       1 UNK         0.0853 
      6 C6         17.3072  -27.7918  -46.8859 C.3       10 UNK        -0.0849 
      7 S7         15.6927  -27.2191  -46.2416 S.3       10 UNK        -0.2776 
      8 C8         14.8328  -28.7790  -45.8298 C.3       10 UNK         0.0316 
      9 C9         15.5296  -29.5517  -44.7161 C.ar      10 UNK        -0.0863 
     10 C10        15.9017  -30.8859  -44.9096 C.ar      10 UNK        -0.1009 
     11 C11        16.6166  -31.5721  -43.9232 C.ar      10 UNK        -0.0712 
     12 C12        16.9496  -30.9192  -42.7335 C.ar      10 UNK        -0.0894 
     13 C13        16.5965  -29.5810  -42.5325 C.ar      10 UNK        -0.0745 
     14 C14        15.8556  -28.9160  -43.5126 C.ar      10 UNK        -0.0972 
     15 C15        17.0649  -28.8313  -41.2914 C.3       10 UNK         0.0209 
     16 S16        18.8730  -28.9545  -41.1059 S.3       10 UNK        -0.2568 
     17 C17        19.3194  -27.4369  -40.2065 C.3       10 UNK        -0.0983 
     18 CA         20.5351  -26.7600  -40.8826 C.3       3 UNK         0.0876 
     19 N          20.2046  -26.1953  -42.1936 N.am      3 UNK        -0.4424 
     20 C          21.0971  -25.7027  -43.0598 C.2       2 UNK         0.4918 
     21 O          22.3109  -25.7041  -42.8489 O.2       2 UNK        -0.4875 
     22 CA         20.5429  -25.1611  -44.3935 C.3       2 UNK         0.0481 
     23 CB         21.6231  -24.4445  -45.2245 C.3       2 UNK        -0.1831 
     24 N          19.9530  -26.2312  -45.2025 N.am      2 UNK        -0.4498 
     25 C          18.7713  -26.8215  -44.9680 C.2       1 UNK         0.5027 
     26 O          18.0151  -26.4584  -44.0658 O.2       1 UNK        -0.4969 
     27 C          21.1828  -25.7101  -39.9588 C.2       3 UNK         0.5005 
     28 O          20.7873  -24.5425  -39.9849 O.2       3 UNK        -0.5279 
     29 N          22.1789  -26.1645  -39.1868 N.am      4 UNK        -0.4463 
     30 CA         23.0969  -25.4254  -38.3085 C.3       4 UNK         0.0283 
     31 CB         22.4203  -24.3154  -37.4787 C.3       4 UNK        -0.1875 
     32 C          24.3447  -24.9205  -39.0503 C.2       4 UNK         0.4949 
     33 O          25.4045  -24.8395  -38.4288 O.2       4 UNK        -0.5039 
     34 N          24.2337  -24.6522  -40.3598 N.am      5 UNK        -0.4663 
     35 CA         25.3863  -24.5414  -41.2579 C.3       5 UNK         0.0242 
     36 CB         25.0524  -23.6405  -42.4593 C.3       5 UNK        -0.1982 
     37 C          25.8171  -25.9505  -41.6948 C.2       5 UNK         0.5017 
     38 O          26.9803  -26.3147  -41.5193 O.2       5 UNK        -0.5012 
     39 N          24.8506  -26.7332  -42.1919 N.am      6 UNK        -0.4439 
     40 CA         24.9559  -28.1759  -42.3899 C.3       6 UNK         0.0297 
     41 CB         24.0632  -28.5836  -43.5738 C.3       6 UNK        -0.2006 
     42 C          24.4981  -28.9030  -41.1173 C.2       6 UNK         0.4892 
     43 O          23.5751  -28.4390  -40.4404 O.2       6 UNK        -0.5089 
     44 N          25.0964  -30.0685  -40.8480 N.am      7 UNK        -0.4243 
     45 CA         24.7344  -30.9637  -39.7435 C.3       7 UNK         0.0196 
     46 CB         25.9912  -31.7330  -39.2940 C.3       7 UNK        -0.2007 
     47 C          23.5713  -31.8982  -40.1373 C.2       7 UNK         0.5020 
     48 O          23.6813  -33.1167  -39.9880 O.2       7 UNK        -0.5147 
     49 N          22.4871  -31.3011  -40.6528 N.am      8 UNK        -0.4734 
     50 CA         21.2962  -31.9388  -41.2312 C.3       8 UNK         0.0238 
     51 CB         20.5140  -32.7219  -40.1528 C.3       8 UNK        -0.1912 
     52 C          21.6054  -32.7747  -42.4924 C.2       8 UNK         0.5038 
     53 O          22.6882  -32.6481  -43.0696 O.2       8 UNK        -0.5046 
     54 N          20.6236  -33.5715  -42.9314 N.am      9 UNK        -0.4200 
     55 CA         20.7032  -34.4164  -44.1366 C.3       9 UNK         0.0839 
     56 C          21.4332  -35.7747  -43.9204 C.2       9 UNK         0.5513 
     57 N          21.8689  -36.1173  -42.7138 N.am      9 UNK        -0.7519 
     58 O          21.6151  -36.5315  -44.8707 O.2       9 UNK        -0.4960 
     59 C59        19.3109  -34.6184  -44.7944 C.3       10 UNK        -0.0876 
     60 S60        18.5306  -33.0322  -45.2511 S.3       10 UNK        -0.2414 
     61 C61        17.0758  -33.0015  -44.1584 C.3       10 UNK         0.0169 
     62 H62        20.4558  -28.8330  -43.7819 H         1 UNK         0.0903 
     63 H63        19.5634  -30.3134  -44.1742 H         1 UNK         0.0903 
     64 H64        21.3215  -30.3269  -44.0954 H         1 UNK         0.0903 
     65 H65        19.6825  -28.4757  -47.4547 H         1 UNK         0.3096 
     66 H66        18.0258  -28.8013  -45.1283 H         1 UNK         0.1121 
     67 H67        17.1292  -28.6991  -47.4659 H         1 UNK         0.0849 
     68 H68        17.6570  -27.0481  -47.6042 H         1 UNK         0.0849 
     69 H69        13.8151  -28.5481  -45.5125 H         1 UNK         0.0865 
     70 H70        14.7437  -29.3852  -46.7328 H         1 UNK         0.0865 
     71 H71        15.6680  -31.3848  -45.8405 H         1 UNK         0.1346 
     72 H72        17.5253  -31.4371  -41.9788 H         1 UNK         0.1412 
     73 H73        15.5911  -27.8765  -43.3716 H         1 UNK         0.1426 
     74 H74        16.5782  -29.2415  -40.4059 H         1 UNK         0.0716 
     75 H75        16.7766  -27.7811  -41.3550 H         1 UNK         0.0716 
     76 H76        19.5511  -27.7264  -39.1795 H         1 UNK         0.0695 
     77 H77        18.4725  -26.7509  -40.1517 H         1 UNK         0.0695 
     78 H78        21.2835  -27.5314  -41.0702 H         1 UNK         0.0983 
     79 H79        19.2278  -26.2013  -42.4658 H         1 UNK         0.3095 
     80 H80        19.7675  -24.4302  -44.1548 H         1 UNK         0.0454 
     81 H81        21.2052  -24.0170  -46.1359 H         1 UNK         0.0851 
     82 H82        22.4310  -25.1199  -45.5093 H         1 UNK         0.0851 
     83 H83        22.0691  -23.6249  -44.6594 H         1 UNK         0.0851 
     84 H84        20.5312  -26.6120  -45.9381 H         1 UNK         0.2976 
     85 H85        22.4658  -27.1279  -39.3435 H         1 UNK         0.3116 
     86 H86        23.4539  -26.1730  -37.5983 H         1 UNK         0.0646 
     87 H87        22.1412  -23.4575  -38.0908 H         1 UNK         0.0847 
     88 H88        21.5250  -24.6804  -36.9759 H         1 UNK         0.0847 
     89 H89        23.0982  -23.9464  -36.7081 H         1 UNK         0.0847 
     90 H90        23.3236  -24.7390  -40.7923 H         1 UNK         0.3040 
     91 H91        26.2229  -24.0840  -40.7243 H         1 UNK         0.1015 
     92 H92        25.9205  -23.5294  -43.1102 H         1 UNK         0.0786 
     93 H93        24.7631  -22.6413  -42.1335 H         1 UNK         0.0786 
     94 H94        24.2425  -24.0388  -43.0687 H         1 UNK         0.0786 
     95 H95        23.9196  -26.3387  -42.3134 H         1 UNK         0.3172 
     96 H96        25.9894  -28.4476  -42.6148 H         1 UNK         0.0595 
     97 H97        23.0148  -28.3475  -43.3885 H         1 UNK         0.0839 
     98 H98        24.1253  -29.6563  -43.7638 H         1 UNK         0.0839 
     99 H99        24.3614  -28.0738  -44.4900 H         1 UNK         0.0839 
    100 H100       25.8063  -30.4070  -41.4820 H         1 UNK         0.2998 
    101 H101       24.3920  -30.3679  -38.8942 H         1 UNK         0.0822 
    102 H102       25.7727  -32.3739  -38.4387 H         1 UNK         0.0787 
    103 H103       26.3809  -32.3702  -40.0889 H         1 UNK         0.0787 
    104 H104       26.7857  -31.0513  -38.9898 H         1 UNK         0.0787 
    105 H105       22.5260  -30.2914  -40.7296 H         1 UNK         0.3055 
    106 H106       20.6619  -31.1227  -41.5744 H         1 UNK         0.1106 
    107 H107       20.3676  -32.1163  -39.2584 H         1 UNK         0.0828 
    108 H108       19.5212  -33.0065  -40.5018 H         1 UNK         0.0828 
    109 H109       21.0328  -33.6336  -39.8546 H         1 UNK         0.0828 
    110 H110       19.7638  -33.6282  -42.4082 H         1 UNK         0.2931 
    111 H111       21.3137  -33.8830  -44.8682 H         1 UNK         0.0412 
    112 H112       21.7494  -35.4959  -41.9301 H         1 UNK         0.3472 
    113 H113       22.3434  -36.9984  -42.5922 H         1 UNK         0.3472 
    114 H114       18.6533  -35.1921  -44.1393 H         1 UNK         0.0970 
    115 H115       19.4047  -35.2055  -45.7100 H         1 UNK         0.0970 
    116 H116       16.2720  -33.5870  -44.6070 H         1 UNK         0.0612 
    117 H117       17.3149  -33.4772  -43.2062 H         1 UNK         0.0612 
@<TRIPOS>BOND
     1    1    2 1    
     2    1   62 1    
     3    1   63 1    
     4    1   64 1    
     5    2    3 2    
     6    2    4 am   BACKBONE|DICT|INTERRES
     7    4    5 1    
     8    4   65 1    
     9    5    6 1    
    10    5   25 1    
    11    5   66 1    
    12    6    7 1    
    13    6   67 1    
    14    6   68 1    
    15    7    8 1    
    16    8    9 1    
    17    8   69 1    
    18    8   70 1    
    19    9   10 ar   
    20    9   14 ar   
    21   10   11 ar   
    22   10   71 1    
    23   11   12 ar   
    24   11   61 1    
    25   12   13 ar   
    26   12   72 1    
    27   13   14 ar   
    28   13   15 1    
    29   14   73 1    
    30   15   16 1    
    31   15   74 1    
    32   15   75 1    
    33   16   17 1    
    34   17   18 1    
    35   17   76 1    
    36   17   77 1    
    37   18   19 1    
    38   18   27 1    
    39   18   78 1    
    40   19   20 am   BACKBONE|DICT|INTERRES
    41   19   79 1    
    42   20   21 2    
    43   20   22 1    
    44   22   23 1    
    45   22   24 1    
    46   22   80 1    
    47   23   81 1    
    48   23   82 1    
    49   23   83 1    
    50   24   25 am   BACKBONE|DICT|INTERRES
    51   24   84 1    
    52   25   26 2    
    53   27   28 2    
    54   27   29 am   BACKBONE|DICT|INTERRES
    55   29   30 1    
    56   29   85 1    
    57   30   31 1    
    58   30   32 1    
    59   30   86 1    
    60   31   87 1    
    61   31   88 1    
    62   31   89 1    
    63   32   33 2    
    64   32   34 am   BACKBONE|DICT|INTERRES
    65   34   35 1    
    66   34   90 1    
    67   35   36 1    
    68   35   37 1    
    69   35   91 1    
    70   36   92 1    
    71   36   93 1    
    72   36   94 1    
    73   37   38 2    
    74   37   39 am   BACKBONE|DICT|INTERRES
    75   39   40 1    
    76   39   95 1    
    77   40   41 1    
    78   40   42 1    
    79   40   96 1    
    80   41   97 1    
    81   41   98 1    
    82   41   99 1    
    83   42   43 2    
    84   42   44 am   BACKBONE|DICT|INTERRES
    85   44   45 1    
    86   44  100 1    
    87   45   46 1    
    88   45   47 1    
    89   45  101 1    
    90   46  102 1    
    91   46  103 1    
    92   46  104 1    
    93   47   48 2    
    94   47   49 am   BACKBONE|DICT|INTERRES
    95   49   50 1    
    96   49  105 1    
    97   50   51 1    
    98   50   52 1    
    99   50  106 1    
   100   51  107 1    
   101   51  108 1    
   102   51  109 1    
   103   52   53 2    
   104   52   54 am   BACKBONE|DICT|INTERRES
   105   54   55 1    
   106   54  110 1    
   107   55   56 1    
   108   55   59 1    
   109   55  111 1    
   110   56   57 am   BACKBONE|DICT|INTERRES
   111   56   58 2    
   112   57  112 1    
   113   57  113 1    
   114   59   60 1    
   115   59  114 1    
   116   59  115 1    
   117   60   61 1    
   118   61  116 1    
   119   61  117 1    
@<TRIPOS>SUBSTRUCTURE
     1 UNK         1 GROUP             0       ****    0 ROOT    
