@<TRIPOS>MOLECULE
3R8
117   119    1
SMALL
USER_CHARGES


@<TRIPOS>ATOM
      1 CA         18.1878  -25.8817  -49.3773 C.3       0 UNK        -0.2013 
      2 C          19.3386  -26.3239  -48.4860 C.2       0 UNK         0.4866 
      3 O          20.4711  -25.8837  -48.6832 O.2       0 UNK        -0.5176 
      4 N          19.0577  -27.1904  -47.5038 N.am      1 UNK        -0.4884 
      5 CA         20.0496  -27.7485  -46.5718 C.3       1 UNK         0.0853 
      6 C6         19.5355  -29.0233  -45.8550 C.3       10 UNK        -0.0849 
      7 S7         18.7390  -30.2711  -46.9207 S.3       10 UNK        -0.2776 
      8 C8         16.9903  -30.1672  -46.3927 C.3       10 UNK         0.0316 
      9 C9         16.7763  -30.3288  -44.8871 C.ar      10 UNK        -0.0863 
     10 C10        17.3612  -31.3899  -44.1857 C.ar      10 UNK        -0.1009 
     11 C11        17.1440  -31.5404  -42.8125 C.ar      10 UNK        -0.0712 
     12 C12        16.3192  -30.6323  -42.1434 C.ar      10 UNK        -0.0894 
     13 C13        15.7261  -29.5676  -42.8282 C.ar      10 UNK        -0.0745 
     14 C14        15.9645  -29.4187  -44.1986 C.ar      10 UNK        -0.0972 
     15 C15        14.7916  -28.6095  -42.0962 C.3       10 UNK         0.0209 
     16 S16        15.5887  -27.7728  -40.6848 S.3       10 UNK        -0.2568 
     17 C17        16.6952  -26.5871  -41.5189 C.3       10 UNK        -0.0983 
     18 CA         18.1341  -27.1418  -41.6878 C.3       3 UNK         0.0876 
     19 N          18.8695  -26.4715  -42.7628 N.am      3 UNK        -0.4424 
     20 C          19.2189  -25.1796  -42.8490 C.2       2 UNK         0.4918 
     21 O          19.0661  -24.3613  -41.9431 O.2       2 UNK        -0.4875 
     22 CA         19.7477  -24.6784  -44.2117 C.3       2 UNK         0.0481 
     23 CB         21.1244  -23.9917  -44.1061 C.3       2 UNK        -0.1831 
     24 N          19.6980  -25.6806  -45.2876 N.am      2 UNK        -0.4498 
     25 C          20.5026  -26.7351  -45.4955 C.2       1 UNK         0.5027 
     26 O          21.5122  -26.9712  -44.8322 O.2       1 UNK        -0.4969 
     27 C          18.9387  -27.2063  -40.3716 C.2       3 UNK         0.5005 
     28 O          18.8215  -26.3265  -39.5159 O.2       3 UNK        -0.5279 
     29 N          19.7449  -28.2702  -40.2518 N.am      4 UNK        -0.4463 
     30 CA         20.6152  -28.6263  -39.1234 C.3       4 UNK         0.0283 
     31 CB         19.7944  -28.8778  -37.8410 C.3       4 UNK        -0.1875 
     32 C          21.7782  -27.6377  -38.9134 C.2       4 UNK         0.4949 
     33 O          22.2540  -27.4746  -37.7892 O.2       4 UNK        -0.5039 
     34 N          22.2313  -27.0075  -40.0054 N.am      5 UNK        -0.4663 
     35 CA         23.3368  -26.0448  -40.0163 C.3       5 UNK         0.0242 
     36 CB         23.2100  -25.1722  -41.2739 C.3       5 UNK        -0.1982 
     37 C          24.7280  -26.7030  -39.9615 C.2       5 UNK         0.5017 
     38 O          25.7060  -26.0164  -39.6629 O.2       5 UNK        -0.5012 
     39 N          24.7984  -28.0034  -40.2627 N.am      6 UNK        -0.4439 
     40 CA         26.0023  -28.8264  -40.3000 C.3       6 UNK         0.0297 
     41 CB         26.7617  -28.5757  -41.6187 C.3       6 UNK        -0.2006 
     42 C          25.5839  -30.2961  -40.1664 C.2       6 UNK         0.4892 
     43 O          24.3858  -30.5932  -40.1744 O.2       6 UNK        -0.5089 
     44 N          26.5740  -31.1974  -40.0974 N.am      7 UNK        -0.4243 
     45 CA         26.3921  -32.6556  -40.0320 C.3       7 UNK         0.0196 
     46 CB         27.7613  -33.3267  -39.8368 C.3       7 UNK        -0.2007 
     47 C          25.6654  -33.2624  -41.2498 C.2       7 UNK         0.5020 
     48 O          25.0551  -34.3234  -41.1230 O.2       7 UNK        -0.5147 
     49 N          25.7091  -32.5644  -42.3932 N.am      8 UNK        -0.4734 
     50 CA         24.9451  -32.8715  -43.6077 C.3       8 UNK         0.0238 
     51 CB         25.6362  -32.1939  -44.8043 C.3       8 UNK        -0.1912 
     52 C          23.4585  -32.4576  -43.5291 C.2       8 UNK         0.5038 
     53 O          22.7304  -32.6735  -44.4982 O.2       8 UNK        -0.5046 
     54 N          23.0386  -31.8634  -42.4034 N.am      9 UNK        -0.4200 
     55 CA         21.7063  -31.3064  -42.1316 C.3       9 UNK         0.0839 
     56 C          21.4523  -29.9130  -42.7721 C.2       9 UNK         0.5513 
     57 N          22.4509  -29.2399  -43.3284 N.am      9 UNK        -0.7519 
     58 O          20.3362  -29.4060  -42.7260 O.2       9 UNK        -0.4960 
     59 C59        20.5465  -32.3198  -42.3623 C.3       10 UNK        -0.0876 
     60 S60        19.2338  -32.1833  -41.1020 S.3       10 UNK        -0.2414 
     61 C61        17.7665  -32.6992  -42.0477 C.3       10 UNK         0.0169 
     62 H62        18.3946  -26.1453  -50.4142 H         1 UNK         0.0903 
     63 H63        17.2458  -26.3489  -49.0908 H         1 UNK         0.0903 
     64 H64        18.0619  -24.8009  -49.3194 H         1 UNK         0.0903 
     65 H65        18.1181  -27.5477  -47.4082 H         1 UNK         0.3096 
     66 H66        20.9369  -28.0197  -47.1489 H         1 UNK         0.1121 
     67 H67        20.3780  -29.5285  -45.3833 H         1 UNK         0.0849 
     68 H68        18.8585  -28.7614  -45.0412 H         1 UNK         0.0849 
     69 H69        16.5817  -29.2166  -46.7380 H         1 UNK         0.0865 
     70 H70        16.4246  -30.9442  -46.9085 H         1 UNK         0.0865 
     71 H71        17.9860  -32.0987  -44.7114 H         1 UNK         0.1346 
     72 H72        16.1369  -30.7555  -41.0843 H         1 UNK         0.1412 
     73 H73        15.4992  -28.6024  -44.7343 H         1 UNK         0.1426 
     74 H74        13.9386  -29.1780  -41.7234 H         1 UNK         0.0716 
     75 H75        14.3823  -27.8603  -42.7757 H         1 UNK         0.0716 
     76 H76        16.6959  -25.6481  -40.9626 H         1 UNK         0.0695 
     77 H77        16.2675  -26.3505  -42.4944 H         1 UNK         0.0695 
     78 H78        18.0314  -28.1693  -42.0404 H         1 UNK         0.0983 
     79 H79        19.1101  -27.0648  -43.5418 H         1 UNK         0.3095 
     80 H80        19.0407  -23.9069  -44.5203 H         1 UNK         0.0454 
     81 H81        21.9072  -24.6809  -43.7962 H         1 UNK         0.0851 
     82 H82        21.1020  -23.1819  -43.3760 H         1 UNK         0.0851 
     83 H83        21.4224  -23.5574  -45.0602 H         1 UNK         0.0851 
     84 H84        18.8996  -25.6029  -45.9029 H         1 UNK         0.2976 
     85 H85        19.8104  -28.8831  -41.0639 H         1 UNK         0.3116 
     86 H86        21.0810  -29.5740  -39.3937 H         1 UNK         0.0646 
     87 H87        19.3517  -27.9592  -37.4551 H         1 UNK         0.0847 
     88 H88        20.4215  -29.2912  -37.0502 H         1 UNK         0.0847 
     89 H89        18.9893  -29.5906  -38.0193 H         1 UNK         0.0847 
     90 H90        21.7781  -27.1938  -40.8887 H         1 UNK         0.3040 
     91 H91        23.2474  -25.3994  -39.1394 H         1 UNK         0.1015 
     92 H92        23.2972  -25.7676  -42.1839 H         1 UNK         0.0786 
     93 H93        23.9919  -24.4120  -41.3049 H         1 UNK         0.0786 
     94 H94        22.2523  -24.6513  -41.2976 H         1 UNK         0.0786 
     95 H95        23.9423  -28.5186  -40.4258 H         1 UNK         0.3172 
     96 H96        26.6383  -28.5745  -39.4490 H         1 UNK         0.0595 
     97 H97        27.6813  -29.1594  -41.6702 H         1 UNK         0.0839 
     98 H98        27.0479  -27.5286  -41.7190 H         1 UNK         0.0839 
     99 H99        26.1566  -28.8374  -42.4878 H         1 UNK         0.0839 
    100 H100       27.5282  -30.8654  -40.0952 H         1 UNK         0.2998 
    101 H101       25.7776  -32.8691  -39.1547 H         1 UNK         0.0822 
    102 H102       27.6575  -34.4098  -39.7552 H         1 UNK         0.0787 
    103 H103       28.4324  -33.1261  -40.6730 H         1 UNK         0.0787 
    104 H104       28.2472  -32.9814  -38.9240 H         1 UNK         0.0787 
    105 H105       26.2533  -31.7142  -42.4047 H         1 UNK         0.3055 
    106 H106       24.9643  -33.9521  -43.7674 H         1 UNK         0.1106 
    107 H107       25.1324  -32.4399  -45.7401 H         1 UNK         0.0828 
    108 H108       25.6352  -31.1073  -44.7107 H         1 UNK         0.0828 
    109 H109       26.6710  -32.5224  -44.9034 H         1 UNK         0.0828 
    110 H110       23.7143  -31.6919  -41.6662 H         1 UNK         0.2931 
    111 H111       21.7512  -31.1036  -41.0620 H         1 UNK         0.0412 
    112 H112       23.3747  -29.6333  -43.3818 H         1 UNK         0.3472 
    113 H113       22.2467  -28.3491  -43.7716 H         1 UNK         0.3472 
    114 H114       20.9182  -33.3440  -42.3089 H         1 UNK         0.0970 
    115 H115       20.1288  -32.2094  -43.3647 H         1 UNK         0.0970 
    116 H116       18.0282  -33.5165  -42.7215 H         1 UNK         0.0612 
    117 H117       17.0311  -33.1055  -41.3517 H         1 UNK         0.0612 
@<TRIPOS>BOND
     1    1    2 1    
     2    1   62 1    
     3    1   63 1    
     4    1   64 1    
     5    2    3 2    
     6    2    4 am   BACKBONE|DICT|INTERRES
     7    4    5 1    
     8    4   65 1    
     9    5    6 1    
    10    5   25 1    
    11    5   66 1    
    12    6    7 1    
    13    6   67 1    
    14    6   68 1    
    15    7    8 1    
    16    8    9 1    
    17    8   69 1    
    18    8   70 1    
    19    9   10 ar   
    20    9   14 ar   
    21   10   11 ar   
    22   10   71 1    
    23   11   12 ar   
    24   11   61 1    
    25   12   13 ar   
    26   12   72 1    
    27   13   14 ar   
    28   13   15 1    
    29   14   73 1    
    30   15   16 1    
    31   15   74 1    
    32   15   75 1    
    33   16   17 1    
    34   17   18 1    
    35   17   76 1    
    36   17   77 1    
    37   18   19 1    
    38   18   27 1    
    39   18   78 1    
    40   19   20 am   BACKBONE|DICT|INTERRES
    41   19   79 1    
    42   20   21 2    
    43   20   22 1    
    44   22   23 1    
    45   22   24 1    
    46   22   80 1    
    47   23   81 1    
    48   23   82 1    
    49   23   83 1    
    50   24   25 am   BACKBONE|DICT|INTERRES
    51   24   84 1    
    52   25   26 2    
    53   27   28 2    
    54   27   29 am   BACKBONE|DICT|INTERRES
    55   29   30 1    
    56   29   85 1    
    57   30   31 1    
    58   30   32 1    
    59   30   86 1    
    60   31   87 1    
    61   31   88 1    
    62   31   89 1    
    63   32   33 2    
    64   32   34 am   BACKBONE|DICT|INTERRES
    65   34   35 1    
    66   34   90 1    
    67   35   36 1    
    68   35   37 1    
    69   35   91 1    
    70   36   92 1    
    71   36   93 1    
    72   36   94 1    
    73   37   38 2    
    74   37   39 am   BACKBONE|DICT|INTERRES
    75   39   40 1    
    76   39   95 1    
    77   40   41 1    
    78   40   42 1    
    79   40   96 1    
    80   41   97 1    
    81   41   98 1    
    82   41   99 1    
    83   42   43 2    
    84   42   44 am   BACKBONE|DICT|INTERRES
    85   44   45 1    
    86   44  100 1    
    87   45   46 1    
    88   45   47 1    
    89   45  101 1    
    90   46  102 1    
    91   46  103 1    
    92   46  104 1    
    93   47   48 2    
    94   47   49 am   BACKBONE|DICT|INTERRES
    95   49   50 1    
    96   49  105 1    
    97   50   51 1    
    98   50   52 1    
    99   50  106 1    
   100   51  107 1    
   101   51  108 1    
   102   51  109 1    
   103   52   53 2    
   104   52   54 am   BACKBONE|DICT|INTERRES
   105   54   55 1    
   106   54  110 1    
   107   55   56 1    
   108   55   59 1    
   109   55  111 1    
   110   56   57 am   BACKBONE|DICT|INTERRES
   111   56   58 2    
   112   57  112 1    
   113   57  113 1    
   114   59   60 1    
   115   59  114 1    
   116   59  115 1    
   117   60   61 1    
   118   61  116 1    
   119   61  117 1    
@<TRIPOS>SUBSTRUCTURE
     1 UNK         1 GROUP             0       ****    0 ROOT    
