@<TRIPOS>MOLECULE
3R8
117   119    1
SMALL
USER_CHARGES


@<TRIPOS>ATOM
      1 CA         13.0358  -22.9683  -44.2911 C.3       0 UNK        -0.2013 
      2 C          14.1023  -23.5949  -45.1771 C.2       0 UNK         0.4866 
      3 O          14.4130  -23.0535  -46.2389 O.2       0 UNK        -0.5176 
      4 N          14.6579  -24.7370  -44.7549 N.am      1 UNK        -0.4884 
      5 CA         15.7501  -25.4438  -45.4307 C.3       1 UNK         0.0853 
      6 C6         15.8550  -26.9218  -44.9656 C.3       10 UNK        -0.0849 
      7 S7         15.7972  -27.1932  -43.1533 S.3       10 UNK        -0.2776 
      8 C8         17.5427  -27.0833  -42.6438 C.3       10 UNK         0.0316 
      9 C9         18.3105  -28.3832  -42.8305 C.ar      10 UNK        -0.0863 
     10 C10        18.5724  -29.2102  -41.7351 C.ar      10 UNK        -0.1009 
     11 C11        19.3902  -30.3358  -41.8737 C.ar      10 UNK        -0.0712 
     12 C12        19.9164  -30.6463  -43.1321 C.ar      10 UNK        -0.0894 
     13 C13        19.6513  -29.8424  -44.2435 C.ar      10 UNK        -0.0745 
     14 C14        18.8436  -28.7118  -44.0781 C.ar      10 UNK        -0.0972 
     15 C15        20.2623  -30.2286  -45.5928 C.3       10 UNK         0.0209 
     16 S16        20.3216  -28.8956  -46.8434 S.3       10 UNK        -0.2568 
     17 C17        21.8581  -27.9991  -46.4150 C.3       10 UNK        -0.0983 
     18 CA         21.6790  -26.7384  -45.5168 C.3       3 UNK         0.0876 
     19 N          20.5173  -25.9331  -45.9302 N.am      3 UNK        -0.4424 
     20 C          20.3598  -24.6150  -45.7570 C.2       2 UNK         0.4918 
     21 O          21.1247  -23.9235  -45.0853 O.2       2 UNK        -0.4875 
     22 CA         19.1595  -23.9545  -46.4539 C.3       2 UNK         0.0481 
     23 CB         19.4815  -23.7001  -47.9355 C.3       2 UNK        -0.1831 
     24 N          17.9189  -24.7304  -46.3511 N.am      2 UNK        -0.4498 
     25 C          17.0855  -24.6738  -45.3017 C.2       1 UNK         0.5027 
     26 O          17.3314  -24.0403  -44.2716 O.2       1 UNK        -0.4969 
     27 C          21.7648  -27.0350  -43.9976 C.2       3 UNK         0.5005 
     28 O          22.3221  -28.0605  -43.6047 O.2       3 UNK        -0.5279 
     29 N          21.2561  -26.1227  -43.1563 N.am      4 UNK        -0.4463 
     30 CA         21.1466  -26.2418  -41.6949 C.3       4 UNK         0.0283 
     31 CB         20.4261  -24.9977  -41.1498 C.3       4 UNK        -0.1875 
     32 C          22.4723  -26.4670  -40.9400 C.2       4 UNK         0.4949 
     33 O          22.4418  -26.9061  -39.7905 O.2       4 UNK        -0.5039 
     34 N          23.6062  -26.1731  -41.5887 N.am      5 UNK        -0.4663 
     35 CA         24.9560  -26.4333  -41.0871 C.3       5 UNK         0.0242 
     36 CB         25.9537  -25.5916  -41.9004 C.3       5 UNK        -0.1982 
     37 C          25.3601  -27.9220  -41.1132 C.2       5 UNK         0.5017 
     38 O          26.3620  -28.2655  -40.4841 O.2       5 UNK        -0.5012 
     39 N          24.6192  -28.7725  -41.8426 N.am      6 UNK        -0.4439 
     40 CA         24.8695  -30.2119  -41.9556 C.3       6 UNK         0.0297 
     41 CB         23.9641  -30.8042  -43.0482 C.3       6 UNK        -0.2006 
     42 C          24.6578  -30.9357  -40.6141 C.2       6 UNK         0.4892 
     43 O          23.5237  -31.0115  -40.1352 O.2       6 UNK        -0.5089 
     44 N          25.7509  -31.4569  -40.0389 N.am      7 UNK        -0.4243 
     45 CA         25.7705  -32.2017  -38.7771 C.3       7 UNK         0.0196 
     46 CB         27.2236  -32.5354  -38.4014 C.3       7 UNK        -0.2007 
     47 C          24.9196  -33.4774  -38.8703 C.2       7 UNK         0.5020 
     48 O          25.1936  -34.3262  -39.7217 O.2       7 UNK        -0.5147 
     49 N          23.8697  -33.5517  -38.0384 N.am      8 UNK        -0.4734 
     50 CA         22.8290  -34.5943  -38.0161 C.3       8 UNK         0.0238 
     51 CB         23.4159  -35.9292  -37.5093 C.3       8 UNK        -0.1912 
     52 C          22.0778  -34.7552  -39.3577 C.2       8 UNK         0.5038 
     53 O          21.5361  -35.8287  -39.6276 O.2       8 UNK        -0.5046 
     54 N          22.0815  -33.6939  -40.1765 N.am      9 UNK        -0.4200 
     55 CA         21.6018  -33.6560  -41.5649 C.3       9 UNK         0.0839 
     56 C          22.4229  -34.5387  -42.5536 C.2       9 UNK         0.5513 
     57 N          23.6460  -34.9418  -42.2268 N.am      9 UNK        -0.7519 
     58 O          21.9613  -34.8349  -43.6525 O.2       9 UNK        -0.4960 
     59 C59        20.0610  -33.8554  -41.7026 C.3       10 UNK        -0.0876 
     60 S60        18.9977  -32.8168  -40.6290 S.3       10 UNK        -0.2414 
     61 C61        19.7602  -31.1594  -40.6458 C.3       10 UNK         0.0169 
     62 H62        13.3443  -21.9699  -43.9824 H         1 UNK         0.0903 
     63 H63        12.0971  -22.8816  -44.8376 H         1 UNK         0.0903 
     64 H64        12.8524  -23.5590  -43.3938 H         1 UNK         0.0903 
     65 H65        14.3927  -25.1258  -43.8602 H         1 UNK         0.3096 
     66 H66        15.5013  -25.4613  -46.4947 H         1 UNK         0.1121 
     67 H67        15.0010  -27.4641  -45.3746 H         1 UNK         0.0849 
     68 H68        16.7177  -27.4120  -45.4090 H         1 UNK         0.0849 
     69 H69        18.0517  -26.2854  -43.1810 H         1 UNK         0.0865 
     70 H70        17.5698  -26.7877  -41.5939 H         1 UNK         0.0865 
     71 H71        18.1786  -28.9491  -40.7622 H         1 UNK         0.1346 
     72 H72        20.5541  -31.5066  -43.2541 H         1 UNK         0.1412 
     73 H73        18.6649  -28.0558  -44.9125 H         1 UNK         0.1426 
     74 H74        19.6726  -31.0489  -46.0036 H         1 UNK         0.0716 
     75 H75        21.2705  -30.6195  -45.4457 H         1 UNK         0.0716 
     76 H76        22.5962  -28.6957  -46.0136 H         1 UNK         0.0695 
     77 H77        22.2833  -27.6755  -47.3662 H         1 UNK         0.0695 
     78 H78        22.5606  -26.1199  -45.7004 H         1 UNK         0.0983 
     79 H79        19.8329  -26.4326  -46.4788 H         1 UNK         0.3095 
     80 H80        19.0027  -22.9806  -45.9843 H         1 UNK         0.0454 
     81 H81        20.3910  -23.1066  -48.0407 H         1 UNK         0.0851 
     82 H82        19.6343  -24.6287  -48.4868 H         1 UNK         0.0851 
     83 H83        18.6801  -23.1471  -48.4257 H         1 UNK         0.0851 
     84 H84        17.6512  -25.2674  -47.1640 H         1 UNK         0.2976 
     85 H85        20.9110  -25.2642  -43.5705 H         1 UNK         0.3116 
     86 H86        20.5248  -27.1143  -41.4911 H         1 UNK         0.0646 
     87 H87        20.2735  -25.0745  -40.0723 H         1 UNK         0.0847 
     88 H88        19.4440  -24.8696  -41.6047 H         1 UNK         0.0847 
     89 H89        21.0006  -24.0889  -41.3333 H         1 UNK         0.0847 
     90 H90        23.5301  -25.8184  -42.5306 H         1 UNK         0.3040 
     91 H91        25.0026  -26.1081  -40.0452 H         1 UNK         0.1015 
     92 H92        26.9715  -25.7258  -41.5310 H         1 UNK         0.0786 
     93 H93        25.7252  -24.5278  -41.8317 H         1 UNK         0.0786 
     94 H94        25.9510  -25.8699  -42.9551 H         1 UNK         0.0786 
     95 H95        23.7980  -28.4192  -42.3279 H         1 UNK         0.3172 
     96 H96        25.9057  -30.3481  -42.2720 H         1 UNK         0.0595 
     97 H97        24.1609  -30.3472  -44.0181 H         1 UNK         0.0839 
     98 H98        22.9092  -30.6499  -42.8195 H         1 UNK         0.0839 
     99 H99        24.1263  -31.8775  -43.1543 H         1 UNK         0.0839 
    100 H100       26.6386  -31.3466  -40.5072 H         1 UNK         0.2998 
    101 H101       25.3589  -31.5509  -38.0027 H         1 UNK         0.0822 
    102 H102       27.8210  -31.6312  -38.2815 H         1 UNK         0.0787 
    103 H103       27.2664  -33.0790  -37.4565 H         1 UNK         0.0787 
    104 H104       27.7038  -33.1584  -39.1573 H         1 UNK         0.0787 
    105 H105       23.7198  -32.7818  -37.3994 H         1 UNK         0.3055 
    106 H106       22.0780  -34.2674  -37.2950 H         1 UNK         0.1106 
    107 H107       24.1266  -36.3538  -38.2191 H         1 UNK         0.0828 
    108 H108       23.9291  -35.8013  -36.5563 H         1 UNK         0.0828 
    109 H109       22.6308  -36.6702  -37.3541 H         1 UNK         0.0828 
    110 H110       22.5696  -32.8578  -39.8750 H         1 UNK         0.2931 
    111 H111       21.8365  -32.6490  -41.8986 H         1 UNK         0.0412 
    112 H112       24.1675  -35.5030  -42.8812 H         1 UNK         0.3472 
    113 H113       24.0581  -34.7050  -41.3299 H         1 UNK         0.3472 
    114 H114       19.8071  -34.8972  -41.5005 H         1 UNK         0.0970 
    115 H115       19.7494  -33.6794  -42.7333 H         1 UNK         0.0970 
    116 H116       20.8423  -31.2133  -40.5469 H         1 UNK         0.0612 
    117 H117       19.4241  -30.6438  -39.7451 H         1 UNK         0.0612 
@<TRIPOS>BOND
     1    1    2 1    
     2    1   62 1    
     3    1   63 1    
     4    1   64 1    
     5    2    3 2    
     6    2    4 am   BACKBONE|DICT|INTERRES
     7    4    5 1    
     8    4   65 1    
     9    5    6 1    
    10    5   25 1    
    11    5   66 1    
    12    6    7 1    
    13    6   67 1    
    14    6   68 1    
    15    7    8 1    
    16    8    9 1    
    17    8   69 1    
    18    8   70 1    
    19    9   10 ar   
    20    9   14 ar   
    21   10   11 ar   
    22   10   71 1    
    23   11   12 ar   
    24   11   61 1    
    25   12   13 ar   
    26   12   72 1    
    27   13   14 ar   
    28   13   15 1    
    29   14   73 1    
    30   15   16 1    
    31   15   74 1    
    32   15   75 1    
    33   16   17 1    
    34   17   18 1    
    35   17   76 1    
    36   17   77 1    
    37   18   19 1    
    38   18   27 1    
    39   18   78 1    
    40   19   20 am   BACKBONE|DICT|INTERRES
    41   19   79 1    
    42   20   21 2    
    43   20   22 1    
    44   22   23 1    
    45   22   24 1    
    46   22   80 1    
    47   23   81 1    
    48   23   82 1    
    49   23   83 1    
    50   24   25 am   BACKBONE|DICT|INTERRES
    51   24   84 1    
    52   25   26 2    
    53   27   28 2    
    54   27   29 am   BACKBONE|DICT|INTERRES
    55   29   30 1    
    56   29   85 1    
    57   30   31 1    
    58   30   32 1    
    59   30   86 1    
    60   31   87 1    
    61   31   88 1    
    62   31   89 1    
    63   32   33 2    
    64   32   34 am   BACKBONE|DICT|INTERRES
    65   34   35 1    
    66   34   90 1    
    67   35   36 1    
    68   35   37 1    
    69   35   91 1    
    70   36   92 1    
    71   36   93 1    
    72   36   94 1    
    73   37   38 2    
    74   37   39 am   BACKBONE|DICT|INTERRES
    75   39   40 1    
    76   39   95 1    
    77   40   41 1    
    78   40   42 1    
    79   40   96 1    
    80   41   97 1    
    81   41   98 1    
    82   41   99 1    
    83   42   43 2    
    84   42   44 am   BACKBONE|DICT|INTERRES
    85   44   45 1    
    86   44  100 1    
    87   45   46 1    
    88   45   47 1    
    89   45  101 1    
    90   46  102 1    
    91   46  103 1    
    92   46  104 1    
    93   47   48 2    
    94   47   49 am   BACKBONE|DICT|INTERRES
    95   49   50 1    
    96   49  105 1    
    97   50   51 1    
    98   50   52 1    
    99   50  106 1    
   100   51  107 1    
   101   51  108 1    
   102   51  109 1    
   103   52   53 2    
   104   52   54 am   BACKBONE|DICT|INTERRES
   105   54   55 1    
   106   54  110 1    
   107   55   56 1    
   108   55   59 1    
   109   55  111 1    
   110   56   57 am   BACKBONE|DICT|INTERRES
   111   56   58 2    
   112   57  112 1    
   113   57  113 1    
   114   59   60 1    
   115   59  114 1    
   116   59  115 1    
   117   60   61 1    
   118   61  116 1    
   119   61  117 1    
@<TRIPOS>SUBSTRUCTURE
     1 UNK         1 GROUP             0       ****    0 ROOT    
