@<TRIPOS>MOLECULE
3R8
117   119    1
SMALL
USER_CHARGES


@<TRIPOS>ATOM
      1 CA         23.3163  -28.8517  -44.0666 C.3       0 UNK        -0.2013 
      2 C          21.8775  -28.4198  -44.3015 C.2       0 UNK         0.4866 
      3 O          21.1045  -28.3235  -43.3483 O.2       0 UNK        -0.5176 
      4 N          21.5136  -28.1614  -45.5627 N.am      1 UNK        -0.4884 
      5 CA         20.1707  -27.7531  -45.9854 C.3       1 UNK         0.0853 
      6 C6         20.0523  -27.8229  -47.5340 C.3       10 UNK        -0.0849 
      7 S7         18.4038  -27.4264  -48.2246 S.3       10 UNK        -0.2776 
      8 C8         17.5861  -29.0524  -48.2688 C.3       10 UNK         0.0316 
      9 C9         17.3656  -29.6151  -46.8722 C.ar      10 UNK        -0.0863 
     10 C10        18.1115  -30.7116  -46.4338 C.ar      10 UNK        -0.1009 
     11 C11        17.9203  -31.2353  -45.1527 C.ar      10 UNK        -0.0712 
     12 C12        16.9772  -30.6492  -44.3012 C.ar      10 UNK        -0.0894 
     13 C13        16.2129  -29.5597  -44.7337 C.ar      10 UNK        -0.0745 
     14 C14        16.4102  -29.0498  -46.0217 C.ar      10 UNK        -0.0972 
     15 C15        15.1216  -28.9780  -43.8442 C.3       10 UNK         0.0209 
     16 S16        15.4495  -27.2539  -43.3560 S.3       10 UNK        -0.2568 
     17 C17        16.5598  -27.4327  -41.9246 C.3       10 UNK        -0.0983 
     18 CA         17.9915  -26.8699  -42.1332 C.3       3 UNK         0.0876 
     19 N          18.0623  -25.4117  -42.2555 N.am      3 UNK        -0.4424 
     20 C          18.0805  -24.5653  -43.2965 C.2       2 UNK         0.4918 
     21 O          18.3289  -23.3754  -43.1029 O.2       2 UNK        -0.4875 
     22 CA         17.7497  -25.0172  -44.7394 C.3       2 UNK         0.0481 
     23 CB         17.9062  -23.8806  -45.7751 C.3       2 UNK        -0.1831 
     24 N          18.4522  -26.2146  -45.1978 N.am      2 UNK        -0.4498 
     25 C          19.7655  -26.3759  -45.4093 C.2       1 UNK         0.5027 
     26 O          20.6192  -25.5094  -45.2049 O.2       1 UNK        -0.4969 
     27 C          18.8357  -27.1573  -40.8786 C.2       3 UNK         0.5005 
     28 O          18.7373  -26.3952  -39.9109 O.2       3 UNK        -0.5279 
     29 N          19.6489  -28.2219  -40.9143 N.am      4 UNK        -0.4463 
     30 CA         20.6589  -28.5821  -39.9066 C.3       4 UNK         0.0283 
     31 CB         20.0113  -28.9218  -38.5471 C.3       4 UNK        -0.1875 
     32 C          21.7606  -27.5083  -39.8008 C.2       4 UNK         0.4949 
     33 O          22.2048  -27.1710  -38.7029 O.2       4 UNK        -0.5039 
     34 N          22.1644  -26.9732  -40.9609 N.am      5 UNK        -0.4663 
     35 CA         23.1305  -25.8788  -41.0999 C.3       5 UNK         0.0242 
     36 CB         22.8177  -25.1145  -42.3987 C.3       5 UNK        -0.1982 
     37 C          24.6009  -26.3408  -41.0641 C.2       5 UNK         0.5017 
     38 O          25.4958  -25.5076  -41.2128 O.2       5 UNK        -0.5012 
     39 N          24.8312  -27.6448  -40.8838 N.am      6 UNK        -0.4439 
     40 CA         26.1351  -28.2923  -40.7890 C.3       6 UNK         0.0297 
     41 CB         26.6368  -28.6492  -42.2046 C.3       6 UNK        -0.2006 
     42 C          25.9963  -29.5172  -39.8704 C.2       6 UNK         0.4892 
     43 O          25.0221  -29.6102  -39.1199 O.2       6 UNK        -0.5089 
     44 N          26.9603  -30.4454  -39.9484 N.am      7 UNK        -0.4243 
     45 CA         26.9028  -31.7496  -39.2768 C.3       7 UNK         0.0196 
     46 CB         28.2895  -32.4114  -39.3320 C.3       7 UNK        -0.2007 
     47 C          25.8326  -32.6847  -39.8751 C.2       7 UNK         0.5020 
     48 O          25.3279  -33.5579  -39.1687 O.2       7 UNK        -0.5147 
     49 N          25.5088  -32.4853  -41.1594 N.am      8 UNK        -0.4734 
     50 CA         24.4033  -33.1407  -41.8566 C.3       8 UNK         0.0238 
     51 CB         24.6818  -33.0999  -43.3691 C.3       8 UNK        -0.1912 
     52 C          23.0667  -32.4462  -41.5457 C.2       8 UNK         0.5038 
     53 O          23.0558  -31.2519  -41.2367 O.2       8 UNK        -0.5046 
     54 N          21.9714  -33.2007  -41.7019 N.am      9 UNK        -0.4200 
     55 CA         20.5736  -32.7717  -41.5159 C.3       9 UNK         0.0839 
     56 C          20.1890  -32.5041  -40.0306 C.2       9 UNK         0.5513 
     57 N          18.9220  -32.2165  -39.7624 N.am      9 UNK        -0.7519 
     58 O          21.0005  -32.5933  -39.1121 O.2       9 UNK        -0.4960 
     59 C59        20.1609  -31.6076  -42.4665 C.3       10 UNK        -0.0876 
     60 S60        20.4042  -32.0322  -44.2233 S.3       10 UNK        -0.2414 
     61 C61        18.7101  -32.4619  -44.7219 C.3       10 UNK         0.0169 
     62 H62        23.8056  -29.1545  -44.9921 H         1 UNK         0.0903 
     63 H63        23.8886  -28.0358  -43.6286 H         1 UNK         0.0903 
     64 H64        23.3449  -29.6972  -43.3807 H         1 UNK         0.0903 
     65 H65        22.2046  -28.2209  -46.2965 H         1 UNK         0.3096 
     66 H66        19.4907  -28.4886  -45.5537 H         1 UNK         0.1121 
     67 H67        20.3372  -28.8177  -47.8810 H         1 UNK         0.0849 
     68 H68        20.7688  -27.1363  -47.9889 H         1 UNK         0.0849 
     69 H69        18.1743  -29.7378  -48.8813 H         1 UNK         0.0865 
     70 H70        16.6224  -28.9497  -48.7697 H         1 UNK         0.0865 
     71 H71        18.8440  -31.1634  -47.0891 H         1 UNK         0.1346 
     72 H72        16.8146  -31.0622  -43.3153 H         1 UNK         0.1412 
     73 H73        15.8135  -28.2149  -46.3650 H         1 UNK         0.1426 
     74 H74        14.9634  -29.5908  -42.9555 H         1 UNK         0.0716 
     75 H75        14.1799  -29.0035  -44.3945 H         1 UNK         0.0716 
     76 H76        16.6107  -28.4905  -41.6593 H         1 UNK         0.0695 
     77 H77        16.0794  -26.9383  -41.0779 H         1 UNK         0.0695 
     78 H78        18.4671  -27.3669  -42.9754 H         1 UNK         0.0983 
     79 H79        18.2708  -25.0106  -41.3487 H         1 UNK         0.3095 
     80 H80        16.6911  -25.2643  -44.7431 H         1 UNK         0.0454 
     81 H81        18.9297  -23.5073  -45.8198 H         1 UNK         0.0851 
     82 H82        17.2637  -23.0345  -45.5282 H         1 UNK         0.0851 
     83 H83        17.6275  -24.2137  -46.7749 H         1 UNK         0.0851 
     84 H84        17.8480  -26.9955  -45.4156 H         1 UNK         0.2976 
     85 H85        19.7543  -28.6952  -41.8052 H         1 UNK         0.3116 
     86 H86        21.1506  -29.4853  -40.2683 H         1 UNK         0.0646 
     87 H87        19.6182  -28.0359  -38.0479 H         1 UNK         0.0847 
     88 H88        20.7420  -29.3739  -37.8754 H         1 UNK         0.0847 
     89 H89        19.1929  -29.6311  -38.6612 H         1 UNK         0.0847 
     90 H90        21.7585  -27.3376  -41.8195 H         1 UNK         0.3040 
     91 H91        22.9974  -25.1888  -40.2636 H         1 UNK         0.1015 
     92 H92        22.9686  -25.7342  -43.2827 H         1 UNK         0.0786 
     93 H93        23.4583  -24.2380  -42.5034 H         1 UNK         0.0786 
     94 H94        21.7858  -24.7618  -42.4142 H         1 UNK         0.0786 
     95 H95        24.0467  -28.2478  -40.6678 H         1 UNK         0.3172 
     96 H96        26.8440  -27.6105  -40.3148 H         1 UNK         0.0595 
     97 H97        27.6604  -29.0239  -42.1867 H         1 UNK         0.0839 
     98 H98        26.6370  -27.7746  -42.8556 H         1 UNK         0.0839 
     99 H99        26.0118  -29.4097  -42.6741 H         1 UNK         0.0839 
    100 H100       27.7453  -30.2837  -40.5628 H         1 UNK         0.2998 
    101 H101       26.6438  -31.5831  -38.2288 H         1 UNK         0.0822 
    102 H102       28.2827  -33.3725  -38.8158 H         1 UNK         0.0787 
    103 H103       28.6098  -32.5955  -40.3583 H         1 UNK         0.0787 
    104 H104       29.0451  -31.7916  -38.8488 H         1 UNK         0.0787 
    105 H105       25.9496  -31.7173  -41.6416 H         1 UNK         0.3055 
    106 H106       24.3454  -34.1825  -41.5325 H         1 UNK         0.1106 
    107 H107       23.8921  -33.6044  -43.9276 H         1 UNK         0.0828 
    108 H108       24.7379  -32.0764  -43.7425 H         1 UNK         0.0828 
    109 H109       25.6193  -33.5993  -43.6144 H         1 UNK         0.0828 
    110 H110       22.0877  -34.1706  -41.9553 H         1 UNK         0.2931 
    111 H111       19.9838  -33.6446  -41.7987 H         1 UNK         0.0412 
    112 H112       18.2215  -32.1892  -40.4854 H         1 UNK         0.3472 
    113 H113       18.6529  -32.0678  -38.8026 H         1 UNK         0.3472 
    114 H114       20.7474  -30.7153  -42.2549 H         1 UNK         0.0970 
    115 H115       19.1214  -31.3174  -42.3145 H         1 UNK         0.0970 
    116 H116       18.7626  -33.1653  -45.5542 H         1 UNK         0.0612 
    117 H117       18.2043  -32.9909  -43.9126 H         1 UNK         0.0612 
@<TRIPOS>BOND
     1    1    2 1    
     2    1   62 1    
     3    1   63 1    
     4    1   64 1    
     5    2    3 2    
     6    2    4 am   BACKBONE|DICT|INTERRES
     7    4    5 1    
     8    4   65 1    
     9    5    6 1    
    10    5   25 1    
    11    5   66 1    
    12    6    7 1    
    13    6   67 1    
    14    6   68 1    
    15    7    8 1    
    16    8    9 1    
    17    8   69 1    
    18    8   70 1    
    19    9   10 ar   
    20    9   14 ar   
    21   10   11 ar   
    22   10   71 1    
    23   11   12 ar   
    24   11   61 1    
    25   12   13 ar   
    26   12   72 1    
    27   13   14 ar   
    28   13   15 1    
    29   14   73 1    
    30   15   16 1    
    31   15   74 1    
    32   15   75 1    
    33   16   17 1    
    34   17   18 1    
    35   17   76 1    
    36   17   77 1    
    37   18   19 1    
    38   18   27 1    
    39   18   78 1    
    40   19   20 am   BACKBONE|DICT|INTERRES
    41   19   79 1    
    42   20   21 2    
    43   20   22 1    
    44   22   23 1    
    45   22   24 1    
    46   22   80 1    
    47   23   81 1    
    48   23   82 1    
    49   23   83 1    
    50   24   25 am   BACKBONE|DICT|INTERRES
    51   24   84 1    
    52   25   26 2    
    53   27   28 2    
    54   27   29 am   BACKBONE|DICT|INTERRES
    55   29   30 1    
    56   29   85 1    
    57   30   31 1    
    58   30   32 1    
    59   30   86 1    
    60   31   87 1    
    61   31   88 1    
    62   31   89 1    
    63   32   33 2    
    64   32   34 am   BACKBONE|DICT|INTERRES
    65   34   35 1    
    66   34   90 1    
    67   35   36 1    
    68   35   37 1    
    69   35   91 1    
    70   36   92 1    
    71   36   93 1    
    72   36   94 1    
    73   37   38 2    
    74   37   39 am   BACKBONE|DICT|INTERRES
    75   39   40 1    
    76   39   95 1    
    77   40   41 1    
    78   40   42 1    
    79   40   96 1    
    80   41   97 1    
    81   41   98 1    
    82   41   99 1    
    83   42   43 2    
    84   42   44 am   BACKBONE|DICT|INTERRES
    85   44   45 1    
    86   44  100 1    
    87   45   46 1    
    88   45   47 1    
    89   45  101 1    
    90   46  102 1    
    91   46  103 1    
    92   46  104 1    
    93   47   48 2    
    94   47   49 am   BACKBONE|DICT|INTERRES
    95   49   50 1    
    96   49  105 1    
    97   50   51 1    
    98   50   52 1    
    99   50  106 1    
   100   51  107 1    
   101   51  108 1    
   102   51  109 1    
   103   52   53 2    
   104   52   54 am   BACKBONE|DICT|INTERRES
   105   54   55 1    
   106   54  110 1    
   107   55   56 1    
   108   55   59 1    
   109   55  111 1    
   110   56   57 am   BACKBONE|DICT|INTERRES
   111   56   58 2    
   112   57  112 1    
   113   57  113 1    
   114   59   60 1    
   115   59  114 1    
   116   59  115 1    
   117   60   61 1    
   118   61  116 1    
   119   61  117 1    
@<TRIPOS>SUBSTRUCTURE
     1 UNK         1 GROUP             0       ****    0 ROOT    
