@<TRIPOS>MOLECULE
3R8
117   119    1
SMALL
USER_CHARGES


@<TRIPOS>ATOM
      1 CA         13.6783  -23.8106  -47.1843 C.3       0 UNK        -0.2013 
      2 C          15.1993  -23.8241  -47.1475 C.2       0 UNK         0.4866 
      3 O          15.8210  -22.7612  -47.1155 O.2       0 UNK        -0.5176 
      4 N          15.8031  -25.0184  -47.1614 N.am      1 UNK        -0.4884 
      5 CA         17.2501  -25.2286  -47.0499 C.3       1 UNK         0.0853 
      6 C6         17.6672  -26.5987  -47.6483 C.3       10 UNK        -0.0849 
      7 S7         16.8817  -28.0437  -46.8500 S.3       10 UNK        -0.2776 
      8 C8         18.2732  -28.6416  -45.8433 C.3       10 UNK         0.0316 
      9 C9         17.8216  -29.6013  -44.7562 C.ar      10 UNK        -0.0863 
     10 C10        18.2341  -30.9356  -44.7792 C.ar      10 UNK        -0.1009 
     11 C11        17.8941  -31.7996  -43.7350 C.ar      10 UNK        -0.0712 
     12 C12        17.1158  -31.3267  -42.6744 C.ar      10 UNK        -0.0894 
     13 C13        16.6838  -29.9979  -42.6489 C.ar      10 UNK        -0.0745 
     14 C14        17.0358  -29.1404  -43.6955 C.ar      10 UNK        -0.0972 
     15 C15        15.8437  -29.4946  -41.4848 C.3       10 UNK         0.0209 
     16 S16        16.8854  -28.8480  -40.1375 S.3       10 UNK        -0.2568 
     17 C17        17.3137  -27.1888  -40.7626 C.3       10 UNK        -0.0983 
     18 CA         18.7216  -27.1381  -41.4049 C.3       3 UNK         0.0876 
     19 N          18.8292  -26.0239  -42.3443 N.am      3 UNK        -0.4424 
     20 C          19.7499  -25.9261  -43.3081 C.2       2 UNK         0.4918 
     21 O          20.5737  -26.8078  -43.5639 O.2       2 UNK        -0.4875 
     22 CA         19.7200  -24.6315  -44.1418 C.3       2 UNK         0.0481 
     23 CB         21.1346  -24.0796  -44.3836 C.3       2 UNK        -0.1831 
     24 N          19.0549  -24.8310  -45.4313 N.am      2 UNK        -0.4498 
     25 C          17.7398  -25.0359  -45.5946 C.2       1 UNK         0.5027 
     26 O          16.9376  -25.0821  -44.6570 O.2       1 UNK        -0.4969 
     27 C          19.8380  -27.0460  -40.3478 C.2       3 UNK         0.5005 
     28 O          20.0611  -25.9640  -39.7978 O.2       3 UNK        -0.5279 
     29 N          20.5039  -28.1809  -40.0875 N.am      4 UNK        -0.4463 
     30 CA         21.6209  -28.3579  -39.1487 C.3       4 UNK         0.0283 
     31 CB         21.1365  -28.2071  -37.6912 C.3       4 UNK        -0.1875 
     32 C          22.8391  -27.4672  -39.4722 C.2       4 UNK         0.4949 
     33 O          23.5060  -26.9750  -38.5605 O.2       4 UNK        -0.5039 
     34 N          23.1105  -27.2792  -40.7708 N.am      5 UNK        -0.4663 
     35 CA         24.2659  -26.5405  -41.2855 C.3       5 UNK         0.0242 
     36 CB         24.0265  -26.2118  -42.7665 C.3       5 UNK        -0.1982 
     37 C          25.5844  -27.3138  -41.1176 C.2       5 UNK         0.5017 
     38 O          26.6410  -26.6917  -41.0006 O.2       5 UNK        -0.5012 
     39 N          25.4955  -28.6468  -41.1064 N.am      6 UNK        -0.4439 
     40 CA         26.5899  -29.5844  -40.8906 C.3       6 UNK         0.0297 
     41 CB         27.1827  -29.9813  -42.2574 C.3       6 UNK        -0.2006 
     42 C          26.0485  -30.8005  -40.1255 C.2       6 UNK         0.4892 
     43 O          24.8648  -30.8363  -39.7769 O.2       6 UNK        -0.5089 
     44 N          26.9168  -31.7983  -39.9045 N.am      7 UNK        -0.4243 
     45 CA         26.5393  -33.1168  -39.3802 C.3       7 UNK         0.0196 
     46 CB         27.8043  -33.9450  -39.1043 C.3       7 UNK        -0.2007 
     47 C          25.5897  -33.8728  -40.3285 C.2       7 UNK         0.5020 
     48 O          24.6911  -34.5736  -39.8638 O.2       7 UNK        -0.5147 
     49 N          25.7600  -33.6604  -41.6407 N.am      8 UNK        -0.4734 
     50 CA         24.8591  -34.1124  -42.7028 C.3       8 UNK         0.0238 
     51 CB         25.6790  -34.3251  -43.9900 C.3       8 UNK        -0.1912 
     52 C          23.6866  -33.1267  -42.8969 C.2       8 UNK         0.5038 
     53 O          23.4627  -32.6595  -44.0147 O.2       8 UNK        -0.5046 
     54 N          22.9799  -32.8380  -41.7947 N.am      9 UNK        -0.4200 
     55 CA         21.8027  -31.9643  -41.6607 C.3       9 UNK         0.0839 
     56 C          21.9320  -30.5530  -42.3151 C.2       9 UNK         0.5513 
     57 N          20.8652  -29.9838  -42.8633 N.am      9 UNK        -0.7519 
     58 O          22.9794  -29.9161  -42.2327 O.2       9 UNK        -0.4960 
     59 C59        20.4612  -32.7256  -41.8854 C.3       10 UNK        -0.0876 
     60 S60        20.1905  -33.3511  -43.5812 S.3       10 UNK        -0.2414 
     61 C61        18.3809  -33.2405  -43.7484 C.3       10 UNK         0.0169 
     62 H62        13.3286  -23.2700  -48.0635 H         1 UNK         0.0903 
     63 H63        13.2622  -24.8175  -47.2176 H         1 UNK         0.0903 
     64 H64        13.2865  -23.3113  -46.2983 H         1 UNK         0.0903 
     65 H65        15.2478  -25.8627  -47.1481 H         1 UNK         0.3096 
     66 H66        17.7381  -24.4537  -47.6463 H         1 UNK         0.1121 
     67 H67        18.7529  -26.7115  -47.6357 H         1 UNK         0.0849 
     68 H68        17.3951  -26.6229  -48.7048 H         1 UNK         0.0849 
     69 H69        19.0110  -29.1096  -46.4972 H         1 UNK         0.0865 
     70 H70        18.7779  -27.8009  -45.3699 H         1 UNK         0.0865 
     71 H71        18.8472  -31.2993  -45.5929 H         1 UNK         0.1346 
     72 H72        16.8517  -31.9902  -41.8620 H         1 UNK         0.1412 
     73 H73        16.7169  -28.1065  -43.6786 H         1 UNK         0.1426 
     74 H74        15.2354  -30.3107  -41.0919 H         1 UNK         0.0716 
     75 H75        15.1392  -28.7316  -41.8193 H         1 UNK         0.0716 
     76 H76        17.2242  -26.4699  -39.9456 H         1 UNK         0.0695 
     77 H77        16.5564  -26.8926  -41.4900 H         1 UNK         0.0695 
     78 H78        18.8716  -28.0529  -41.9809 H         1 UNK         0.0983 
     79 H79        18.1848  -25.2586  -42.2089 H         1 UNK         0.3095 
     80 H80        19.1641  -23.8719  -43.5876 H         1 UNK         0.0454 
     81 H81        21.7610  -24.7859  -44.9303 H         1 UNK         0.0851 
     82 H82        21.6309  -23.8630  -43.4371 H         1 UNK         0.0851 
     83 H83        21.1071  -23.1483  -44.9493 H         1 UNK         0.0851 
     84 H84        19.6548  -24.8328  -46.2438 H         1 UNK         0.2976 
     85 H85        20.2437  -29.0053  -40.6115 H         1 UNK         0.3116 
     86 H86        21.9647  -29.3859  -39.2734 H         1 UNK         0.0646 
     87 H87        20.8315  -27.1838  -37.4701 H         1 UNK         0.0847 
     88 H88        21.9272  -28.4692  -36.9871 H         1 UNK         0.0847 
     89 H89        20.2902  -28.8618  -37.4838 H         1 UNK         0.0847 
     90 H90        22.5386  -27.7567  -41.4556 H         1 UNK         0.3040 
     91 H91        24.3553  -25.6042  -40.7300 H         1 UNK         0.1015 
     92 H92        23.9200  -27.1156  -43.3686 H         1 UNK         0.0786 
     93 H93        24.8553  -25.6359  -43.1804 H         1 UNK         0.0786 
     94 H94        23.1226  -25.6193  -42.8939 H         1 UNK         0.0786 
     95 H95        24.5780  -29.0787  -41.1908 H         1 UNK         0.3172 
     96 H96        27.3614  -29.1192  -40.2736 H         1 UNK         0.0595 
     97 H97        28.0501  -30.6326  -42.1485 H         1 UNK         0.0839 
     98 H98        27.5154  -29.1037  -42.8122 H         1 UNK         0.0839 
     99 H99        26.4504  -30.5043  -42.8747 H         1 UNK         0.0839 
    100 H100       27.8792  -31.6802  -40.1876 H         1 UNK         0.2998 
    101 H101       26.0125  -32.9659  -38.4353 H         1 UNK         0.0822 
    102 H102       27.5472  -34.9227  -38.6940 H         1 UNK         0.0787 
    103 H103       28.3842  -34.1153  -40.0124 H         1 UNK         0.0787 
    104 H104       28.4516  -33.4516  -38.3790 H         1 UNK         0.0787 
    105 H105       26.5076  -33.0439  -41.9232 H         1 UNK         0.3055 
    106 H106       24.4242  -35.0749  -42.4229 H         1 UNK         0.1106 
    107 H107       25.0500  -34.7075  -44.7951 H         1 UNK         0.0828 
    108 H108       26.1297  -33.3960  -44.3413 H         1 UNK         0.0828 
    109 H109       26.4788  -35.0496  -43.8361 H         1 UNK         0.0828 
    110 H110       23.3018  -33.2569  -40.9316 H         1 UNK         0.2931 
    111 H111       21.8074  -31.7221  -40.5972 H         1 UNK         0.0412 
    112 H112       20.0193  -30.5140  -43.0115 H         1 UNK         0.3472 
    113 H113       20.9600  -29.0656  -43.2755 H         1 UNK         0.3472 
    114 H114       19.6244  -32.0987  -41.5774 H         1 UNK         0.0970 
    115 H115       20.4234  -33.5863  -41.2162 H         1 UNK         0.0970 
    116 H116       18.0850  -33.7080  -44.6884 H         1 UNK         0.0612 
    117 H117       17.9120  -33.8224  -42.9533 H         1 UNK         0.0612 
@<TRIPOS>BOND
     1    1    2 1    
     2    1   62 1    
     3    1   63 1    
     4    1   64 1    
     5    2    3 2    
     6    2    4 am   BACKBONE|DICT|INTERRES
     7    4    5 1    
     8    4   65 1    
     9    5    6 1    
    10    5   25 1    
    11    5   66 1    
    12    6    7 1    
    13    6   67 1    
    14    6   68 1    
    15    7    8 1    
    16    8    9 1    
    17    8   69 1    
    18    8   70 1    
    19    9   10 ar   
    20    9   14 ar   
    21   10   11 ar   
    22   10   71 1    
    23   11   12 ar   
    24   11   61 1    
    25   12   13 ar   
    26   12   72 1    
    27   13   14 ar   
    28   13   15 1    
    29   14   73 1    
    30   15   16 1    
    31   15   74 1    
    32   15   75 1    
    33   16   17 1    
    34   17   18 1    
    35   17   76 1    
    36   17   77 1    
    37   18   19 1    
    38   18   27 1    
    39   18   78 1    
    40   19   20 am   BACKBONE|DICT|INTERRES
    41   19   79 1    
    42   20   21 2    
    43   20   22 1    
    44   22   23 1    
    45   22   24 1    
    46   22   80 1    
    47   23   81 1    
    48   23   82 1    
    49   23   83 1    
    50   24   25 am   BACKBONE|DICT|INTERRES
    51   24   84 1    
    52   25   26 2    
    53   27   28 2    
    54   27   29 am   BACKBONE|DICT|INTERRES
    55   29   30 1    
    56   29   85 1    
    57   30   31 1    
    58   30   32 1    
    59   30   86 1    
    60   31   87 1    
    61   31   88 1    
    62   31   89 1    
    63   32   33 2    
    64   32   34 am   BACKBONE|DICT|INTERRES
    65   34   35 1    
    66   34   90 1    
    67   35   36 1    
    68   35   37 1    
    69   35   91 1    
    70   36   92 1    
    71   36   93 1    
    72   36   94 1    
    73   37   38 2    
    74   37   39 am   BACKBONE|DICT|INTERRES
    75   39   40 1    
    76   39   95 1    
    77   40   41 1    
    78   40   42 1    
    79   40   96 1    
    80   41   97 1    
    81   41   98 1    
    82   41   99 1    
    83   42   43 2    
    84   42   44 am   BACKBONE|DICT|INTERRES
    85   44   45 1    
    86   44  100 1    
    87   45   46 1    
    88   45   47 1    
    89   45  101 1    
    90   46  102 1    
    91   46  103 1    
    92   46  104 1    
    93   47   48 2    
    94   47   49 am   BACKBONE|DICT|INTERRES
    95   49   50 1    
    96   49  105 1    
    97   50   51 1    
    98   50   52 1    
    99   50  106 1    
   100   51  107 1    
   101   51  108 1    
   102   51  109 1    
   103   52   53 2    
   104   52   54 am   BACKBONE|DICT|INTERRES
   105   54   55 1    
   106   54  110 1    
   107   55   56 1    
   108   55   59 1    
   109   55  111 1    
   110   56   57 am   BACKBONE|DICT|INTERRES
   111   56   58 2    
   112   57  112 1    
   113   57  113 1    
   114   59   60 1    
   115   59  114 1    
   116   59  115 1    
   117   60   61 1    
   118   61  116 1    
   119   61  117 1    
@<TRIPOS>SUBSTRUCTURE
     1 UNK         1 GROUP             0       ****    0 ROOT    
