@<TRIPOS>MOLECULE
3R8
117   119    1
SMALL
USER_CHARGES


@<TRIPOS>ATOM
      1 CA         21.3081  -25.1083  -39.2158 C.3       0 UNK        -0.2013 
      2 C          20.1048  -25.2791  -40.1313 C.2       0 UNK         0.4866 
      3 O          19.0883  -24.6105  -39.9392 O.2       0 UNK        -0.5176 
      4 N          20.2096  -26.1716  -41.1211 N.am      1 UNK        -0.4884 
      5 CA         19.1833  -26.4149  -42.1391 C.3       1 UNK         0.0853 
      6 C6         19.3640  -27.8004  -42.8066 C.3       10 UNK        -0.0849 
      7 S7         19.1851  -29.1870  -41.6354 S.3       10 UNK        -0.2776 
      8 C8         18.0629  -30.3014  -42.5450 C.3       10 UNK         0.0316 
      9 C9         18.6997  -30.8194  -43.8281 C.ar      10 UNK        -0.0863 
     10 C10        19.7785  -31.7033  -43.7613 C.ar      10 UNK        -0.1009 
     11 C11        20.4048  -32.1674  -44.9237 C.ar      10 UNK        -0.0712 
     12 C12        19.9311  -31.7281  -46.1647 C.ar      10 UNK        -0.0894 
     13 C13        18.8467  -30.8484  -46.2500 C.ar      10 UNK        -0.0745 
     14 C14        18.2259  -30.4083  -45.0766 C.ar      10 UNK        -0.0972 
     15 C15        18.3597  -30.3690  -47.6134 C.3       10 UNK         0.0209 
     16 S16        18.3098  -28.5509  -47.7599 S.3       10 UNK        -0.2568 
     17 C17        20.0334  -28.0934  -47.3664 C.3       10 UNK        -0.0983 
     18 CA         20.2419  -26.5598  -47.2624 C.3       3 UNK         0.0876 
     19 N          19.2848  -25.9547  -46.3294 N.am      3 UNK        -0.4424 
     20 C          18.9239  -24.6657  -46.2834 C.2       2 UNK         0.4918 
     21 O          19.3126  -23.8151  -47.0831 O.2       2 UNK        -0.4875 
     22 CA         18.0075  -24.2507  -45.1127 C.3       2 UNK         0.0481 
     23 CB         16.5432  -24.1963  -45.5757 C.3       2 UNK        -0.1831 
     24 N          18.1140  -25.1273  -43.9353 N.am      2 UNK        -0.4498 
     25 C          19.2347  -25.3193  -43.2218 C.2       1 UNK         0.5027 
     26 O          20.2976  -24.7412  -43.4645 O.2       1 UNK        -0.4969 
     27 C          21.7160  -26.2440  -46.9030 C.2       3 UNK         0.5005 
     28 O          22.6082  -26.6763  -47.6337 O.2       3 UNK        -0.5279 
     29 N          21.9530  -25.5332  -45.7863 N.am      4 UNK        -0.4463 
     30 CA         23.2481  -25.1692  -45.1955 C.3       4 UNK         0.0283 
     31 CB         24.1428  -24.3919  -46.1852 C.3       4 UNK        -0.1875 
     32 C          23.9790  -26.3458  -44.5195 C.2       4 UNK         0.4949 
     33 O          25.1755  -26.2386  -44.2460 O.2       4 UNK        -0.5039 
     34 N          23.2516  -27.4316  -44.2230 N.am      5 UNK        -0.4663 
     35 CA         23.7244  -28.5398  -43.3925 C.3       5 UNK         0.0242 
     36 CB         22.8669  -29.7840  -43.6655 C.3       5 UNK        -0.1982 
     37 C          23.6545  -28.1522  -41.9077 C.2       5 UNK         0.5017 
     38 O          22.7326  -27.4355  -41.5083 O.2       5 UNK        -0.5012 
     39 N          24.6034  -28.6533  -41.1080 N.am      6 UNK        -0.4439 
     40 CA         24.7973  -28.3169  -39.6920 C.3       6 UNK         0.0297 
     41 CB         26.2579  -28.6228  -39.3083 C.3       6 UNK        -0.2006 
     42 C          23.7852  -28.9849  -38.7352 C.2       6 UNK         0.4892 
     43 O          24.1889  -29.5477  -37.7160 O.2       6 UNK        -0.5089 
     44 N          22.4918  -28.9082  -39.0774 N.am      7 UNK        -0.4243 
     45 CA         21.2926  -29.3326  -38.3370 C.3       7 UNK         0.0196 
     46 CB         21.1560  -28.5513  -37.0163 C.3       7 UNK        -0.2007 
     47 C          21.1477  -30.8456  -38.0851 C.2       7 UNK         0.5020 
     48 O          20.0358  -31.3618  -38.1901 O.2       7 UNK        -0.5147 
     49 N          22.2481  -31.5342  -37.7575 N.am      8 UNK        -0.4734 
     50 CA         22.3038  -32.9490  -37.3638 C.3       8 UNK         0.0238 
     51 CB         23.7400  -33.2918  -36.9360 C.3       8 UNK        -0.1912 
     52 C          21.8119  -33.9398  -38.4345 C.2       8 UNK         0.5038 
     53 O          21.3528  -35.0275  -38.0833 O.2       8 UNK        -0.5046 
     54 N          21.9071  -33.5427  -39.7087 N.am      9 UNK        -0.4200 
     55 CA         21.3372  -34.2547  -40.8611 C.3       9 UNK         0.0839 
     56 C          19.7764  -34.1850  -40.9236 C.2       9 UNK         0.5513 
     57 N          19.1173  -33.2522  -40.2451 N.am      9 UNK        -0.7519 
     58 O          19.1428  -35.0229  -41.5592 O.2       9 UNK        -0.4960 
     59 C59        22.0725  -33.8078  -42.1588 C.3       10 UNK        -0.0876 
     60 S60        21.4601  -34.5083  -43.7349 S.3       10 UNK        -0.2414 
     61 C61        21.6244  -33.0895  -44.8711 C.3       10 UNK         0.0169 
     62 H62        20.9981  -25.1603  -38.1726 H         1 UNK         0.0903 
     63 H63        22.0606  -25.8782  -39.3831 H         1 UNK         0.0903 
     64 H64        21.7718  -24.1370  -39.3854 H         1 UNK         0.0903 
     65 H65        21.0956  -26.6512  -41.2699 H         1 UNK         0.3096 
     66 H66        18.2015  -26.3790  -41.6611 H         1 UNK         0.1121 
     67 H67        20.3453  -27.8751  -43.2760 H         1 UNK         0.0849 
     68 H68        18.6360  -27.9310  -43.6085 H         1 UNK         0.0849 
     69 H69        17.1250  -29.7838  -42.7520 H         1 UNK         0.0865 
     70 H70        17.8096  -31.1472  -41.9045 H         1 UNK         0.0865 
     71 H71        20.1289  -32.0050  -42.7888 H         1 UNK         0.1346 
     72 H72        20.4168  -32.0640  -47.0707 H         1 UNK         0.1412 
     73 H73        17.3890  -29.7263  -45.1398 H         1 UNK         0.1426 
     74 H74        17.3583  -30.7640  -47.7890 H         1 UNK         0.0716 
     75 H75        18.9902  -30.7629  -48.4120 H         1 UNK         0.0716 
     76 H76        20.6774  -28.5190  -48.1384 H         1 UNK         0.0695 
     77 H77        20.3196  -28.5732  -46.4285 H         1 UNK         0.0695 
     78 H78        20.0646  -26.1278  -48.2498 H         1 UNK         0.0983 
     79 H79        18.8650  -26.5867  -45.6660 H         1 UNK         0.3095 
     80 H80        18.3059  -23.2465  -44.8049 H         1 UNK         0.0454 
     81 H81        16.1773  -25.1781  -45.8791 H         1 UNK         0.0851 
     82 H82        16.4293  -23.5288  -46.4311 H         1 UNK         0.0851 
     83 H83        15.8899  -23.8214  -44.7877 H         1 UNK         0.0851 
     84 H84        17.2787  -25.6356  -43.6800 H         1 UNK         0.2976 
     85 H85        21.1548  -25.2290  -45.2374 H         1 UNK         0.3116 
     86 H86        23.0045  -24.4820  -44.3838 H         1 UNK         0.0646 
     87 H87        24.5298  -25.0338  -46.9767 H         1 UNK         0.0847 
     88 H88        25.0041  -23.9600  -45.6744 H         1 UNK         0.0847 
     89 H89        23.5999  -23.5701  -46.6518 H         1 UNK         0.0847 
     90 H90        22.2703  -27.4189  -44.4504 H         1 UNK         0.3040 
     91 H91        24.7602  -28.7624  -43.6592 H         1 UNK         0.1015 
     92 H92        22.8582  -30.0352  -44.7263 H         1 UNK         0.0786 
     93 H93        21.8340  -29.6493  -43.3459 H         1 UNK         0.0786 
     94 H94        23.2595  -30.6484  -43.1295 H         1 UNK         0.0786 
     95 H95        25.2893  -29.2764  -41.5104 H         1 UNK         0.3172 
     96 H96        24.6537  -27.2398  -39.5822 H         1 UNK         0.0595 
     97 H97        26.4788  -29.6887  -39.3772 H         1 UNK         0.0839 
     98 H98        26.4686  -28.3122  -38.2839 H         1 UNK         0.0839 
     99 H99        26.9589  -28.0908  -39.9518 H         1 UNK         0.0839 
    100 H100       22.3060  -28.4459  -39.9633 H         1 UNK         0.2998 
    101 H101       20.4493  -29.0460  -38.9665 H         1 UNK         0.0822 
    102 H102       21.1555  -27.4758  -37.1897 H         1 UNK         0.0787 
    103 H103       20.2199  -28.7979  -36.5133 H         1 UNK         0.0787 
    104 H104       21.9659  -28.7787  -36.3224 H         1 UNK         0.0787 
    105 H105       23.1090  -30.9950  -37.6760 H         1 UNK         0.3055 
    106 H106       21.6492  -33.0703  -36.4980 H         1 UNK         0.1106 
    107 H107       23.8150  -34.3302  -36.6096 H         1 UNK         0.0828 
    108 H108       24.0657  -32.6681  -36.1032 H         1 UNK         0.0828 
    109 H109       24.4479  -33.1543  -37.7544 H         1 UNK         0.0828 
    110 H110       22.2878  -32.6255  -39.8842 H         1 UNK         0.2931 
    111 H111       21.5711  -35.3127  -40.7257 H         1 UNK         0.0412 
    112 H112       19.5944  -32.5928  -39.6390 H         1 UNK         0.3472 
    113 H113       18.1110  -33.2499  -40.2810 H         1 UNK         0.3472 
    114 H114       22.0812  -32.7204  -42.2248 H         1 UNK         0.0970 
    115 H115       23.1242  -34.0876  -42.0792 H         1 UNK         0.0970 
    116 H116       22.5103  -32.5112  -44.6108 H         1 UNK         0.0612 
    117 H117       21.8185  -33.4984  -45.8638 H         1 UNK         0.0612 
@<TRIPOS>BOND
     1    1    2 1    
     2    1   62 1    
     3    1   63 1    
     4    1   64 1    
     5    2    3 2    
     6    2    4 am   BACKBONE|DICT|INTERRES
     7    4    5 1    
     8    4   65 1    
     9    5    6 1    
    10    5   25 1    
    11    5   66 1    
    12    6    7 1    
    13    6   67 1    
    14    6   68 1    
    15    7    8 1    
    16    8    9 1    
    17    8   69 1    
    18    8   70 1    
    19    9   10 ar   
    20    9   14 ar   
    21   10   11 ar   
    22   10   71 1    
    23   11   12 ar   
    24   11   61 1    
    25   12   13 ar   
    26   12   72 1    
    27   13   14 ar   
    28   13   15 1    
    29   14   73 1    
    30   15   16 1    
    31   15   74 1    
    32   15   75 1    
    33   16   17 1    
    34   17   18 1    
    35   17   76 1    
    36   17   77 1    
    37   18   19 1    
    38   18   27 1    
    39   18   78 1    
    40   19   20 am   BACKBONE|DICT|INTERRES
    41   19   79 1    
    42   20   21 2    
    43   20   22 1    
    44   22   23 1    
    45   22   24 1    
    46   22   80 1    
    47   23   81 1    
    48   23   82 1    
    49   23   83 1    
    50   24   25 am   BACKBONE|DICT|INTERRES
    51   24   84 1    
    52   25   26 2    
    53   27   28 2    
    54   27   29 am   BACKBONE|DICT|INTERRES
    55   29   30 1    
    56   29   85 1    
    57   30   31 1    
    58   30   32 1    
    59   30   86 1    
    60   31   87 1    
    61   31   88 1    
    62   31   89 1    
    63   32   33 2    
    64   32   34 am   BACKBONE|DICT|INTERRES
    65   34   35 1    
    66   34   90 1    
    67   35   36 1    
    68   35   37 1    
    69   35   91 1    
    70   36   92 1    
    71   36   93 1    
    72   36   94 1    
    73   37   38 2    
    74   37   39 am   BACKBONE|DICT|INTERRES
    75   39   40 1    
    76   39   95 1    
    77   40   41 1    
    78   40   42 1    
    79   40   96 1    
    80   41   97 1    
    81   41   98 1    
    82   41   99 1    
    83   42   43 2    
    84   42   44 am   BACKBONE|DICT|INTERRES
    85   44   45 1    
    86   44  100 1    
    87   45   46 1    
    88   45   47 1    
    89   45  101 1    
    90   46  102 1    
    91   46  103 1    
    92   46  104 1    
    93   47   48 2    
    94   47   49 am   BACKBONE|DICT|INTERRES
    95   49   50 1    
    96   49  105 1    
    97   50   51 1    
    98   50   52 1    
    99   50  106 1    
   100   51  107 1    
   101   51  108 1    
   102   51  109 1    
   103   52   53 2    
   104   52   54 am   BACKBONE|DICT|INTERRES
   105   54   55 1    
   106   54  110 1    
   107   55   56 1    
   108   55   59 1    
   109   55  111 1    
   110   56   57 am   BACKBONE|DICT|INTERRES
   111   56   58 2    
   112   57  112 1    
   113   57  113 1    
   114   59   60 1    
   115   59  114 1    
   116   59  115 1    
   117   60   61 1    
   118   61  116 1    
   119   61  117 1    
@<TRIPOS>SUBSTRUCTURE
     1 UNK         1 GROUP             0       ****    0 ROOT    
