@<TRIPOS>MOLECULE
3R8
117   119    1
SMALL
USER_CHARGES


@<TRIPOS>ATOM
      1 CA         18.3235  -26.1656  -50.3456 C.3       0 UNK        -0.2013 
      2 C          19.4757  -25.8294  -49.4108 C.2       0 UNK         0.4866 
      3 O          20.5681  -25.5024  -49.8762 O.2       0 UNK        -0.5176 
      4 N          19.2410  -25.9023  -48.0981 N.am      1 UNK        -0.4884 
      5 CA         20.2104  -25.6135  -47.0424 C.3       1 UNK         0.0853 
      6 C6         21.2143  -26.7781  -46.8120 C.3       10 UNK        -0.0849 
      7 S7         20.4291  -28.3767  -46.3950 S.3       10 UNK        -0.2776 
      8 C8         20.7898  -28.4678  -44.6171 C.3       10 UNK         0.0316 
      9 C9         19.7947  -29.3580  -43.8928 C.ar      10 UNK        -0.0863 
     10 C10        20.1445  -30.6566  -43.5154 C.ar      10 UNK        -0.1009 
     11 C11        19.2361  -31.4610  -42.8222 C.ar      10 UNK        -0.0712 
     12 C12        17.9702  -30.9542  -42.5098 C.ar      10 UNK        -0.0894 
     13 C13        17.5967  -29.6615  -42.8937 C.ar      10 UNK        -0.0745 
     14 C14        18.5207  -28.8703  -43.5892 C.ar      10 UNK        -0.0972 
     15 C15        16.1704  -29.1930  -42.5930 C.3       10 UNK         0.0209 
     16 S16        15.9005  -27.3862  -42.6393 S.3       10 UNK        -0.2568 
     17 C17        16.4979  -26.8596  -40.9970 C.3       10 UNK        -0.0983 
     18 CA         17.9775  -26.3907  -40.9834 C.3       3 UNK         0.0876 
     19 N          18.2543  -25.3947  -42.0312 N.am      3 UNK        -0.4424 
     20 C          19.4503  -25.1207  -42.5656 C.2       2 UNK         0.4918 
     21 O          20.5020  -25.6596  -42.2065 O.2       2 UNK        -0.4875 
     22 CA         19.4969  -24.0039  -43.6169 C.3       2 UNK         0.0481 
     23 CB         20.3065  -22.8072  -43.0913 C.3       2 UNK        -0.1831 
     24 N          20.0879  -24.4801  -44.8676 N.am      2 UNK        -0.4498 
     25 C          19.4323  -25.2181  -45.7730 C.2       1 UNK         0.5027 
     26 O          18.2564  -25.5726  -45.6426 O.2       1 UNK        -0.4969 
     27 C          18.4148  -25.8898  -39.5828 C.2       3 UNK         0.5005 
     28 O          17.6545  -25.9755  -38.6164 O.2       3 UNK        -0.5279 
     29 N          19.6352  -25.3548  -39.5113 N.am      4 UNK        -0.4463 
     30 CA         20.3101  -24.8299  -38.3281 C.3       4 UNK         0.0283 
     31 CB         19.9157  -23.3635  -38.0799 C.3       4 UNK        -0.1875 
     32 C          21.8228  -24.9870  -38.5157 C.2       4 UNK         0.4949 
     33 O          22.5016  -25.4446  -37.5970 O.2       4 UNK        -0.5039 
     34 N          22.3131  -24.6694  -39.7258 N.am      5 UNK        -0.4663 
     35 CA         23.6525  -25.0377  -40.1942 C.3       5 UNK         0.0242 
     36 CB         23.9724  -24.2779  -41.4922 C.3       5 UNK        -0.1982 
     37 C          23.7697  -26.5573  -40.4088 C.2       5 UNK         0.5017 
     38 O          24.7764  -27.1470  -40.0137 O.2       5 UNK        -0.5012 
     39 N          22.7091  -27.1498  -40.9820 N.am      6 UNK        -0.4439 
     40 CA         22.5000  -28.5816  -41.2103 C.3       6 UNK         0.0297 
     41 CB         22.3988  -29.3342  -39.8639 C.3       6 UNK        -0.2006 
     42 C          23.5264  -29.1922  -42.1868 C.2       6 UNK         0.4892 
     43 O          24.1352  -28.4687  -42.9787 O.2       6 UNK        -0.5089 
     44 N          23.6596  -30.5202  -42.1495 N.am      7 UNK        -0.4243 
     45 CA         24.5653  -31.3252  -42.9626 C.3       7 UNK         0.0196 
     46 CB         24.0032  -31.4876  -44.3931 C.3       7 UNK        -0.2007 
     47 C          24.7626  -32.6692  -42.2456 C.2       7 UNK         0.5020 
     48 O          24.4669  -32.7780  -41.0518 O.2       7 UNK        -0.5147 
     49 N          25.2204  -33.6900  -42.9800 N.am      8 UNK        -0.4734 
     50 CA         25.2991  -35.0805  -42.5224 C.3       8 UNK         0.0238 
     51 CB         26.3103  -35.8401  -43.4019 C.3       8 UNK        -0.1912 
     52 C          23.9020  -35.7345  -42.5233 C.2       8 UNK         0.5038 
     53 O          23.6303  -36.6109  -43.3463 O.2       8 UNK        -0.5046 
     54 N          23.0301  -35.2560  -41.6273 N.am      9 UNK        -0.4200 
     55 CA         21.6225  -35.6652  -41.4955 C.3       9 UNK         0.0839 
     56 C          21.4010  -37.1239  -40.9977 C.2       9 UNK         0.5513 
     57 N          22.3995  -37.7981  -40.4396 N.am      9 UNK        -0.7519 
     58 O          20.2991  -37.6519  -41.1221 O.2       9 UNK        -0.4960 
     59 C59        20.8095  -34.6693  -40.6247 C.3       10 UNK        -0.0876 
     60 S60        20.9145  -32.9312  -41.1765 S.3       10 UNK        -0.2414 
     61 C61        19.6072  -32.8873  -42.4397 C.3       10 UNK         0.0169 
     62 H62        17.4215  -26.4392  -49.7984 H         1 UNK         0.0903 
     63 H63        18.0903  -25.3091  -50.9777 H         1 UNK         0.0903 
     64 H64        18.5952  -27.0013  -50.9899 H         1 UNK         0.0903 
     65 H65        18.3224  -26.1404  -47.7423 H         1 UNK         0.3096 
     66 H66        20.7764  -24.7298  -47.3470 H         1 UNK         0.1121 
     67 H67        21.9447  -26.5097  -46.0466 H         1 UNK         0.0849 
     68 H68        21.8005  -26.9305  -47.7194 H         1 UNK         0.0849 
     69 H69        21.8080  -28.8341  -44.4886 H         1 UNK         0.0865 
     70 H70        20.7629  -27.4728  -44.1731 H         1 UNK         0.0865 
     71 H71        21.1238  -31.0438  -43.7565 H         1 UNK         0.1346 
     72 H72        17.2607  -31.5792  -41.9845 H         1 UNK         0.1412 
     73 H73        18.2558  -27.8735  -43.9139 H         1 UNK         0.1426 
     74 H74        15.8457  -29.5762  -41.6245 H         1 UNK         0.0716 
     75 H75        15.5108  -29.6459  -43.3342 H         1 UNK         0.0716 
     76 H76        16.3494  -27.6754  -40.2872 H         1 UNK         0.0695 
     77 H77        15.8445  -26.0507  -40.6642 H         1 UNK         0.0695 
     78 H78        18.5933  -27.2687  -41.1904 H         1 UNK         0.0983 
     79 H79        17.4466  -24.8956  -42.3751 H         1 UNK         0.3095 
     80 H80        18.4804  -23.6574  -43.8170 H         1 UNK         0.0454 
     81 H81        21.3474  -23.0699  -42.9003 H         1 UNK         0.0851 
     82 H82        19.8878  -22.4313  -42.1566 H         1 UNK         0.0851 
     83 H83        20.2968  -21.9808  -43.8021 H         1 UNK         0.0851 
     84 H84        21.0594  -24.2516  -45.0225 H         1 UNK         0.2976 
     85 H85        20.1836  -25.3907  -40.3643 H         1 UNK         0.3116 
     86 H86        20.0190  -25.4262  -37.4604 H         1 UNK         0.0646 
     87 H87        20.1585  -22.7269  -38.9313 H         1 UNK         0.0847 
     88 H88        20.4379  -22.9620  -37.2105 H         1 UNK         0.0847 
     89 H89        18.8470  -23.2693  -37.8868 H         1 UNK         0.0847 
     90 H90        21.7063  -24.2366  -40.4054 H         1 UNK         0.3040 
     91 H91        24.3791  -24.7461  -39.4321 H         1 UNK         0.1015 
     92 H92        23.2857  -24.5416  -42.2976 H         1 UNK         0.0786 
     93 H93        24.9807  -24.5104  -41.8376 H         1 UNK         0.0786 
     94 H94        23.9220  -23.1990  -41.3448 H         1 UNK         0.0786 
     95 H95        21.9801  -26.5491  -41.3549 H         1 UNK         0.3172 
     96 H96        21.5286  -28.6584  -41.6988 H         1 UNK         0.0595 
     97 H97        23.3704  -29.4271  -39.3770 H         1 UNK         0.0839 
     98 H98        21.9977  -30.3391  -39.9951 H         1 UNK         0.0839 
     99 H99        21.7305  -28.8188  -39.1739 H         1 UNK         0.0839 
    100 H100       23.1742  -31.0500  -41.4351 H         1 UNK         0.2998 
    101 H101       25.5357  -30.8266  -43.0058 H         1 UNK         0.0822 
    102 H102       23.7431  -30.5262  -44.8361 H         1 UNK         0.0787 
    103 H103       24.7355  -31.9470  -45.0574 H         1 UNK         0.0787 
    104 H104       23.1099  -32.1130  -44.4063 H         1 UNK         0.0787 
    105 H105       25.4145  -33.5286  -43.9581 H         1 UNK         0.3055 
    106 H106       25.6708  -35.1000  -41.4950 H         1 UNK         0.1106 
    107 H107       26.0127  -35.8471  -44.4513 H         1 UNK         0.0828 
    108 H108       26.4013  -36.8792  -43.0823 H         1 UNK         0.0828 
    109 H109       27.3037  -35.3957  -43.3381 H         1 UNK         0.0828 
    110 H110       23.3297  -34.4836  -41.0426 H         1 UNK         0.2931 
    111 H111       21.1987  -35.6304  -42.5010 H         1 UNK         0.0412 
    112 H112       23.3062  -37.3727  -40.3316 H         1 UNK         0.3472 
    113 H113       22.2433  -38.7427  -40.1239 H         1 UNK         0.3472 
    114 H114       19.7579  -34.9604  -40.5862 H         1 UNK         0.0970 
    115 H115       21.1621  -34.7069  -39.5923 H         1 UNK         0.0970 
    116 H116       19.9479  -33.4253  -43.3255 H         1 UNK         0.0612 
    117 H117       18.7291  -33.4200  -42.0717 H         1 UNK         0.0612 
@<TRIPOS>BOND
     1    1    2 1    
     2    1   62 1    
     3    1   63 1    
     4    1   64 1    
     5    2    3 2    
     6    2    4 am   BACKBONE|DICT|INTERRES
     7    4    5 1    
     8    4   65 1    
     9    5    6 1    
    10    5   25 1    
    11    5   66 1    
    12    6    7 1    
    13    6   67 1    
    14    6   68 1    
    15    7    8 1    
    16    8    9 1    
    17    8   69 1    
    18    8   70 1    
    19    9   10 ar   
    20    9   14 ar   
    21   10   11 ar   
    22   10   71 1    
    23   11   12 ar   
    24   11   61 1    
    25   12   13 ar   
    26   12   72 1    
    27   13   14 ar   
    28   13   15 1    
    29   14   73 1    
    30   15   16 1    
    31   15   74 1    
    32   15   75 1    
    33   16   17 1    
    34   17   18 1    
    35   17   76 1    
    36   17   77 1    
    37   18   19 1    
    38   18   27 1    
    39   18   78 1    
    40   19   20 am   BACKBONE|DICT|INTERRES
    41   19   79 1    
    42   20   21 2    
    43   20   22 1    
    44   22   23 1    
    45   22   24 1    
    46   22   80 1    
    47   23   81 1    
    48   23   82 1    
    49   23   83 1    
    50   24   25 am   BACKBONE|DICT|INTERRES
    51   24   84 1    
    52   25   26 2    
    53   27   28 2    
    54   27   29 am   BACKBONE|DICT|INTERRES
    55   29   30 1    
    56   29   85 1    
    57   30   31 1    
    58   30   32 1    
    59   30   86 1    
    60   31   87 1    
    61   31   88 1    
    62   31   89 1    
    63   32   33 2    
    64   32   34 am   BACKBONE|DICT|INTERRES
    65   34   35 1    
    66   34   90 1    
    67   35   36 1    
    68   35   37 1    
    69   35   91 1    
    70   36   92 1    
    71   36   93 1    
    72   36   94 1    
    73   37   38 2    
    74   37   39 am   BACKBONE|DICT|INTERRES
    75   39   40 1    
    76   39   95 1    
    77   40   41 1    
    78   40   42 1    
    79   40   96 1    
    80   41   97 1    
    81   41   98 1    
    82   41   99 1    
    83   42   43 2    
    84   42   44 am   BACKBONE|DICT|INTERRES
    85   44   45 1    
    86   44  100 1    
    87   45   46 1    
    88   45   47 1    
    89   45  101 1    
    90   46  102 1    
    91   46  103 1    
    92   46  104 1    
    93   47   48 2    
    94   47   49 am   BACKBONE|DICT|INTERRES
    95   49   50 1    
    96   49  105 1    
    97   50   51 1    
    98   50   52 1    
    99   50  106 1    
   100   51  107 1    
   101   51  108 1    
   102   51  109 1    
   103   52   53 2    
   104   52   54 am   BACKBONE|DICT|INTERRES
   105   54   55 1    
   106   54  110 1    
   107   55   56 1    
   108   55   59 1    
   109   55  111 1    
   110   56   57 am   BACKBONE|DICT|INTERRES
   111   56   58 2    
   112   57  112 1    
   113   57  113 1    
   114   59   60 1    
   115   59  114 1    
   116   59  115 1    
   117   60   61 1    
   118   61  116 1    
   119   61  117 1    
@<TRIPOS>SUBSTRUCTURE
     1 UNK         1 GROUP             0       ****    0 ROOT    
