@<TRIPOS>MOLECULE
3R8
117   119    1
SMALL
USER_CHARGES


@<TRIPOS>ATOM
      1 CA         23.9188  -32.3297  -45.7390 C.3       0 UNK        -0.2013 
      2 C          22.7464  -31.5389  -45.1789 C.2       0 UNK         0.4866 
      3 O          22.3471  -31.7682  -44.0372 O.2       0 UNK        -0.5176 
      4 N          22.1974  -30.6126  -45.9706 N.am      1 UNK        -0.4884 
      5 CA         21.0682  -29.7577  -45.5944 C.3       1 UNK         0.0853 
      6 C6         20.0163  -29.6623  -46.7344 C.3       10 UNK        -0.0849 
      7 S7         19.2156  -31.2837  -47.0028 S.3       10 UNK        -0.2776 
      8 C8         17.4887  -30.9952  -46.4753 C.3       10 UNK         0.0316 
      9 C9         17.3597  -30.2804  -45.1328 C.ar      10 UNK        -0.0863 
     10 C10        18.0267  -30.7501  -43.9975 C.ar      10 UNK        -0.1009 
     11 C11        17.9348  -30.0643  -42.7820 C.ar      10 UNK        -0.0712 
     12 C12        17.1344  -28.9212  -42.6937 C.ar      10 UNK        -0.0894 
     13 C13        16.4507  -28.4505  -43.8183 C.ar      10 UNK        -0.0745 
     14 C14        16.5685  -29.1328  -45.0323 C.ar      10 UNK        -0.0972 
     15 C15        15.5841  -27.2040  -43.7394 C.3       10 UNK         0.0209 
     16 S16        16.4517  -25.7583  -44.4256 S.3       10 UNK        -0.2568 
     17 C17        17.1935  -25.0026  -42.9392 C.3       10 UNK        -0.0983 
     18 CA         18.6410  -25.4660  -42.6331 C.3       3 UNK         0.0876 
     19 N          19.5019  -25.4286  -43.8276 N.am      3 UNK        -0.4424 
     20 C          20.8219  -25.6514  -43.8856 C.2       2 UNK         0.4918 
     21 O          21.5544  -25.7270  -42.9013 O.2       2 UNK        -0.4875 
     22 CA         21.4072  -25.8997  -45.2847 C.3       2 UNK         0.0481 
     23 CB         22.9035  -25.5301  -45.3720 C.3       2 UNK        -0.1831 
     24 N          21.1755  -27.2919  -45.6921 N.am      2 UNK        -0.4498 
     25 C          21.6052  -28.4082  -45.0762 C.2       1 UNK         0.5027 
     26 O          22.3802  -28.4126  -44.1154 O.2       1 UNK        -0.4969 
     27 C          19.1656  -24.7033  -41.3963 C.2       3 UNK         0.5005 
     28 O          18.9567  -25.1638  -40.2732 O.2       3 UNK        -0.5279 
     29 N          19.8306  -23.5602  -41.6189 N.am      4 UNK        -0.4463 
     30 CA         20.4378  -22.7322  -40.5723 C.3       4 UNK         0.0283 
     31 CB         20.7976  -21.3586  -41.1614 C.3       4 UNK        -0.1875 
     32 C          21.6762  -23.3715  -39.9149 C.2       4 UNK         0.4949 
     33 O          21.9714  -23.0530  -38.7627 O.2       4 UNK        -0.5039 
     34 N          22.3789  -24.2413  -40.6509 N.am      5 UNK        -0.4663 
     35 CA         23.5556  -24.9762  -40.1886 C.3       5 UNK         0.0242 
     36 CB         24.6230  -24.9753  -41.2967 C.3       5 UNK        -0.1982 
     37 C          23.1957  -26.4161  -39.7961 C.2       5 UNK         0.5017 
     38 O          23.6769  -26.8836  -38.7639 O.2       5 UNK        -0.5012 
     39 N          22.3696  -27.0794  -40.6242 N.am      6 UNK        -0.4439 
     40 CA         21.9620  -28.4887  -40.5555 C.3       6 UNK         0.0297 
     41 CB         21.0590  -28.7386  -39.3295 C.3       6 UNK        -0.2006 
     42 C          23.1907  -29.4148  -40.6006 C.2       6 UNK         0.4892 
     43 O          23.5334  -30.0359  -39.5927 O.2       6 UNK        -0.5089 
     44 N          23.8690  -29.4218  -41.7578 N.am      7 UNK        -0.4243 
     45 CA         25.2018  -30.0067  -41.9524 C.3       7 UNK         0.0196 
     46 CB         25.7020  -29.6769  -43.3676 C.3       7 UNK        -0.2007 
     47 C          25.3091  -31.5146  -41.6561 C.2       7 UNK         0.5020 
     48 O          26.3516  -31.9557  -41.1704 O.2       7 UNK        -0.5147 
     49 N          24.2391  -32.2691  -41.9238 N.am      8 UNK        -0.4734 
     50 CA         24.0976  -33.6797  -41.5566 C.3       8 UNK         0.0238 
     51 CB         24.5860  -34.5846  -42.7013 C.3       8 UNK        -0.1912 
     52 C          22.6473  -34.0009  -41.1744 C.2       8 UNK         0.5038 
     53 O          22.4238  -34.6759  -40.1687 O.2       8 UNK        -0.5046 
     54 N          21.6954  -33.4897  -41.9659 N.am      9 UNK        -0.4200 
     55 CA         20.2462  -33.6731  -41.8266 C.3       9 UNK         0.0839 
     56 C          19.7666  -35.1459  -42.0042 C.2       9 UNK         0.5513 
     57 N          18.5259  -35.4502  -41.6482 N.am      9 UNK        -0.7519 
     58 O          20.4859  -36.0068  -42.5075 O.2       9 UNK        -0.4960 
     59 C59        19.6855  -32.9551  -40.5608 C.3       10 UNK        -0.0876 
     60 S60        18.1111  -32.1028  -40.9105 S.3       10 UNK        -0.2414 
     61 C61        18.7415  -30.5339  -41.5830 C.3       10 UNK         0.0169 
     62 H62        23.6155  -33.3579  -45.9331 H         1 UNK         0.0903 
     63 H63        24.2907  -31.9022  -46.6697 H         1 UNK         0.0903 
     64 H64        24.7403  -32.3469  -45.0235 H         1 UNK         0.0903 
     65 H65        22.5826  -30.4515  -46.8902 H         1 UNK         0.3096 
     66 H66        20.5645  -30.1903  -44.7292 H         1 UNK         0.1121 
     67 H67        19.2446  -28.9249  -46.5086 H         1 UNK         0.0849 
     68 H68        20.4814  -29.3454  -47.6697 H         1 UNK         0.0849 
     69 H69        16.9838  -30.4306  -47.2607 H         1 UNK         0.0865 
     70 H70        16.9749  -31.9553  -46.4134 H         1 UNK         0.0865 
     71 H71        18.6428  -31.6356  -44.0687 H         1 UNK         0.1346 
     72 H72        17.0539  -28.3905  -41.7548 H         1 UNK         0.1412 
     73 H73        16.0458  -28.7592  -45.9026 H         1 UNK         0.1426 
     74 H74        15.2634  -27.0132  -42.7144 H         1 UNK         0.0716 
     75 H75        14.6705  -27.3654  -44.3135 H         1 UNK         0.0716 
     76 H76        16.5428  -25.1865  -42.0821 H         1 UNK         0.0695 
     77 H77        17.1734  -23.9223  -43.0973 H         1 UNK         0.0695 
     78 H78        18.6011  -26.5160  -42.3405 H         1 UNK         0.0983 
     79 H79        18.9918  -25.3860  -44.6985 H         1 UNK         0.3095 
     80 H80        20.8678  -25.2649  -45.9892 H         1 UNK         0.0454 
     81 H81        23.5175  -26.1190  -44.6901 H         1 UNK         0.0851 
     82 H82        23.0584  -24.4812  -45.1171 H         1 UNK         0.0851 
     83 H83        23.2893  -25.6800  -46.3800 H         1 UNK         0.0851 
     84 H84        20.5492  -27.4051  -46.4763 H         1 UNK         0.2976 
     85 H85        19.9562  -23.2587  -42.5747 H         1 UNK         0.3116 
     86 H86        19.6932  -22.5804  -39.7878 H         1 UNK         0.0646 
     87 H87        21.5316  -21.4421  -41.9639 H         1 UNK         0.0847 
     88 H88        21.2244  -20.7069  -40.3977 H         1 UNK         0.0847 
     89 H89        19.9178  -20.8530  -41.5597 H         1 UNK         0.0847 
     90 H90        22.0252  -24.4982  -41.5680 H         1 UNK         0.3040 
     91 H91        23.9823  -24.4872  -39.3097 H         1 UNK         0.1015 
     92 H92        24.2635  -25.4513  -42.2101 H         1 UNK         0.0786 
     93 H93        25.5160  -25.5148  -40.9781 H         1 UNK         0.0786 
     94 H94        24.9300  -23.9600  -41.5481 H         1 UNK         0.0786 
     95 H95        22.0692  -26.5893  -41.4667 H         1 UNK         0.3172 
     96 H96        21.3724  -28.6893  -41.4515 H         1 UNK         0.0595 
     97 H97        21.5775  -28.5369  -38.3918 H         1 UNK         0.0839 
     98 H98        20.7271  -29.7766  -39.2949 H         1 UNK         0.0839 
     99 H99        20.1693  -28.1094  -39.3603 H         1 UNK         0.0839 
    100 H100       23.4703  -28.9251  -42.5512 H         1 UNK         0.2998 
    101 H101       25.8662  -29.5072  -41.2441 H         1 UNK         0.0822 
    102 H102       25.8101  -28.6008  -43.5053 H         1 UNK         0.0787 
    103 H103       26.6773  -30.1274  -43.5568 H         1 UNK         0.0787 
    104 H104       25.0174  -30.0391  -44.1327 H         1 UNK         0.0787 
    105 H105       23.4384  -31.8286  -42.3661 H         1 UNK         0.3055 
    106 H106       24.7076  -33.8817  -40.6727 H         1 UNK         0.1106 
    107 H107       24.5061  -35.6368  -42.4252 H         1 UNK         0.0828 
    108 H108       23.9985  -34.4411  -43.6082 H         1 UNK         0.0828 
    109 H109       25.6310  -34.3906  -42.9429 H         1 UNK         0.0828 
    110 H110       21.9753  -32.9601  -42.7897 H         1 UNK         0.2931 
    111 H111       19.8622  -33.1625  -42.7098 H         1 UNK         0.0412 
    112 H112       17.9161  -34.7422  -41.2668 H         1 UNK         0.3472 
    113 H113       18.1914  -36.3930  -41.7734 H         1 UNK         0.3472 
    114 H114       20.3923  -32.2129  -40.1858 H         1 UNK         0.0970 
    115 H115       19.5480  -33.6543  -39.7339 H         1 UNK         0.0970 
    116 H116       18.7318  -29.7843  -40.7912 H         1 UNK         0.0612 
    117 H117       19.7821  -30.6434  -41.8928 H         1 UNK         0.0612 
@<TRIPOS>BOND
     1    1    2 1    
     2    1   62 1    
     3    1   63 1    
     4    1   64 1    
     5    2    3 2    
     6    2    4 am   BACKBONE|DICT|INTERRES
     7    4    5 1    
     8    4   65 1    
     9    5    6 1    
    10    5   25 1    
    11    5   66 1    
    12    6    7 1    
    13    6   67 1    
    14    6   68 1    
    15    7    8 1    
    16    8    9 1    
    17    8   69 1    
    18    8   70 1    
    19    9   10 ar   
    20    9   14 ar   
    21   10   11 ar   
    22   10   71 1    
    23   11   12 ar   
    24   11   61 1    
    25   12   13 ar   
    26   12   72 1    
    27   13   14 ar   
    28   13   15 1    
    29   14   73 1    
    30   15   16 1    
    31   15   74 1    
    32   15   75 1    
    33   16   17 1    
    34   17   18 1    
    35   17   76 1    
    36   17   77 1    
    37   18   19 1    
    38   18   27 1    
    39   18   78 1    
    40   19   20 am   BACKBONE|DICT|INTERRES
    41   19   79 1    
    42   20   21 2    
    43   20   22 1    
    44   22   23 1    
    45   22   24 1    
    46   22   80 1    
    47   23   81 1    
    48   23   82 1    
    49   23   83 1    
    50   24   25 am   BACKBONE|DICT|INTERRES
    51   24   84 1    
    52   25   26 2    
    53   27   28 2    
    54   27   29 am   BACKBONE|DICT|INTERRES
    55   29   30 1    
    56   29   85 1    
    57   30   31 1    
    58   30   32 1    
    59   30   86 1    
    60   31   87 1    
    61   31   88 1    
    62   31   89 1    
    63   32   33 2    
    64   32   34 am   BACKBONE|DICT|INTERRES
    65   34   35 1    
    66   34   90 1    
    67   35   36 1    
    68   35   37 1    
    69   35   91 1    
    70   36   92 1    
    71   36   93 1    
    72   36   94 1    
    73   37   38 2    
    74   37   39 am   BACKBONE|DICT|INTERRES
    75   39   40 1    
    76   39   95 1    
    77   40   41 1    
    78   40   42 1    
    79   40   96 1    
    80   41   97 1    
    81   41   98 1    
    82   41   99 1    
    83   42   43 2    
    84   42   44 am   BACKBONE|DICT|INTERRES
    85   44   45 1    
    86   44  100 1    
    87   45   46 1    
    88   45   47 1    
    89   45  101 1    
    90   46  102 1    
    91   46  103 1    
    92   46  104 1    
    93   47   48 2    
    94   47   49 am   BACKBONE|DICT|INTERRES
    95   49   50 1    
    96   49  105 1    
    97   50   51 1    
    98   50   52 1    
    99   50  106 1    
   100   51  107 1    
   101   51  108 1    
   102   51  109 1    
   103   52   53 2    
   104   52   54 am   BACKBONE|DICT|INTERRES
   105   54   55 1    
   106   54  110 1    
   107   55   56 1    
   108   55   59 1    
   109   55  111 1    
   110   56   57 am   BACKBONE|DICT|INTERRES
   111   56   58 2    
   112   57  112 1    
   113   57  113 1    
   114   59   60 1    
   115   59  114 1    
   116   59  115 1    
   117   60   61 1    
   118   61  116 1    
   119   61  117 1    
@<TRIPOS>SUBSTRUCTURE
     1 UNK         1 GROUP             0       ****    0 ROOT    
