@<TRIPOS>MOLECULE
3R8
117   119    1
SMALL
USER_CHARGES


@<TRIPOS>ATOM
      1 CA         16.2520  -23.6330  -40.0707 C.3       0 UNK        -0.2013 
      2 C          16.4320  -24.2465  -41.4513 C.2       0 UNK         0.4866 
      3 O          15.6948  -23.9017  -42.3758 O.2       0 UNK        -0.5176 
      4 N          17.3992  -25.1605  -41.5964 N.am      1 UNK        -0.4884 
      5 CA         17.7454  -25.8186  -42.8601 C.3       1 UNK         0.0853 
      6 C6         18.6702  -27.0402  -42.6354 C.3       10 UNK        -0.0849 
      7 S7         17.8593  -28.3891  -41.7102 S.3       10 UNK        -0.2776 
      8 C8         16.8874  -29.2348  -43.0049 C.3       10 UNK         0.0316 
      9 C9         17.7658  -29.8582  -44.0814 C.ar      10 UNK        -0.0863 
     10 C10        18.3758  -31.0964  -43.8631 C.ar      10 UNK        -0.1009 
     11 C11        19.2064  -31.6626  -44.8361 C.ar      10 UNK        -0.0712 
     12 C12        19.4070  -30.9855  -46.0432 C.ar      10 UNK        -0.0894 
     13 C13        18.8002  -29.7465  -46.2761 C.ar      10 UNK        -0.0745 
     14 C14        17.9681  -29.1976  -45.2965 C.ar      10 UNK        -0.0972 
     15 C15        19.0458  -28.9844  -47.5745 C.3       10 UNK         0.0209 
     16 S16        20.8118  -28.8050  -48.0116 S.3       10 UNK        -0.2568 
     17 C17        21.5968  -28.2434  -46.4612 C.3       10 UNK        -0.0983 
     18 CA         21.7273  -26.7053  -46.3637 C.3       3 UNK         0.0876 
     19 N          20.4217  -26.0566  -46.2551 N.am      3 UNK        -0.4424 
     20 C          20.1796  -24.7666  -46.5206 C.2       2 UNK         0.4918 
     21 O          21.0193  -23.9899  -46.9767 O.2       2 UNK        -0.4875 
     22 CA         18.7557  -24.2557  -46.2303 C.3       2 UNK         0.0481 
     23 CB         17.8865  -24.3525  -47.4944 C.3       2 UNK        -0.1831 
     24 N          18.1051  -24.9840  -45.1359 N.am      2 UNK        -0.4498 
     25 C          18.4156  -24.8342  -43.8396 C.2       1 UNK         0.5027 
     26 O          19.2229  -24.0027  -43.4169 O.2       1 UNK        -0.4969 
     27 C          22.5916  -26.3391  -45.1436 C.2       3 UNK         0.5005 
     28 O          22.0750  -26.2727  -44.0250 O.2       3 UNK        -0.5279 
     29 N          23.9029  -26.1824  -45.3714 N.am      4 UNK        -0.4463 
     30 CA         24.9060  -25.8820  -44.3423 C.3       4 UNK         0.0283 
     31 CB         26.2183  -25.4664  -45.0280 C.3       4 UNK        -0.1875 
     32 C          25.1604  -27.0323  -43.3477 C.2       4 UNK         0.4949 
     33 O          25.7541  -26.7889  -42.2972 O.2       4 UNK        -0.5039 
     34 N          24.7211  -28.2535  -43.6905 N.am      5 UNK        -0.4663 
     35 CA         24.7970  -29.4530  -42.8510 C.3       5 UNK         0.0242 
     36 CB         24.2828  -30.6633  -43.6492 C.3       5 UNK        -0.1982 
     37 C          24.0274  -29.3100  -41.5270 C.2       5 UNK         0.5017 
     38 O          24.5567  -29.6912  -40.4821 O.2       5 UNK        -0.5012 
     39 N          22.8148  -28.7378  -41.6055 N.am      6 UNK        -0.4439 
     40 CA         21.9068  -28.4014  -40.5036 C.3       6 UNK         0.0297 
     41 CB         22.3457  -27.0668  -39.8627 C.3       6 UNK        -0.2006 
     42 C          21.7262  -29.5526  -39.4944 C.2       6 UNK         0.4892 
     43 O          21.0761  -30.5446  -39.8233 O.2       6 UNK        -0.5089 
     44 N          22.3298  -29.4189  -38.3046 N.am      7 UNK        -0.4243 
     45 CA         22.3095  -30.3997  -37.2159 C.3       7 UNK         0.0196 
     46 CB         23.0461  -29.8160  -35.9998 C.3       7 UNK        -0.2007 
     47 C          22.8878  -31.7796  -37.5807 C.2       7 UNK         0.5020 
     48 O          22.4915  -32.7687  -36.9636 O.2       7 UNK        -0.5147 
     49 N          23.7747  -31.8487  -38.5862 N.am      8 UNK        -0.4734 
     50 CA         24.3246  -33.1061  -39.1090 C.3       8 UNK         0.0238 
     51 CB         25.5001  -32.8080  -40.0529 C.3       8 UNK        -0.1912 
     52 C          23.2759  -33.9920  -39.8091 C.2       8 UNK         0.5038 
     53 O          23.4865  -35.2022  -39.9011 O.2       8 UNK        -0.5046 
     54 N          22.1667  -33.3907  -40.2604 N.am      9 UNK        -0.4200 
     55 CA         20.9810  -34.0948  -40.7691 C.3       9 UNK         0.0839 
     56 C          20.0447  -34.6337  -39.6460 C.2       9 UNK         0.5513 
     57 N          20.2998  -34.3812  -38.3665 N.am      9 UNK        -0.7519 
     58 O          19.0658  -35.3136  -39.9431 O.2       9 UNK        -0.4960 
     59 C59        20.2004  -33.2252  -41.7883 C.3       10 UNK        -0.0876 
     60 S60        21.1704  -32.8923  -43.3001 S.3       10 UNK        -0.2414 
     61 C61        19.8891  -33.0026  -44.5924 C.3       10 UNK         0.0169 
     62 H62        15.2447  -23.8259  -39.7028 H         1 UNK         0.0903 
     63 H63        16.9601  -24.0388  -39.3483 H         1 UNK         0.0903 
     64 H64        16.3970  -22.5541  -40.1182 H         1 UNK         0.0903 
     65 H65        17.9800  -25.4019  -40.8064 H         1 UNK         0.3096 
     66 H66        16.8144  -26.1632  -43.3153 H         1 UNK         0.1121 
     67 H67        19.5576  -26.7316  -42.0800 H         1 UNK         0.0849 
     68 H68        19.0533  -27.4361  -43.5756 H         1 UNK         0.0849 
     69 H69        16.1760  -28.5350  -43.4453 H         1 UNK         0.0865 
     70 H70        16.2849  -30.0137  -42.5349 H         1 UNK         0.0865 
     71 H71        18.2129  -31.6102  -42.9269 H         1 UNK         0.1346 
     72 H72        20.0513  -31.4127  -46.7995 H         1 UNK         0.1412 
     73 H73        17.4861  -28.2465  -45.4725 H         1 UNK         0.1426 
     74 H74        18.6024  -27.9890  -47.5289 H         1 UNK         0.0716 
     75 H75        18.5375  -29.5052  -48.3869 H         1 UNK         0.0716 
     76 H76        22.5852  -28.7068  -46.4420 H         1 UNK         0.0695 
     77 H77        21.0736  -28.6438  -45.5920 H         1 UNK         0.0695 
     78 H78        22.2216  -26.3373  -47.2660 H         1 UNK         0.0983 
     79 H79        19.6878  -26.6104  -45.8463 H         1 UNK         0.3095 
     80 H80        18.8297  -23.2027  -45.9500 H         1 UNK         0.0454 
     81 H81        17.7669  -25.3836  -47.8291 H         1 UNK         0.0851 
     82 H82        18.3345  -23.7944  -48.3178 H         1 UNK         0.0851 
     83 H83        16.8935  -23.9352  -47.3269 H         1 UNK         0.0851 
     84 H84        17.3953  -25.6518  -45.3997 H         1 UNK         0.2976 
     85 H85        24.2471  -26.2697  -46.3177 H         1 UNK         0.3116 
     86 H86        24.5423  -25.0319  -43.7609 H         1 UNK         0.0646 
     87 H87        26.6297  -26.2724  -45.6370 H         1 UNK         0.0847 
     88 H88        26.9764  -25.1976  -44.2909 H         1 UNK         0.0847 
     89 H89        26.0747  -24.5973  -45.6703 H         1 UNK         0.0847 
     90 H90        24.2728  -28.3549  -44.5881 H         1 UNK         0.3040 
     91 H91        25.8472  -29.6218  -42.6028 H         1 UNK         0.1015 
     92 H92        24.8938  -30.8443  -44.5336 H         1 UNK         0.0786 
     93 H93        23.2513  -30.5258  -43.9770 H         1 UNK         0.0786 
     94 H94        24.3094  -31.5733  -43.0489 H         1 UNK         0.0786 
     95 H95        22.4971  -28.4592  -42.5236 H         1 UNK         0.3172 
     96 H96        20.9258  -28.2465  -40.9515 H         1 UNK         0.0595 
     97 H97        23.3650  -27.1094  -39.4769 H         1 UNK         0.0839 
     98 H98        21.6845  -26.7819  -39.0430 H         1 UNK         0.0839 
     99 H99        22.3102  -26.2586  -40.5940 H         1 UNK         0.0839 
    100 H100       22.8754  -28.5843  -38.1470 H         1 UNK         0.2998 
    101 H101       21.2640  -30.5551  -36.9414 H         1 UNK         0.0822 
    102 H102       22.5840  -28.8882  -35.6617 H         1 UNK         0.0787 
    103 H103       23.0240  -30.5110  -35.1590 H         1 UNK         0.0787 
    104 H104       24.0934  -29.6094  -36.2242 H         1 UNK         0.0787 
    105 H105       24.0356  -30.9961  -39.0757 H         1 UNK         0.3055 
    106 H106       24.7089  -33.6770  -38.2606 H         1 UNK         0.1106 
    107 H107       25.9793  -33.7313  -40.3813 H         1 UNK         0.0828 
    108 H108       26.2629  -32.2035  -39.5619 H         1 UNK         0.0828 
    109 H109       25.1748  -32.2772  -40.9465 H         1 UNK         0.0828 
    110 H110       22.0552  -32.3927  -40.1218 H         1 UNK         0.2931 
    111 H111       21.3235  -34.9823  -41.3049 H         1 UNK         0.0412 
    112 H112       19.6787  -34.7496  -37.6636 H         1 UNK         0.3472 
    113 H113       21.1053  -33.8357  -38.0847 H         1 UNK         0.3472 
    114 H114       19.2725  -33.7242  -42.0718 H         1 UNK         0.0970 
    115 H115       19.9045  -32.2760  -41.3406 H         1 UNK         0.0970 
    116 H116       20.3677  -33.3524  -45.5083 H         1 UNK         0.0612 
    117 H117       19.1457  -33.7589  -44.3386 H         1 UNK         0.0612 
@<TRIPOS>BOND
     1    1    2 1    
     2    1   62 1    
     3    1   63 1    
     4    1   64 1    
     5    2    3 2    
     6    2    4 am   BACKBONE|DICT|INTERRES
     7    4    5 1    
     8    4   65 1    
     9    5    6 1    
    10    5   25 1    
    11    5   66 1    
    12    6    7 1    
    13    6   67 1    
    14    6   68 1    
    15    7    8 1    
    16    8    9 1    
    17    8   69 1    
    18    8   70 1    
    19    9   10 ar   
    20    9   14 ar   
    21   10   11 ar   
    22   10   71 1    
    23   11   12 ar   
    24   11   61 1    
    25   12   13 ar   
    26   12   72 1    
    27   13   14 ar   
    28   13   15 1    
    29   14   73 1    
    30   15   16 1    
    31   15   74 1    
    32   15   75 1    
    33   16   17 1    
    34   17   18 1    
    35   17   76 1    
    36   17   77 1    
    37   18   19 1    
    38   18   27 1    
    39   18   78 1    
    40   19   20 am   BACKBONE|DICT|INTERRES
    41   19   79 1    
    42   20   21 2    
    43   20   22 1    
    44   22   23 1    
    45   22   24 1    
    46   22   80 1    
    47   23   81 1    
    48   23   82 1    
    49   23   83 1    
    50   24   25 am   BACKBONE|DICT|INTERRES
    51   24   84 1    
    52   25   26 2    
    53   27   28 2    
    54   27   29 am   BACKBONE|DICT|INTERRES
    55   29   30 1    
    56   29   85 1    
    57   30   31 1    
    58   30   32 1    
    59   30   86 1    
    60   31   87 1    
    61   31   88 1    
    62   31   89 1    
    63   32   33 2    
    64   32   34 am   BACKBONE|DICT|INTERRES
    65   34   35 1    
    66   34   90 1    
    67   35   36 1    
    68   35   37 1    
    69   35   91 1    
    70   36   92 1    
    71   36   93 1    
    72   36   94 1    
    73   37   38 2    
    74   37   39 am   BACKBONE|DICT|INTERRES
    75   39   40 1    
    76   39   95 1    
    77   40   41 1    
    78   40   42 1    
    79   40   96 1    
    80   41   97 1    
    81   41   98 1    
    82   41   99 1    
    83   42   43 2    
    84   42   44 am   BACKBONE|DICT|INTERRES
    85   44   45 1    
    86   44  100 1    
    87   45   46 1    
    88   45   47 1    
    89   45  101 1    
    90   46  102 1    
    91   46  103 1    
    92   46  104 1    
    93   47   48 2    
    94   47   49 am   BACKBONE|DICT|INTERRES
    95   49   50 1    
    96   49  105 1    
    97   50   51 1    
    98   50   52 1    
    99   50  106 1    
   100   51  107 1    
   101   51  108 1    
   102   51  109 1    
   103   52   53 2    
   104   52   54 am   BACKBONE|DICT|INTERRES
   105   54   55 1    
   106   54  110 1    
   107   55   56 1    
   108   55   59 1    
   109   55  111 1    
   110   56   57 am   BACKBONE|DICT|INTERRES
   111   56   58 2    
   112   57  112 1    
   113   57  113 1    
   114   59   60 1    
   115   59  114 1    
   116   59  115 1    
   117   60   61 1    
   118   61  116 1    
   119   61  117 1    
@<TRIPOS>SUBSTRUCTURE
     1 UNK         1 GROUP             0       ****    0 ROOT    
