@<TRIPOS>MOLECULE
3R8
117   119    1
SMALL
USER_CHARGES


@<TRIPOS>ATOM
      1 CA         22.7076  -28.1823  -48.7277 C.3       0 UNK        -0.2013 
      2 C          21.3191  -28.0283  -48.1257 C.2       0 UNK         0.4866 
      3 O          20.4248  -28.8135  -48.4392 O.2       0 UNK        -0.5176 
      4 N          21.1343  -27.0253  -47.2628 N.am      1 UNK        -0.4884 
      5 CA         19.9094  -26.7626  -46.5107 C.3       1 UNK         0.0853 
      6 C6         18.8000  -26.1164  -47.3799 C.3       10 UNK        -0.0849 
      7 S7         17.1211  -26.4406  -46.7434 S.3       10 UNK        -0.2776 
      8 C8         16.8451  -28.1710  -47.2551 C.3       10 UNK         0.0316 
      9 C9         17.0394  -29.1595  -46.1092 C.ar      10 UNK        -0.0863 
     10 C10        17.9774  -30.1946  -46.2051 C.ar      10 UNK        -0.1009 
     11 C11        18.0865  -31.1546  -45.1908 C.ar      10 UNK        -0.0712 
     12 C12        17.2611  -31.0606  -44.0670 C.ar      10 UNK        -0.0894 
     13 C13        16.3440  -30.0157  -43.9448 C.ar      10 UNK        -0.0745 
     14 C14        16.2294  -29.0761  -44.9726 C.ar      10 UNK        -0.0972 
     15 C15        15.4570  -29.9124  -42.7156 C.3       10 UNK         0.0209 
     16 S16        15.9986  -28.5674  -41.6195 S.3       10 UNK        -0.2568 
     17 C17        17.4713  -29.2770  -40.7970 C.3       10 UNK        -0.0983 
     18 CA         18.8403  -28.7855  -41.3539 C.3       3 UNK         0.0876 
     19 N          18.8071  -27.3776  -41.7608 N.am      3 UNK        -0.4424 
     20 C          19.8189  -26.6192  -42.2022 C.2       2 UNK         0.4918 
     21 O          21.0129  -26.9152  -42.1335 O.2       2 UNK        -0.4875 
     22 CA         19.3720  -25.3646  -42.9697 C.3       2 UNK         0.0481 
     23 CB         20.2407  -24.1205  -42.6942 C.3       2 UNK        -0.1831 
     24 N          19.2762  -25.7118  -44.3931 N.am      2 UNK        -0.4498 
     25 C          20.2771  -25.9506  -45.2539 C.2       1 UNK         0.5027 
     26 O          21.4491  -25.6017  -45.0838 O.2       1 UNK        -0.4969 
     27 C          19.9699  -29.1278  -40.3643 C.2       3 UNK         0.5005 
     28 O          20.7758  -30.0177  -40.6385 O.2       3 UNK        -0.5279 
     29 N          19.9978  -28.4174  -39.2307 N.am      4 UNK        -0.4463 
     30 CA         20.9654  -28.6166  -38.1555 C.3       4 UNK         0.0283 
     31 CB         20.3158  -28.2307  -36.8169 C.3       4 UNK        -0.1875 
     32 C          22.2247  -27.7758  -38.3943 C.2       4 UNK         0.4949 
     33 O          22.1189  -26.6316  -38.8407 O.2       4 UNK        -0.5039 
     34 N          23.3825  -28.3508  -38.0422 N.am      5 UNK        -0.4663 
     35 CA         24.7385  -27.7790  -38.0283 C.3       5 UNK         0.0242 
     36 CB         24.8374  -26.6122  -37.0256 C.3       5 UNK        -0.1982 
     37 C          25.3094  -27.3719  -39.3992 C.2       5 UNK         0.5017 
     38 O          26.4420  -27.7454  -39.7039 O.2       5 UNK        -0.5012 
     39 N          24.5405  -26.6073  -40.1829 N.am      6 UNK        -0.4439 
     40 CA         24.9103  -26.1075  -41.5063 C.3       6 UNK         0.0297 
     41 CB         23.9780  -24.9547  -41.9076 C.3       6 UNK        -0.2006 
     42 C          24.9303  -27.2359  -42.5467 C.2       6 UNK         0.4892 
     43 O          26.0058  -27.5738  -43.0435 O.2       6 UNK        -0.5089 
     44 N          23.7584  -27.8204  -42.8353 N.am      7 UNK        -0.4243 
     45 CA         23.6507  -29.0154  -43.6777 C.3       7 UNK         0.0196 
     46 CB         22.2333  -29.1194  -44.2530 C.3       7 UNK        -0.2007 
     47 C          24.0205  -30.2979  -42.9140 C.2       7 UNK         0.5020 
     48 O          24.5285  -31.2348  -43.5302 O.2       7 UNK        -0.5147 
     49 N          23.7682  -30.3047  -41.5946 N.am      8 UNK        -0.4734 
     50 CA         23.9889  -31.4071  -40.6484 C.3       8 UNK         0.0238 
     51 CB         25.4970  -31.6736  -40.4588 C.3       8 UNK        -0.1912 
     52 C          23.1852  -32.6701  -41.0188 C.2       8 UNK         0.5038 
     53 O          23.7185  -33.7813  -40.9958 O.2       8 UNK        -0.5046 
     54 N          21.9104  -32.4579  -41.3609 N.am      9 UNK        -0.4200 
     55 CA         20.9412  -33.4888  -41.7564 C.3       9 UNK         0.0839 
     56 C          20.3331  -34.2781  -40.5616 C.2       9 UNK         0.5513 
     57 N          20.5284  -33.8618  -39.3158 N.am      9 UNK        -0.7519 
     58 O          19.6749  -35.2936  -40.7713 O.2       9 UNK        -0.4960 
     59 C59        19.8242  -32.8869  -42.6484 C.3       10 UNK        -0.0876 
     60 S60        20.4791  -32.1895  -44.2040 S.3       10 UNK        -0.2414 
     61 C61        19.0558  -32.3220  -45.3321 C.3       10 UNK         0.0169 
     62 H62        23.3949  -27.4163  -48.3689 H         1 UNK         0.0903 
     63 H63        23.1212  -29.1569  -48.4695 H         1 UNK         0.0903 
     64 H64        22.6557  -28.1103  -49.8137 H         1 UNK         0.0903 
     65 H65        21.9067  -26.4318  -46.9809 H         1 UNK         0.3096 
     66 H66        19.5598  -27.7309  -46.1461 H         1 UNK         0.1121 
     67 H67        18.9487  -25.0383  -47.4656 H         1 UNK         0.0849 
     68 H68        18.8413  -26.4935  -48.4028 H         1 UNK         0.0849 
     69 H69        15.8212  -28.2641  -47.6199 H         1 UNK         0.0865 
     70 H70        17.4879  -28.4217  -48.1005 H         1 UNK         0.0865 
     71 H71        18.6023  -30.2719  -47.0848 H         1 UNK         0.1346 
     72 H72        17.3235  -31.8071  -43.2891 H         1 UNK         0.1412 
     73 H73        15.5016  -28.2800  -44.8899 H         1 UNK         0.1426 
     74 H74        15.4305  -30.8533  -42.1638 H         1 UNK         0.0716 
     75 H75        14.4310  -29.7161  -43.0304 H         1 UNK         0.0716 
     76 H76        17.4217  -30.3666  -40.8372 H         1 UNK         0.0695 
     77 H77        17.3669  -29.0192  -39.7412 H         1 UNK         0.0695 
     78 H78        19.0441  -29.3470  -42.2684 H         1 UNK         0.0983 
     79 H79        17.8691  -27.0205  -41.8780 H         1 UNK         0.3095 
     80 H80        18.3589  -25.1152  -42.6494 H         1 UNK         0.0454 
     81 H81        20.2379  -23.8779  -41.6312 H         1 UNK         0.0851 
     82 H82        19.8602  -23.2500  -43.2279 H         1 UNK         0.0851 
     83 H83        21.2795  -24.2574  -42.9859 H         1 UNK         0.0851 
     84 H84        18.3546  -26.0056  -44.6934 H         1 UNK         0.2976 
     85 H85        19.3538  -27.6466  -39.1270 H         1 UNK         0.3116 
     86 H86        21.2401  -29.6730  -38.1098 H         1 UNK         0.0646 
     87 H87        19.4278  -28.8311  -36.6186 H         1 UNK         0.0847 
     88 H88        20.0225  -27.1801  -36.7967 H         1 UNK         0.0847 
     89 H89        21.0055  -28.3909  -35.9870 H         1 UNK         0.0847 
     90 H90        23.3319  -29.2973  -37.6907 H         1 UNK         0.3040 
     91 H91        25.3855  -28.5760  -37.6568 H         1 UNK         0.1015 
     92 H92        25.8620  -26.2442  -36.9560 H         1 UNK         0.0786 
     93 H93        24.5375  -26.9236  -36.0250 H         1 UNK         0.0786 
     94 H94        24.2101  -25.7685  -37.3152 H         1 UNK         0.0786 
     95 H95        23.6055  -26.3913  -39.8388 H         1 UNK         0.3172 
     96 H96        25.9230  -25.7028  -41.4459 H         1 UNK         0.0595 
     97 H97        24.1261  -24.6655  -42.9492 H         1 UNK         0.0839 
     98 H98        24.1596  -24.0715  -41.2952 H         1 UNK         0.0839 
     99 H99        22.9323  -25.2283  -41.7851 H         1 UNK         0.0839 
    100 H100       22.8961  -27.4554  -42.4379 H         1 UNK         0.2998 
    101 H101       24.3422  -28.9159  -44.5174 H         1 UNK         0.0822 
    102 H102       22.1665  -29.9402  -44.9670 H         1 UNK         0.0787 
    103 H103       21.9630  -28.2126  -44.7863 H         1 UNK         0.0787 
    104 H104       21.4878  -29.2915  -43.4756 H         1 UNK         0.0787 
    105 H105       23.2956  -29.4950  -41.2178 H         1 UNK         0.3055 
    106 H106       23.5924  -31.0724  -39.6889 H         1 UNK         0.1106 
    107 H107       26.0273  -30.7641  -40.1753 H         1 UNK         0.0828 
    108 H108       25.6680  -32.4078  -39.6708 H         1 UNK         0.0828 
    109 H109       25.9580  -32.0605  -41.3680 H         1 UNK         0.0828 
    110 H110       21.5434  -31.5105  -41.2881 H         1 UNK         0.2931 
    111 H111       21.4755  -34.2274  -42.3574 H         1 UNK         0.0412 
    112 H112       21.0582  -33.0245  -39.1361 H         1 UNK         0.3472 
    113 H113       20.1326  -34.3856  -38.5510 H         1 UNK         0.3472 
    114 H114       19.2954  -32.1018  -42.1060 H         1 UNK         0.0970 
    115 H115       19.0839  -33.6500  -42.8955 H         1 UNK         0.0970 
    116 H116       19.4385  -32.3675  -46.3528 H         1 UNK         0.0612 
    117 H117       18.5312  -33.2639  -45.1667 H         1 UNK         0.0612 
@<TRIPOS>BOND
     1    1    2 1    
     2    1   62 1    
     3    1   63 1    
     4    1   64 1    
     5    2    3 2    
     6    2    4 am   BACKBONE|DICT|INTERRES
     7    4    5 1    
     8    4   65 1    
     9    5    6 1    
    10    5   25 1    
    11    5   66 1    
    12    6    7 1    
    13    6   67 1    
    14    6   68 1    
    15    7    8 1    
    16    8    9 1    
    17    8   69 1    
    18    8   70 1    
    19    9   10 ar   
    20    9   14 ar   
    21   10   11 ar   
    22   10   71 1    
    23   11   12 ar   
    24   11   61 1    
    25   12   13 ar   
    26   12   72 1    
    27   13   14 ar   
    28   13   15 1    
    29   14   73 1    
    30   15   16 1    
    31   15   74 1    
    32   15   75 1    
    33   16   17 1    
    34   17   18 1    
    35   17   76 1    
    36   17   77 1    
    37   18   19 1    
    38   18   27 1    
    39   18   78 1    
    40   19   20 am   BACKBONE|DICT|INTERRES
    41   19   79 1    
    42   20   21 2    
    43   20   22 1    
    44   22   23 1    
    45   22   24 1    
    46   22   80 1    
    47   23   81 1    
    48   23   82 1    
    49   23   83 1    
    50   24   25 am   BACKBONE|DICT|INTERRES
    51   24   84 1    
    52   25   26 2    
    53   27   28 2    
    54   27   29 am   BACKBONE|DICT|INTERRES
    55   29   30 1    
    56   29   85 1    
    57   30   31 1    
    58   30   32 1    
    59   30   86 1    
    60   31   87 1    
    61   31   88 1    
    62   31   89 1    
    63   32   33 2    
    64   32   34 am   BACKBONE|DICT|INTERRES
    65   34   35 1    
    66   34   90 1    
    67   35   36 1    
    68   35   37 1    
    69   35   91 1    
    70   36   92 1    
    71   36   93 1    
    72   36   94 1    
    73   37   38 2    
    74   37   39 am   BACKBONE|DICT|INTERRES
    75   39   40 1    
    76   39   95 1    
    77   40   41 1    
    78   40   42 1    
    79   40   96 1    
    80   41   97 1    
    81   41   98 1    
    82   41   99 1    
    83   42   43 2    
    84   42   44 am   BACKBONE|DICT|INTERRES
    85   44   45 1    
    86   44  100 1    
    87   45   46 1    
    88   45   47 1    
    89   45  101 1    
    90   46  102 1    
    91   46  103 1    
    92   46  104 1    
    93   47   48 2    
    94   47   49 am   BACKBONE|DICT|INTERRES
    95   49   50 1    
    96   49  105 1    
    97   50   51 1    
    98   50   52 1    
    99   50  106 1    
   100   51  107 1    
   101   51  108 1    
   102   51  109 1    
   103   52   53 2    
   104   52   54 am   BACKBONE|DICT|INTERRES
   105   54   55 1    
   106   54  110 1    
   107   55   56 1    
   108   55   59 1    
   109   55  111 1    
   110   56   57 am   BACKBONE|DICT|INTERRES
   111   56   58 2    
   112   57  112 1    
   113   57  113 1    
   114   59   60 1    
   115   59  114 1    
   116   59  115 1    
   117   60   61 1    
   118   61  116 1    
   119   61  117 1    
@<TRIPOS>SUBSTRUCTURE
     1 UNK         1 GROUP             0       ****    0 ROOT    
