@<TRIPOS>MOLECULE
3R8
117   119    1
SMALL
USER_CHARGES


@<TRIPOS>ATOM
      1 CA         16.1543  -22.9489  -46.4304 C.3       0 UNK        -0.2013 
      2 C          17.4700  -23.6943  -46.5960 C.2       0 UNK         0.4866 
      3 O          18.4373  -23.1253  -47.1022 O.2       0 UNK        -0.5176 
      4 N          17.5148  -24.9642  -46.1727 N.am      1 UNK        -0.4884 
      5 CA         18.6908  -25.8413  -46.2765 C.3       1 UNK         0.0853 
      6 C6         18.3252  -27.3319  -46.0781 C.3       10 UNK        -0.0849 
      7 S7         16.9464  -27.9256  -47.1194 S.3       10 UNK        -0.2776 
      8 C8         17.1721  -29.7421  -47.0586 C.3       10 UNK         0.0316 
      9 C9         17.5838  -30.2601  -45.6824 C.ar      10 UNK        -0.0863 
     10 C10        18.7176  -31.0669  -45.5477 C.ar      10 UNK        -0.1009 
     11 C11        19.1405  -31.4936  -44.2853 C.ar      10 UNK        -0.0712 
     12 C12        18.4351  -31.0924  -43.1462 C.ar      10 UNK        -0.0894 
     13 C13        17.2941  -30.2945  -43.2704 C.ar      10 UNK        -0.0745 
     14 C14        16.8576  -29.9081  -44.5407 C.ar      10 UNK        -0.0972 
     15 C15        16.5279  -29.8285  -42.0443 C.3       10 UNK         0.0209 
     16 S16        16.8549  -28.0687  -41.7012 S.3       10 UNK        -0.2568 
     17 C17        18.1948  -28.1322  -40.4623 C.3       10 UNK        -0.0983 
     18 CA         19.5917  -27.7084  -40.9893 C.3       3 UNK         0.0876 
     19 N          19.5481  -26.4427  -41.7336 N.am      3 UNK        -0.4424 
     20 C          20.5957  -25.7737  -42.2381 C.2       2 UNK         0.4918 
     21 O          21.7668  -26.1492  -42.1491 O.2       2 UNK        -0.4875 
     22 CA         20.2469  -24.4794  -42.9971 C.3       2 UNK         0.0481 
     23 CB         21.4809  -23.6206  -43.3468 C.3       2 UNK        -0.1831 
     24 N          19.4394  -24.7731  -44.1867 N.am      2 UNK        -0.4498 
     25 C          19.8055  -25.4775  -45.2716 C.2       1 UNK         0.5027 
     26 O          20.9494  -25.8795  -45.4845 O.2       1 UNK        -0.4969 
     27 C          20.5737  -27.6333  -39.8007 C.2       3 UNK         0.5005 
     28 O          20.5448  -26.6517  -39.0538 O.2       3 UNK        -0.5279 
     29 N          21.4320  -28.6511  -39.6613 N.am      4 UNK        -0.4463 
     30 CA         22.5061  -28.8207  -38.6704 C.3       4 UNK         0.0283 
     31 CB         21.9796  -28.7611  -37.2235 C.3       4 UNK        -0.1875 
     32 C          23.7092  -27.8817  -38.8736 C.2       4 UNK         0.4949 
     33 O          24.8395  -28.3116  -38.6457 O.2       4 UNK        -0.5039 
     34 N          23.4641  -26.6394  -39.3090 N.am      5 UNK        -0.4663 
     35 CA         24.4862  -25.6444  -39.6353 C.3       5 UNK         0.0242 
     36 CB         23.8333  -24.2606  -39.7814 C.3       5 UNK        -0.1982 
     37 C          25.2839  -26.0241  -40.8931 C.2       5 UNK         0.5017 
     38 O          26.5145  -26.0380  -40.8428 O.2       5 UNK        -0.5012 
     39 N          24.5744  -26.3439  -41.9847 N.am      6 UNK        -0.4439 
     40 CA         25.1622  -26.8668  -43.2191 C.3       6 UNK         0.0297 
     41 CB         24.2509  -26.5505  -44.4160 C.3       6 UNK        -0.2006 
     42 C          25.4191  -28.3759  -43.1048 C.2       6 UNK         0.4892 
     43 O          26.5358  -28.8234  -43.3686 O.2       6 UNK        -0.5089 
     44 N          24.3885  -29.1239  -42.6935 N.am      7 UNK        -0.4243 
     45 CA         24.4202  -30.5634  -42.4564 C.3       7 UNK         0.0196 
     46 CB         24.4146  -31.3349  -43.7904 C.3       7 UNK        -0.2007 
     47 C          23.1927  -30.9390  -41.6260 C.2       7 UNK         0.5020 
     48 O          22.1369  -30.3224  -41.7911 O.2       7 UNK        -0.5147 
     49 N          23.3379  -31.9469  -40.7591 N.am      8 UNK        -0.4734 
     50 CA         22.2261  -32.5318  -40.0002 C.3       8 UNK         0.0238 
     51 CB         22.7497  -33.0953  -38.6691 C.3       8 UNK        -0.1912 
     52 C          21.4982  -33.6220  -40.8036 C.2       8 UNK         0.5038 
     53 O          20.2816  -33.7439  -40.6733 O.2       8 UNK        -0.5046 
     54 N          22.2685  -34.3771  -41.6019 N.am      9 UNK        -0.4200 
     55 CA         21.9090  -35.4588  -42.5418 C.3       9 UNK         0.0839 
     56 C          21.0075  -36.6320  -42.0438 C.2       9 UNK         0.5513 
     57 N          20.4544  -36.5991  -40.8406 N.am      9 UNK        -0.7519 
     58 O          20.8497  -37.6225  -42.7533 O.2       9 UNK        -0.4960 
     59 C59        21.5220  -34.9339  -43.9535 C.3       10 UNK        -0.0876 
     60 S60        19.8864  -34.1334  -44.0689 S.3       10 UNK        -0.2414 
     61 C61        20.3645  -32.3826  -44.1536 C.3       10 UNK         0.0169 
     62 H62        15.3869  -23.5719  -45.9714 H         1 UNK         0.0903 
     63 H63        16.2974  -22.0694  -45.8032 H         1 UNK         0.0903 
     64 H64        15.7860  -22.6186  -47.4014 H         1 UNK         0.0903 
     65 H65        16.6815  -25.3974  -45.7986 H         1 UNK         0.3096 
     66 H66        19.1108  -25.7239  -47.2782 H         1 UNK         0.1121 
     67 H67        18.0555  -27.5106  -45.0352 H         1 UNK         0.0849 
     68 H68        19.1976  -27.9583  -46.2777 H         1 UNK         0.0849 
     69 H69        16.2422  -30.2265  -47.3591 H         1 UNK         0.0865 
     70 H70        17.9162  -30.0174  -47.8078 H         1 UNK         0.0865 
     71 H71        19.2788  -31.3596  -46.4248 H         1 UNK         0.1346 
     72 H72        18.7743  -31.4079  -42.1685 H         1 UNK         0.1412 
     73 H73        15.9799  -29.2830  -44.6364 H         1 UNK         0.1426 
     74 H74        16.7594  -30.4451  -41.1748 H         1 UNK         0.0716 
     75 H75        15.4592  -29.9539  -42.2243 H         1 UNK         0.0716 
     76 H76        18.2460  -29.1338  -40.0321 H         1 UNK         0.0695 
     77 H77        17.8857  -27.4769  -39.6448 H         1 UNK         0.0695 
     78 H78        19.9429  -28.4699  -41.6895 H         1 UNK         0.0983 
     79 H79        18.6239  -26.0596  -41.8641 H         1 UNK         0.3095 
     80 H80        19.6165  -23.8847  -42.3343 H         1 UNK         0.0454 
     81 H81        22.2030  -24.1643  -43.9550 H         1 UNK         0.0851 
     82 H82        21.9985  -23.2988  -42.4437 H         1 UNK         0.0851 
     83 H83        21.1953  -22.7216  -43.8925 H         1 UNK         0.0851 
     84 H84        18.4698  -24.4934  -44.1381 H         1 UNK         0.2976 
     85 H85        21.4470  -29.3478  -40.4055 H         1 UNK         0.3116 
     86 H86        22.8843  -29.8311  -38.8247 H         1 UNK         0.0646 
     87 H87        21.6281  -27.7651  -36.9536 H         1 UNK         0.0847 
     88 H88        22.7666  -29.0249  -36.5158 H         1 UNK         0.0847 
     89 H89        21.1587  -29.4614  -37.0703 H         1 UNK         0.0847 
     90 H90        22.4928  -26.3726  -39.4356 H         1 UNK         0.3040 
     91 H91        25.1905  -25.5990  -38.8014 H         1 UNK         0.1015 
     92 H92        23.0646  -24.2557  -40.5533 H         1 UNK         0.0786 
     93 H93        24.5729  -23.5047  -40.0491 H         1 UNK         0.0786 
     94 H94        23.3688  -23.9433  -38.8476 H         1 UNK         0.0786 
     95 H95        23.5568  -26.2867  -41.9469 H         1 UNK         0.3172 
     96 H96        26.1206  -26.3732  -43.3952 H         1 UNK         0.0595 
     97 H97        23.2545  -26.9785  -44.2989 H         1 UNK         0.0839 
     98 H98        24.6689  -26.9494  -45.3411 H         1 UNK         0.0839 
     99 H99        24.1371  -25.4755  -44.5518 H         1 UNK         0.0839 
    100 H100       23.4990  -28.6850  -42.4904 H         1 UNK         0.2998 
    101 H101       25.3222  -30.8071  -41.8907 H         1 UNK         0.0822 
    102 H102       25.3003  -31.1133  -44.3858 H         1 UNK         0.0787 
    103 H103       24.4028  -32.4125  -43.6217 H         1 UNK         0.0787 
    104 H104       23.5380  -31.0888  -44.3914 H         1 UNK         0.0787 
    105 H105       24.2468  -32.3758  -40.6513 H         1 UNK         0.3055 
    106 H106       21.4919  -31.7565  -39.7687 H         1 UNK         0.1106 
    107 H107       21.9360  -33.5200  -38.0794 H         1 UNK         0.0828 
    108 H108       23.4876  -33.8839  -38.8209 H         1 UNK         0.0828 
    109 H109       23.2121  -32.3157  -38.0633 H         1 UNK         0.0828 
    110 H110       23.2575  -34.1843  -41.5702 H         1 UNK         0.2931 
    111 H111       22.8702  -35.9548  -42.6843 H         1 UNK         0.0412 
    112 H112       19.8906  -37.3733  -40.5270 H         1 UNK         0.3472 
    113 H113       20.4731  -35.7322  -40.3197 H         1 UNK         0.3472 
    114 H114       21.5322  -35.7591  -44.6679 H         1 UNK         0.0970 
    115 H115       22.2887  -34.2450  -44.3109 H         1 UNK         0.0970 
    116 H116       21.0398  -32.2267  -44.9963 H         1 UNK         0.0612 
    117 H117       20.9206  -32.1166  -43.2566 H         1 UNK         0.0612 
@<TRIPOS>BOND
     1    1    2 1    
     2    1   62 1    
     3    1   63 1    
     4    1   64 1    
     5    2    3 2    
     6    2    4 am   BACKBONE|DICT|INTERRES
     7    4    5 1    
     8    4   65 1    
     9    5    6 1    
    10    5   25 1    
    11    5   66 1    
    12    6    7 1    
    13    6   67 1    
    14    6   68 1    
    15    7    8 1    
    16    8    9 1    
    17    8   69 1    
    18    8   70 1    
    19    9   10 ar   
    20    9   14 ar   
    21   10   11 ar   
    22   10   71 1    
    23   11   12 ar   
    24   11   61 1    
    25   12   13 ar   
    26   12   72 1    
    27   13   14 ar   
    28   13   15 1    
    29   14   73 1    
    30   15   16 1    
    31   15   74 1    
    32   15   75 1    
    33   16   17 1    
    34   17   18 1    
    35   17   76 1    
    36   17   77 1    
    37   18   19 1    
    38   18   27 1    
    39   18   78 1    
    40   19   20 am   BACKBONE|DICT|INTERRES
    41   19   79 1    
    42   20   21 2    
    43   20   22 1    
    44   22   23 1    
    45   22   24 1    
    46   22   80 1    
    47   23   81 1    
    48   23   82 1    
    49   23   83 1    
    50   24   25 am   BACKBONE|DICT|INTERRES
    51   24   84 1    
    52   25   26 2    
    53   27   28 2    
    54   27   29 am   BACKBONE|DICT|INTERRES
    55   29   30 1    
    56   29   85 1    
    57   30   31 1    
    58   30   32 1    
    59   30   86 1    
    60   31   87 1    
    61   31   88 1    
    62   31   89 1    
    63   32   33 2    
    64   32   34 am   BACKBONE|DICT|INTERRES
    65   34   35 1    
    66   34   90 1    
    67   35   36 1    
    68   35   37 1    
    69   35   91 1    
    70   36   92 1    
    71   36   93 1    
    72   36   94 1    
    73   37   38 2    
    74   37   39 am   BACKBONE|DICT|INTERRES
    75   39   40 1    
    76   39   95 1    
    77   40   41 1    
    78   40   42 1    
    79   40   96 1    
    80   41   97 1    
    81   41   98 1    
    82   41   99 1    
    83   42   43 2    
    84   42   44 am   BACKBONE|DICT|INTERRES
    85   44   45 1    
    86   44  100 1    
    87   45   46 1    
    88   45   47 1    
    89   45  101 1    
    90   46  102 1    
    91   46  103 1    
    92   46  104 1    
    93   47   48 2    
    94   47   49 am   BACKBONE|DICT|INTERRES
    95   49   50 1    
    96   49  105 1    
    97   50   51 1    
    98   50   52 1    
    99   50  106 1    
   100   51  107 1    
   101   51  108 1    
   102   51  109 1    
   103   52   53 2    
   104   52   54 am   BACKBONE|DICT|INTERRES
   105   54   55 1    
   106   54  110 1    
   107   55   56 1    
   108   55   59 1    
   109   55  111 1    
   110   56   57 am   BACKBONE|DICT|INTERRES
   111   56   58 2    
   112   57  112 1    
   113   57  113 1    
   114   59   60 1    
   115   59  114 1    
   116   59  115 1    
   117   60   61 1    
   118   61  116 1    
   119   61  117 1    
@<TRIPOS>SUBSTRUCTURE
     1 UNK         1 GROUP             0       ****    0 ROOT    
