@<TRIPOS>MOLECULE
3R8
117   119    1
SMALL
USER_CHARGES


@<TRIPOS>ATOM
      1 CA         16.7947  -23.3226  -43.9173 C.3       0 UNK        -0.2013 
      2 C          16.2207  -23.8489  -42.6037 C.2       0 UNK         0.4866 
      3 O          16.0407  -23.0675  -41.6722 O.2       0 UNK        -0.5176 
      4 N          15.9101  -25.1477  -42.4687 N.am      1 UNK        -0.4884 
      5 CA         16.0995  -26.2234  -43.4543 C.3       1 UNK         0.0853 
      6 C6         15.3674  -27.5162  -43.0067 C.3       10 UNK        -0.0849 
      7 S7         14.9353  -28.6113  -44.4014 S.3       10 UNK        -0.2776 
      8 C8         15.7481  -30.1791  -43.9397 C.3       10 UNK         0.0316 
      9 C9         17.2508  -30.1769  -44.1989 C.ar      10 UNK        -0.0863 
     10 C10        18.1551  -30.3647  -43.1480 C.ar      10 UNK        -0.1009 
     11 C11        19.5311  -30.4234  -43.3963 C.ar      10 UNK        -0.0712 
     12 C12        20.0021  -30.2764  -44.7048 C.ar      10 UNK        -0.0894 
     13 C13        19.1097  -30.0832  -45.7629 C.ar      10 UNK        -0.0745 
     14 C14        17.7367  -30.0402  -45.5032 C.ar      10 UNK        -0.0972 
     15 C15        19.6165  -29.9575  -47.1926 C.3       10 UNK         0.0209 
     16 S16        19.9547  -28.2281  -47.6548 S.3       10 UNK        -0.2568 
     17 C17        21.6386  -27.9786  -46.9993 C.3       10 UNK        -0.0983 
     18 CA         21.7273  -26.8225  -45.9734 C.3       3 UNK         0.0876 
     19 N          20.8729  -27.0464  -44.8048 N.am      3 UNK        -0.4424 
     20 C          20.7089  -26.1997  -43.7798 C.2       2 UNK         0.4918 
     21 O          21.2197  -25.0782  -43.7221 O.2       2 UNK        -0.4875 
     22 CA         19.8450  -26.7088  -42.6110 C.3       2 UNK         0.0481 
     23 CB         20.3772  -26.1906  -41.2642 C.3       2 UNK        -0.1831 
     24 N          18.4187  -26.3848  -42.6946 N.am      2 UNK        -0.4498 
     25 C          17.5882  -26.5065  -43.7421 C.2       1 UNK         0.5027 
     26 O          17.9295  -26.8041  -44.8839 O.2       1 UNK        -0.4969 
     27 C          23.1875  -26.6263  -45.5271 C.2       3 UNK         0.5005 
     28 O          23.7279  -27.5032  -44.8503 O.2       3 UNK        -0.5279 
     29 N          23.7775  -25.4686  -45.8621 N.am      4 UNK        -0.4463 
     30 CA         25.1347  -25.0378  -45.4885 C.3       4 UNK         0.0283 
     31 CB         26.1883  -25.8687  -46.2517 C.3       4 UNK        -0.1875 
     32 C          25.3936  -25.0226  -43.9639 C.2       4 UNK         0.4949 
     33 O          26.5396  -25.1785  -43.5406 O.2       4 UNK        -0.5039 
     34 N          24.3221  -24.8512  -43.1724 N.am      5 UNK        -0.4663 
     35 CA         24.2792  -24.9133  -41.7065 C.3       5 UNK         0.0242 
     36 CB         25.0923  -23.7604  -41.0782 C.3       5 UNK        -0.1982 
     37 C          24.6481  -26.2975  -41.1264 C.2       5 UNK         0.5017 
     38 O          25.1302  -26.3667  -39.9938 O.2       5 UNK        -0.5012 
     39 N          24.4091  -27.3755  -41.8914 N.am      6 UNK        -0.4439 
     40 CA         24.5781  -28.7651  -41.4510 C.3       6 UNK         0.0297 
     41 CB         24.4471  -29.6990  -42.6656 C.3       6 UNK        -0.2006 
     42 C          23.5741  -29.1672  -40.3536 C.2       6 UNK         0.4892 
     43 O          22.5225  -28.5399  -40.2122 O.2       6 UNK        -0.5089 
     44 N          23.9081  -30.2296  -39.6162 N.am      7 UNK        -0.4243 
     45 CA         23.0863  -30.8131  -38.5591 C.3       7 UNK         0.0196 
     46 CB         23.5890  -30.3145  -37.1925 C.3       7 UNK        -0.2007 
     47 C          23.1558  -32.3416  -38.6517 C.2       7 UNK         0.5020 
     48 O          24.0614  -32.8749  -39.2978 O.2       7 UNK        -0.5147 
     49 N          22.1987  -33.0095  -37.9901 N.am      8 UNK        -0.4734 
     50 CA         22.0024  -34.4680  -37.9496 C.3       8 UNK         0.0238 
     51 CB         23.1806  -35.1675  -37.2366 C.3       8 UNK        -0.1912 
     52 C          21.6893  -35.0743  -39.3339 C.2       8 UNK         0.5038 
     53 O          22.1233  -36.1881  -39.6344 O.2       8 UNK        -0.5046 
     54 N          20.9380  -34.3217  -40.1485 N.am      9 UNK        -0.4200 
     55 CA         20.5406  -34.6870  -41.5179 C.3       9 UNK         0.0839 
     56 C          19.4472  -35.7915  -41.6091 C.2       9 UNK         0.5513 
     57 N          18.7806  -36.1642  -40.5228 N.am      9 UNK        -0.7519 
     58 O          19.2033  -36.3238  -42.6888 O.2       9 UNK        -0.4960 
     59 C59        20.1336  -33.4404  -42.3465 C.3       10 UNK        -0.0876 
     60 S60        21.4578  -32.1855  -42.4322 S.3       10 UNK        -0.2414 
     61 C61        20.5125  -30.6395  -42.2514 C.3       10 UNK         0.0169 
     62 H62        16.7055  -22.2372  -43.9596 H         1 UNK         0.0903 
     63 H63        17.8526  -23.5706  -44.0010 H         1 UNK         0.0903 
     64 H64        16.2684  -23.7233  -44.7822 H         1 UNK         0.0903 
     65 H65        15.5131  -25.4420  -41.5872 H         1 UNK         0.3096 
     66 H66        15.6439  -25.8898  -44.3888 H         1 UNK         0.1121 
     67 H67        14.4230  -27.2591  -42.5238 H         1 UNK         0.0849 
     68 H68        15.9409  -28.0607  -42.2535 H         1 UNK         0.0849 
     69 H69        15.5274  -30.4097  -42.8962 H         1 UNK         0.0865 
     70 H70        15.3004  -30.9841  -44.5241 H         1 UNK         0.0865 
     71 H71        17.7875  -30.4808  -42.1377 H         1 UNK         0.1346 
     72 H72        21.0651  -30.3299  -44.8965 H         1 UNK         0.1412 
     73 H73        17.0408  -29.8982  -46.3190 H         1 UNK         0.1426 
     74 H74        18.8689  -30.3562  -47.8799 H         1 UNK         0.0716 
     75 H75        20.5088  -30.5681  -47.3395 H         1 UNK         0.0716 
     76 H76        22.2872  -27.7730  -47.8531 H         1 UNK         0.0695 
     77 H77        22.0084  -28.9080  -46.5633 H         1 UNK         0.0695 
     78 H78        21.3785  -25.9074  -46.4564 H         1 UNK         0.0983 
     79 H79        20.3436  -27.9075  -44.8081 H         1 UNK         0.3095 
     80 H80        19.9231  -27.7947  -42.5935 H         1 UNK         0.0454 
     81 H81        20.2242  -25.1164  -41.1533 H         1 UNK         0.0851 
     82 H82        21.4465  -26.3763  -41.1714 H         1 UNK         0.0851 
     83 H83        19.8944  -26.6908  -40.4247 H         1 UNK         0.0851 
     84 H84        17.9975  -26.0829  -41.8282 H         1 UNK         0.2976 
     85 H85        23.2406  -24.7934  -46.3903 H         1 UNK         0.3116 
     86 H86        25.2284  -24.0021  -45.8183 H         1 UNK         0.0646 
     87 H87        26.0027  -25.8573  -47.3256 H         1 UNK         0.0847 
     88 H88        26.1965  -26.9088  -45.9235 H         1 UNK         0.0847 
     89 H89        27.1919  -25.4713  -46.0953 H         1 UNK         0.0847 
     90 H90        23.4185  -24.7489  -43.6217 H         1 UNK         0.3040 
     91 H91        23.2349  -24.7521  -41.4354 H         1 UNK         0.1015 
     92 H92        26.1642  -23.8881  -41.2316 H         1 UNK         0.0786 
     93 H93        24.9246  -23.7046  -40.0019 H         1 UNK         0.0786 
     94 H94        24.8049  -22.7966  -41.4982 H         1 UNK         0.0786 
     95 H95        24.0524  -27.2435  -42.8326 H         1 UNK         0.3172 
     96 H96        25.5861  -28.8662  -41.0434 H         1 UNK         0.0595 
     97 H97        24.5878  -30.7431  -42.3829 H         1 UNK         0.0839 
     98 H98        25.1931  -29.4672  -43.4260 H         1 UNK         0.0839 
     99 H99        23.4640  -29.6197  -43.1307 H         1 UNK         0.0839 
    100 H100       24.7365  -30.7630  -39.8478 H         1 UNK         0.2998 
    101 H101       22.0427  -30.5188  -38.6919 H         1 UNK         0.0822 
    102 H102       23.5344  -29.2276  -37.1253 H         1 UNK         0.0787 
    103 H103       22.9879  -30.7188  -36.3773 H         1 UNK         0.0787 
    104 H104       24.6240  -30.6086  -37.0131 H         1 UNK         0.0787 
    105 H105       21.5138  -32.4684  -37.4787 H         1 UNK         0.3055 
    106 H106       21.1109  -34.6412  -37.3445 H         1 UNK         0.1106 
    107 H107       24.1015  -35.1075  -37.8173 H         1 UNK         0.0828 
    108 H108       22.9682  -36.2255  -37.0771 H         1 UNK         0.0828 
    109 H109       23.3713  -34.7267  -36.2583 H         1 UNK         0.0828 
    110 H110       20.6348  -33.4163  -39.8247 H         1 UNK         0.2931 
    111 H111       21.4243  -35.1124  -41.9980 H         1 UNK         0.0412 
    112 H112       18.0782  -36.8836  -40.5969 H         1 UNK         0.3472 
    113 H113       18.9723  -35.7360  -39.6316 H         1 UNK         0.3472 
    114 H114       19.2292  -32.9932  -41.9302 H         1 UNK         0.0970 
    115 H115       19.8854  -33.7222  -43.3718 H         1 UNK         0.0970 
    116 H116       20.0031  -30.6396  -41.2866 H         1 UNK         0.0612 
    117 H117       21.2121  -29.8046  -42.2282 H         1 UNK         0.0612 
@<TRIPOS>BOND
     1    1    2 1    
     2    1   62 1    
     3    1   63 1    
     4    1   64 1    
     5    2    3 2    
     6    2    4 am   BACKBONE|DICT|INTERRES
     7    4    5 1    
     8    4   65 1    
     9    5    6 1    
    10    5   25 1    
    11    5   66 1    
    12    6    7 1    
    13    6   67 1    
    14    6   68 1    
    15    7    8 1    
    16    8    9 1    
    17    8   69 1    
    18    8   70 1    
    19    9   10 ar   
    20    9   14 ar   
    21   10   11 ar   
    22   10   71 1    
    23   11   12 ar   
    24   11   61 1    
    25   12   13 ar   
    26   12   72 1    
    27   13   14 ar   
    28   13   15 1    
    29   14   73 1    
    30   15   16 1    
    31   15   74 1    
    32   15   75 1    
    33   16   17 1    
    34   17   18 1    
    35   17   76 1    
    36   17   77 1    
    37   18   19 1    
    38   18   27 1    
    39   18   78 1    
    40   19   20 am   BACKBONE|DICT|INTERRES
    41   19   79 1    
    42   20   21 2    
    43   20   22 1    
    44   22   23 1    
    45   22   24 1    
    46   22   80 1    
    47   23   81 1    
    48   23   82 1    
    49   23   83 1    
    50   24   25 am   BACKBONE|DICT|INTERRES
    51   24   84 1    
    52   25   26 2    
    53   27   28 2    
    54   27   29 am   BACKBONE|DICT|INTERRES
    55   29   30 1    
    56   29   85 1    
    57   30   31 1    
    58   30   32 1    
    59   30   86 1    
    60   31   87 1    
    61   31   88 1    
    62   31   89 1    
    63   32   33 2    
    64   32   34 am   BACKBONE|DICT|INTERRES
    65   34   35 1    
    66   34   90 1    
    67   35   36 1    
    68   35   37 1    
    69   35   91 1    
    70   36   92 1    
    71   36   93 1    
    72   36   94 1    
    73   37   38 2    
    74   37   39 am   BACKBONE|DICT|INTERRES
    75   39   40 1    
    76   39   95 1    
    77   40   41 1    
    78   40   42 1    
    79   40   96 1    
    80   41   97 1    
    81   41   98 1    
    82   41   99 1    
    83   42   43 2    
    84   42   44 am   BACKBONE|DICT|INTERRES
    85   44   45 1    
    86   44  100 1    
    87   45   46 1    
    88   45   47 1    
    89   45  101 1    
    90   46  102 1    
    91   46  103 1    
    92   46  104 1    
    93   47   48 2    
    94   47   49 am   BACKBONE|DICT|INTERRES
    95   49   50 1    
    96   49  105 1    
    97   50   51 1    
    98   50   52 1    
    99   50  106 1    
   100   51  107 1    
   101   51  108 1    
   102   51  109 1    
   103   52   53 2    
   104   52   54 am   BACKBONE|DICT|INTERRES
   105   54   55 1    
   106   54  110 1    
   107   55   56 1    
   108   55   59 1    
   109   55  111 1    
   110   56   57 am   BACKBONE|DICT|INTERRES
   111   56   58 2    
   112   57  112 1    
   113   57  113 1    
   114   59   60 1    
   115   59  114 1    
   116   59  115 1    
   117   60   61 1    
   118   61  116 1    
   119   61  117 1    
@<TRIPOS>SUBSTRUCTURE
     1 UNK         1 GROUP             0       ****    0 ROOT    
