@<TRIPOS>MOLECULE
3R8
117   119    1
SMALL
USER_CHARGES


@<TRIPOS>ATOM
      1 CA         17.2035  -24.1014  -47.7087 C.3       0 UNK        -0.2013 
      2 C          16.2102  -24.5368  -46.6412 C.2       0 UNK         0.4866 
      3 O          15.1249  -23.9635  -46.5558 O.2       0 UNK        -0.5176 
      4 N          16.5820  -25.5514  -45.8496 N.am      1 UNK        -0.4884 
      5 CA         15.8478  -26.1314  -44.7188 C.3       1 UNK         0.0853 
      6 C6         14.4267  -26.6416  -45.0857 C.3       10 UNK        -0.0849 
      7 S7         13.7753  -27.8411  -43.8683 S.3       10 UNK        -0.2776 
      8 C8         14.2097  -29.4455  -44.6183 C.3       10 UNK         0.0316 
      9 C9         15.7145  -29.6676  -44.6230 C.ar      10 UNK        -0.0863 
     10 C10        16.3697  -30.0887  -43.4610 C.ar      10 UNK        -0.1009 
     11 C11        17.7603  -30.2344  -43.4444 C.ar      10 UNK        -0.0712 
     12 C12        18.4885  -29.9782  -44.6087 C.ar      10 UNK        -0.0894 
     13 C13        17.8470  -29.5456  -45.7729 C.ar      10 UNK        -0.0745 
     14 C14        16.4571  -29.4094  -45.7788 C.ar      10 UNK        -0.0972 
     15 C15        18.6502  -29.1965  -47.0177 C.3       10 UNK         0.0209 
     16 S16        19.3249  -27.5027  -46.9305 S.3       10 UNK        -0.2568 
     17 C17        20.7700  -27.7504  -45.8416 C.3       10 UNK        -0.0983 
     18 CA         20.6905  -26.9990  -44.4811 C.3       3 UNK         0.0876 
     19 N          19.3877  -27.1084  -43.8165 N.am      3 UNK        -0.4424 
     20 C          18.8871  -26.1867  -42.9865 C.2       2 UNK         0.4918 
     21 O          19.4236  -25.0987  -42.7680 O.2       2 UNK        -0.4875 
     22 CA         17.5931  -26.5469  -42.2433 C.3       2 UNK         0.0481 
     23 CB         17.8832  -26.7426  -40.7468 C.3       2 UNK        -0.1831 
     24 N          16.6006  -25.4825  -42.4066 N.am      2 UNK        -0.4498 
     25 C          15.8539  -25.1905  -43.4849 C.2       1 UNK         0.5027 
     26 O          15.1476  -24.1826  -43.4969 O.2       1 UNK        -0.4969 
     27 C          21.7627  -27.4895  -43.4869 C.2       3 UNK         0.5005 
     28 O          22.2078  -28.6373  -43.5737 O.2       3 UNK        -0.5279 
     29 N          22.0995  -26.6427  -42.5056 N.am      4 UNK        -0.4463 
     30 CA         23.0100  -26.9392  -41.3969 C.3       4 UNK         0.0283 
     31 CB         22.7350  -25.9502  -40.2493 C.3       4 UNK        -0.1875 
     32 C          24.4864  -26.9410  -41.8372 C.2       4 UNK         0.4949 
     33 O          25.2665  -26.0901  -41.4068 O.2       4 UNK        -0.5039 
     34 N          24.8390  -27.8979  -42.7036 N.am      5 UNK        -0.4663 
     35 CA         26.1999  -28.1382  -43.1933 C.3       5 UNK         0.0242 
     36 CB         26.1321  -29.0781  -44.4076 C.3       5 UNK        -0.1982 
     37 C          27.1328  -28.7196  -42.1149 C.2       5 UNK         0.5017 
     38 O          28.3481  -28.5407  -42.2034 O.2       5 UNK        -0.5012 
     39 N          26.5461  -29.3943  -41.1221 N.am      6 UNK        -0.4439 
     40 CA         27.1899  -29.9624  -39.9445 C.3       6 UNK         0.0297 
     41 CB         27.8473  -31.3130  -40.3050 C.3       6 UNK        -0.2006 
     42 C          26.1206  -30.0726  -38.8445 C.2       6 UNK         0.4892 
     43 O          25.1230  -29.3471  -38.8897 O.2       6 UNK        -0.5089 
     44 N          26.3210  -30.9925  -37.8905 N.am      7 UNK        -0.4243 
     45 CA         25.3231  -31.3675  -36.8805 C.3       7 UNK         0.0196 
     46 CB         26.0014  -32.2136  -35.7905 C.3       7 UNK        -0.2007 
     47 C          24.1152  -32.1208  -37.4753 C.2       7 UNK         0.5020 
     48 O          23.0443  -32.1205  -36.8677 O.2       7 UNK        -0.5147 
     49 N          24.3091  -32.7375  -38.6470 N.am      8 UNK        -0.4734 
     50 CA         23.2753  -33.3577  -39.4725 C.3       8 UNK         0.0238 
     51 CB         23.7351  -34.7779  -39.8458 C.3       8 UNK        -0.1912 
     52 C          23.0534  -32.5137  -40.7384 C.2       8 UNK         0.5038 
     53 O          23.8905  -31.6692  -41.0714 O.2       8 UNK        -0.5046 
     54 N          21.9331  -32.7766  -41.4218 N.am      9 UNK        -0.4200 
     55 CA         21.5255  -32.1420  -42.6838 C.3       9 UNK         0.0839 
     56 C          22.5757  -32.3106  -43.8155 C.2       9 UNK         0.5513 
     57 N          22.9497  -31.2290  -44.4838 N.am      9 UNK        -0.7519 
     58 O          23.0099  -33.4203  -44.1173 O.2       9 UNK        -0.4960 
     59 C59        20.1453  -32.6751  -43.1557 C.3       10 UNK        -0.0876 
     60 S60        18.7925  -32.3732  -41.9659 S.3       10 UNK        -0.2414 
     61 C61        18.4829  -30.5880  -42.1512 C.3       10 UNK         0.0169 
     62 H62        17.4439  -23.0454  -47.5888 H         1 UNK         0.0903 
     63 H63        18.1339  -24.6669  -47.6593 H         1 UNK         0.0903 
     64 H64        16.7741  -24.2427  -48.7002 H         1 UNK         0.0903 
     65 H65        17.4905  -25.9668  -46.0137 H         1 UNK         0.3096 
     66 H66        16.4250  -27.0194  -44.4948 H         1 UNK         0.1121 
     67 H67        13.7225  -25.8118  -45.1680 H         1 UNK         0.0849 
     68 H68        14.4384  -27.1136  -46.0689 H         1 UNK         0.0849 
     69 H69        13.7264  -30.2434  -44.0524 H         1 UNK         0.0865 
     70 H70        13.8031  -29.5027  -45.6293 H         1 UNK         0.0865 
     71 H71        15.7990  -30.2693  -42.5599 H         1 UNK         0.1346 
     72 H72        19.5629  -30.0849  -44.5936 H         1 UNK         0.1412 
     73 H73        15.9564  -29.0684  -46.6750 H         1 UNK         0.1426 
     74 H74        19.4551  -29.9178  -47.1666 H         1 UNK         0.0716 
     75 H75        18.0163  -29.2703  -47.9027 H         1 UNK         0.0716 
     76 H76        20.9302  -28.8199  -45.7130 H         1 UNK         0.0695 
     77 H77        21.6500  -27.4054  -46.3870 H         1 UNK         0.0695 
     78 H78        20.8898  -25.9460  -44.6940 H         1 UNK         0.0983 
     79 H79        18.9009  -27.9847  -43.9458 H         1 UNK         0.3095 
     80 H80        17.1948  -27.4936  -42.6045 H         1 UNK         0.0454 
     81 H81        18.6159  -27.5359  -40.5918 H         1 UNK         0.0851 
     82 H82        18.2828  -25.8378  -40.2866 H         1 UNK         0.0851 
     83 H83        16.9824  -27.0260  -40.2021 H         1 UNK         0.0851 
     84 H84        16.5659  -24.8236  -41.6427 H         1 UNK         0.2976 
     85 H85        21.6571  -25.7322  -42.4933 H         1 UNK         0.3116 
     86 H86        22.7861  -27.9417  -41.0243 H         1 UNK         0.0646 
     87 H87        23.3747  -26.1632  -39.3915 H         1 UNK         0.0847 
     88 H88        21.7027  -26.0175  -39.9054 H         1 UNK         0.0847 
     89 H89        22.9231  -24.9184  -40.5488 H         1 UNK         0.0847 
     90 H90        24.1033  -28.5099  -43.0449 H         1 UNK         0.3040 
     91 H91        26.6226  -27.1836  -43.5145 H         1 UNK         0.1015 
     92 H92        25.5160  -28.6572  -45.2025 H         1 UNK         0.0786 
     93 H93        25.7172  -30.0509  -44.1399 H         1 UNK         0.0786 
     94 H94        27.1257  -29.2502  -44.8240 H         1 UNK         0.0786 
     95 H95        25.5342  -29.4484  -41.1061 H         1 UNK         0.3172 
     96 H96        27.9551  -29.2699  -39.5885 H         1 UNK         0.0595 
     97 H97        27.1046  -32.0555  -40.6002 H         1 UNK         0.0839 
     98 H98        28.4172  -31.7209  -39.4698 H         1 UNK         0.0839 
     99 H99        28.5476  -31.2031  -41.1332 H         1 UNK         0.0839 
    100 H100       27.1743  -31.5324  -37.9079 H         1 UNK         0.2998 
    101 H101       24.9435  -30.4529  -36.4195 H         1 UNK         0.0822 
    102 H102       26.8145  -31.6675  -35.3118 H         1 UNK         0.0787 
    103 H103       25.2904  -32.4836  -35.0083 H         1 UNK         0.0787 
    104 H104       26.4092  -33.1414  -36.1939 H         1 UNK         0.0787 
    105 H105       25.2022  -32.6097  -39.0997 H         1 UNK         0.3055 
    106 H106       22.3317  -33.4165  -38.9250 H         1 UNK         0.1106 
    107 H107       22.9797  -35.2958  -40.4383 H         1 UNK         0.0828 
    108 H108       24.6551  -34.7644  -40.4318 H         1 UNK         0.0828 
    109 H109       23.9146  -35.3817  -38.9560 H         1 UNK         0.0828 
    110 H110       21.3104  -33.4924  -41.0788 H         1 UNK         0.2931 
    111 H111       21.4301  -31.0754  -42.4756 H         1 UNK         0.0412 
    112 H112       23.6117  -31.3207  -45.2370 H         1 UNK         0.3472 
    113 H113       22.6210  -30.3071  -44.2045 H         1 UNK         0.3472 
    114 H114       20.2024  -33.7531  -43.3189 H         1 UNK         0.0970 
    115 H115       19.8693  -32.2603  -44.1242 H         1 UNK         0.0970 
    116 H116       19.4215  -30.0371  -42.0820 H         1 UNK         0.0612 
    117 H117       17.8865  -30.2575  -41.2994 H         1 UNK         0.0612 
@<TRIPOS>BOND
     1    1    2 1    
     2    1   62 1    
     3    1   63 1    
     4    1   64 1    
     5    2    3 2    
     6    2    4 am   BACKBONE|DICT|INTERRES
     7    4    5 1    
     8    4   65 1    
     9    5    6 1    
    10    5   25 1    
    11    5   66 1    
    12    6    7 1    
    13    6   67 1    
    14    6   68 1    
    15    7    8 1    
    16    8    9 1    
    17    8   69 1    
    18    8   70 1    
    19    9   10 ar   
    20    9   14 ar   
    21   10   11 ar   
    22   10   71 1    
    23   11   12 ar   
    24   11   61 1    
    25   12   13 ar   
    26   12   72 1    
    27   13   14 ar   
    28   13   15 1    
    29   14   73 1    
    30   15   16 1    
    31   15   74 1    
    32   15   75 1    
    33   16   17 1    
    34   17   18 1    
    35   17   76 1    
    36   17   77 1    
    37   18   19 1    
    38   18   27 1    
    39   18   78 1    
    40   19   20 am   BACKBONE|DICT|INTERRES
    41   19   79 1    
    42   20   21 2    
    43   20   22 1    
    44   22   23 1    
    45   22   24 1    
    46   22   80 1    
    47   23   81 1    
    48   23   82 1    
    49   23   83 1    
    50   24   25 am   BACKBONE|DICT|INTERRES
    51   24   84 1    
    52   25   26 2    
    53   27   28 2    
    54   27   29 am   BACKBONE|DICT|INTERRES
    55   29   30 1    
    56   29   85 1    
    57   30   31 1    
    58   30   32 1    
    59   30   86 1    
    60   31   87 1    
    61   31   88 1    
    62   31   89 1    
    63   32   33 2    
    64   32   34 am   BACKBONE|DICT|INTERRES
    65   34   35 1    
    66   34   90 1    
    67   35   36 1    
    68   35   37 1    
    69   35   91 1    
    70   36   92 1    
    71   36   93 1    
    72   36   94 1    
    73   37   38 2    
    74   37   39 am   BACKBONE|DICT|INTERRES
    75   39   40 1    
    76   39   95 1    
    77   40   41 1    
    78   40   42 1    
    79   40   96 1    
    80   41   97 1    
    81   41   98 1    
    82   41   99 1    
    83   42   43 2    
    84   42   44 am   BACKBONE|DICT|INTERRES
    85   44   45 1    
    86   44  100 1    
    87   45   46 1    
    88   45   47 1    
    89   45  101 1    
    90   46  102 1    
    91   46  103 1    
    92   46  104 1    
    93   47   48 2    
    94   47   49 am   BACKBONE|DICT|INTERRES
    95   49   50 1    
    96   49  105 1    
    97   50   51 1    
    98   50   52 1    
    99   50  106 1    
   100   51  107 1    
   101   51  108 1    
   102   51  109 1    
   103   52   53 2    
   104   52   54 am   BACKBONE|DICT|INTERRES
   105   54   55 1    
   106   54  110 1    
   107   55   56 1    
   108   55   59 1    
   109   55  111 1    
   110   56   57 am   BACKBONE|DICT|INTERRES
   111   56   58 2    
   112   57  112 1    
   113   57  113 1    
   114   59   60 1    
   115   59  114 1    
   116   59  115 1    
   117   60   61 1    
   118   61  116 1    
   119   61  117 1    
@<TRIPOS>SUBSTRUCTURE
     1 UNK         1 GROUP             0       ****    0 ROOT    
