@<TRIPOS>MOLECULE
3R8
117   119    1
SMALL
USER_CHARGES


@<TRIPOS>ATOM
      1 CA         16.9189  -21.8721  -40.2781 C.3       0 UNK        -0.2013 
      2 C          17.2576  -22.8473  -41.3957 C.2       0 UNK         0.4866 
      3 O          17.7984  -22.4371  -42.4232 O.2       0 UNK        -0.5176 
      4 N          16.9369  -24.1338  -41.2081 N.am      1 UNK        -0.4884 
      5 CA         17.2569  -25.2166  -42.1423 C.3       1 UNK         0.0853 
      6 C6         16.4076  -26.4758  -41.8376 C.3       10 UNK        -0.0849 
      7 S7         16.4022  -27.6909  -43.2006 S.3       10 UNK        -0.2776 
      8 C8         17.5679  -28.9217  -42.5338 C.3       10 UNK         0.0316 
      9 C9         17.8068  -30.0965  -43.4726 C.ar      10 UNK        -0.0863 
     10 C10        17.6538  -31.4070  -43.0071 C.ar      10 UNK        -0.1009 
     11 C11        17.9243  -32.4950  -43.8413 C.ar      10 UNK        -0.0712 
     12 C12        18.3424  -32.2612  -45.1552 C.ar      10 UNK        -0.0894 
     13 C13        18.5132  -30.9590  -45.6343 C.ar      10 UNK        -0.0745 
     14 C14        18.2379  -29.8803  -44.7850 C.ar      10 UNK        -0.0972 
     15 C15        18.9671  -30.7543  -47.0787 C.3       10 UNK         0.0209 
     16 S16        20.0067  -29.2808  -47.3542 S.3       10 UNK        -0.2568 
     17 C17        21.5072  -29.6962  -46.4075 C.3       10 UNK        -0.0983 
     18 CA         22.3396  -28.4362  -46.0441 C.3       3 UNK         0.0876 
     19 N          21.8706  -27.7400  -44.8475 N.am      3 UNK        -0.4424 
     20 C          20.9457  -26.7797  -44.8009 C.2       2 UNK         0.4918 
     21 O          20.2818  -26.3926  -45.7644 O.2       2 UNK        -0.4875 
     22 CA         20.7715  -26.0866  -43.4473 C.3       2 UNK         0.0481 
     23 CB         21.6577  -24.8288  -43.3690 C.3       2 UNK        -0.1831 
     24 N          19.3710  -25.7214  -43.2794 N.am      2 UNK        -0.4498 
     25 C          18.7688  -25.5233  -42.1030 C.2       1 UNK         0.5027 
     26 O          19.3475  -25.6073  -41.0149 O.2       1 UNK        -0.4969 
     27 C          23.8007  -28.7839  -45.7374 C.2       3 UNK         0.5005 
     28 O          24.0502  -29.7370  -44.9962 O.2       3 UNK        -0.5279 
     29 N          24.7315  -27.9525  -46.2307 N.am      4 UNK        -0.4463 
     30 CA         26.1815  -27.9336  -45.9668 C.3       4 UNK         0.0283 
     31 CB         26.8622  -29.2635  -46.3473 C.3       4 UNK        -0.1875 
     32 C          26.5408  -27.5069  -44.5302 C.2       4 UNK         0.4949 
     33 O          27.3949  -26.6377  -44.3549 O.2       4 UNK        -0.5039 
     34 N          25.8604  -28.0916  -43.5418 N.am      5 UNK        -0.4663 
     35 CA         25.8592  -27.6968  -42.1371 C.3       5 UNK         0.0242 
     36 CB         26.3193  -28.8939  -41.2889 C.3       5 UNK        -0.1982 
     37 C          24.4334  -27.2851  -41.7451 C.2       5 UNK         0.5017 
     38 O          23.4739  -27.6929  -42.4074 O.2       5 UNK        -0.5012 
     39 N          24.3178  -26.5049  -40.6624 N.am      6 UNK        -0.4439 
     40 CA         23.0444  -26.1317  -40.0401 C.3       6 UNK         0.0297 
     41 CB         23.2901  -25.0438  -38.9833 C.3       6 UNK        -0.2006 
     42 C          22.3575  -27.3531  -39.4110 C.2       6 UNK         0.4892 
     43 O          23.0472  -28.2219  -38.8708 O.2       6 UNK        -0.5089 
     44 N          21.0224  -27.4050  -39.5105 N.am      7 UNK        -0.4243 
     45 CA         20.1169  -28.4901  -39.1004 C.3       7 UNK         0.0196 
     46 CB         20.2145  -28.7885  -37.5913 C.3       7 UNK        -0.2007 
     47 C          20.2492  -29.7757  -39.9402 C.2       7 UNK         0.5020 
     48 O          19.2210  -30.3489  -40.2933 O.2       7 UNK        -0.5147 
     49 N          21.4877  -30.1721  -40.2677 N.am      8 UNK        -0.4734 
     50 CA         21.9018  -31.2642  -41.1593 C.3       8 UNK         0.0238 
     51 CB         21.5211  -30.9168  -42.6148 C.3       8 UNK        -0.1912 
     52 C          21.4005  -32.6636  -40.7387 C.2       8 UNK         0.5038 
     53 O          20.8315  -32.8287  -39.6567 O.2       8 UNK        -0.5046 
     54 N          21.6650  -33.6604  -41.5963 N.am      9 UNK        -0.4200 
     55 CA         21.2322  -35.0641  -41.4606 C.3       9 UNK         0.0839 
     56 C          21.7452  -35.7990  -40.1821 C.2       9 UNK         0.5513 
     57 N          22.8595  -35.3824  -39.5925 N.am      9 UNK        -0.7519 
     58 O          21.1538  -36.7793  -39.7359 O.2       9 UNK        -0.4960 
     59 C59        19.7036  -35.2294  -41.7072 C.3       10 UNK        -0.0876 
     60 S60        19.2716  -34.9012  -43.4521 S.3       10 UNK        -0.2414 
     61 C61        17.7371  -33.9216  -43.3389 C.3       10 UNK         0.0169 
     62 H62        16.2487  -21.0962  -40.6473 H         1 UNK         0.0903 
     63 H63        16.4335  -22.3671  -39.4371 H         1 UNK         0.0903 
     64 H64        17.8262  -21.3928  -39.9115 H         1 UNK         0.0903 
     65 H65        16.5252  -24.4177  -40.3303 H         1 UNK         0.3096 
     66 H66        16.9997  -24.8659  -43.1449 H         1 UNK         0.1121 
     67 H67        15.3676  -26.1839  -41.6818 H         1 UNK         0.0849 
     68 H68        16.7214  -26.9480  -40.9042 H         1 UNK         0.0849 
     69 H69        18.5281  -28.4490  -42.3254 H         1 UNK         0.0865 
     70 H70        17.1809  -29.2740  -41.5765 H         1 UNK         0.0865 
     71 H71        17.3400  -31.5801  -41.9865 H         1 UNK         0.1346 
     72 H72        18.5410  -33.1029  -45.8048 H         1 UNK         0.1412 
     73 H73        18.3625  -28.8665  -45.1398 H         1 UNK         0.1426 
     74 H74        18.0800  -30.6729  -47.7078 H         1 UNK         0.0716 
     75 H75        19.5169  -31.6287  -47.4308 H         1 UNK         0.0716 
     76 H76        22.0876  -30.3822  -47.0276 H         1 UNK         0.0695 
     77 H77        21.2404  -30.2524  -45.5075 H         1 UNK         0.0695 
     78 H78        22.3271  -27.7472  -46.8919 H         1 UNK         0.0983 
     79 H79        22.4068  -27.9324  -44.0026 H         1 UNK         0.3095 
     80 H80        21.0462  -26.7871  -42.6564 H         1 UNK         0.0454 
     81 H81        22.7143  -25.0919  -43.4299 H         1 UNK         0.0851 
     82 H82        21.5103  -24.2867  -42.4353 H         1 UNK         0.0851 
     83 H83        21.4451  -24.1381  -44.1859 H         1 UNK         0.0851 
     84 H84        18.8412  -25.6794  -44.1415 H         1 UNK         0.2976 
     85 H85        24.4048  -27.1763  -46.7908 H         1 UNK         0.3116 
     86 H86        26.5860  -27.1661  -46.6289 H         1 UNK         0.0646 
     87 H87        26.5492  -30.0865  -45.7044 H         1 UNK         0.0847 
     88 H88        26.6431  -29.5410  -47.3782 H         1 UNK         0.0847 
     89 H89        27.9460  -29.1817  -46.2570 H         1 UNK         0.0847 
     90 H90        25.1405  -28.7604  -43.8092 H         1 UNK         0.3040 
     91 H91        26.5293  -26.8501  -41.9721 H         1 UNK         0.1015 
     92 H92        26.3366  -28.6423  -40.2276 H         1 UNK         0.0786 
     93 H93        27.3261  -29.2090  -41.5639 H         1 UNK         0.0786 
     94 H94        25.6557  -29.7515  -41.4098 H         1 UNK         0.0786 
     95 H95        25.1541  -26.2526  -40.1561 H         1 UNK         0.3172 
     96 H96        22.3921  -25.7231  -40.8113 H         1 UNK         0.0595 
     97 H97        23.9398  -25.3980  -38.1817 H         1 UNK         0.0839 
     98 H98        22.3518  -24.7272  -38.5255 H         1 UNK         0.0839 
     99 H99        23.7487  -24.1579  -39.4231 H         1 UNK         0.0839 
    100 H100       20.5542  -26.6465  -40.0040 H         1 UNK         0.2998 
    101 H101       19.1133  -28.1042  -39.2879 H         1 UNK         0.0822 
    102 H102       19.4477  -29.5035  -37.2902 H         1 UNK         0.0787 
    103 H103       20.0685  -27.8859  -36.9980 H         1 UNK         0.0787 
    104 H104       21.1781  -29.2191  -37.3186 H         1 UNK         0.0787 
    105 H105       22.2441  -29.6325  -39.8545 H         1 UNK         0.3055 
    106 H106       22.9907  -31.2974  -41.0974 H         1 UNK         0.1106 
    107 H107       21.8336  -29.9056  -42.8732 H         1 UNK         0.0828 
    108 H108       21.9994  -31.5840  -43.3318 H         1 UNK         0.0828 
    109 H109       20.4457  -30.9823  -42.7747 H         1 UNK         0.0828 
    110 H110       22.1628  -33.4457  -42.4474 H         1 UNK         0.2931 
    111 H111       21.7401  -35.5933  -42.2679 H         1 UNK         0.0412 
    112 H112       23.3609  -34.5856  -39.9510 H         1 UNK         0.3472 
    113 H113       23.1952  -35.8646  -38.7734 H         1 UNK         0.3472 
    114 H114       19.3751  -36.2475  -41.4920 H         1 UNK         0.0970 
    115 H115       19.1378  -34.5810  -41.0369 H         1 UNK         0.0970 
    116 H116       17.3537  -33.9302  -42.3178 H         1 UNK         0.0612 
    117 H117       16.9746  -34.4061  -43.9500 H         1 UNK         0.0612 
@<TRIPOS>BOND
     1    1    2 1    
     2    1   62 1    
     3    1   63 1    
     4    1   64 1    
     5    2    3 2    
     6    2    4 am   BACKBONE|DICT|INTERRES
     7    4    5 1    
     8    4   65 1    
     9    5    6 1    
    10    5   25 1    
    11    5   66 1    
    12    6    7 1    
    13    6   67 1    
    14    6   68 1    
    15    7    8 1    
    16    8    9 1    
    17    8   69 1    
    18    8   70 1    
    19    9   10 ar   
    20    9   14 ar   
    21   10   11 ar   
    22   10   71 1    
    23   11   12 ar   
    24   11   61 1    
    25   12   13 ar   
    26   12   72 1    
    27   13   14 ar   
    28   13   15 1    
    29   14   73 1    
    30   15   16 1    
    31   15   74 1    
    32   15   75 1    
    33   16   17 1    
    34   17   18 1    
    35   17   76 1    
    36   17   77 1    
    37   18   19 1    
    38   18   27 1    
    39   18   78 1    
    40   19   20 am   BACKBONE|DICT|INTERRES
    41   19   79 1    
    42   20   21 2    
    43   20   22 1    
    44   22   23 1    
    45   22   24 1    
    46   22   80 1    
    47   23   81 1    
    48   23   82 1    
    49   23   83 1    
    50   24   25 am   BACKBONE|DICT|INTERRES
    51   24   84 1    
    52   25   26 2    
    53   27   28 2    
    54   27   29 am   BACKBONE|DICT|INTERRES
    55   29   30 1    
    56   29   85 1    
    57   30   31 1    
    58   30   32 1    
    59   30   86 1    
    60   31   87 1    
    61   31   88 1    
    62   31   89 1    
    63   32   33 2    
    64   32   34 am   BACKBONE|DICT|INTERRES
    65   34   35 1    
    66   34   90 1    
    67   35   36 1    
    68   35   37 1    
    69   35   91 1    
    70   36   92 1    
    71   36   93 1    
    72   36   94 1    
    73   37   38 2    
    74   37   39 am   BACKBONE|DICT|INTERRES
    75   39   40 1    
    76   39   95 1    
    77   40   41 1    
    78   40   42 1    
    79   40   96 1    
    80   41   97 1    
    81   41   98 1    
    82   41   99 1    
    83   42   43 2    
    84   42   44 am   BACKBONE|DICT|INTERRES
    85   44   45 1    
    86   44  100 1    
    87   45   46 1    
    88   45   47 1    
    89   45  101 1    
    90   46  102 1    
    91   46  103 1    
    92   46  104 1    
    93   47   48 2    
    94   47   49 am   BACKBONE|DICT|INTERRES
    95   49   50 1    
    96   49  105 1    
    97   50   51 1    
    98   50   52 1    
    99   50  106 1    
   100   51  107 1    
   101   51  108 1    
   102   51  109 1    
   103   52   53 2    
   104   52   54 am   BACKBONE|DICT|INTERRES
   105   54   55 1    
   106   54  110 1    
   107   55   56 1    
   108   55   59 1    
   109   55  111 1    
   110   56   57 am   BACKBONE|DICT|INTERRES
   111   56   58 2    
   112   57  112 1    
   113   57  113 1    
   114   59   60 1    
   115   59  114 1    
   116   59  115 1    
   117   60   61 1    
   118   61  116 1    
   119   61  117 1    
@<TRIPOS>SUBSTRUCTURE
     1 UNK         1 GROUP             0       ****    0 ROOT    
