@<TRIPOS>MOLECULE
3R8
117   119    1
SMALL
USER_CHARGES


@<TRIPOS>ATOM
      1 CA         15.5264  -22.9006  -46.6686 C.3       0 UNK        -0.2013 
      2 C          16.4917  -24.0094  -46.2790 C.2       0 UNK         0.4866 
      3 O          17.3216  -24.4159  -47.0931 O.2       0 UNK        -0.5176 
      4 N          16.4065  -24.4945  -45.0339 N.am      1 UNK        -0.4884 
      5 CA         17.2132  -25.5881  -44.4722 C.3       1 UNK         0.0853 
      6 C6         16.4900  -26.2680  -43.2784 C.3       10 UNK        -0.0849 
      7 S7         14.9658  -27.1204  -43.8111 S.3       10 UNK        -0.2776 
      8 C8         15.0381  -28.6803  -42.8557 C.3       10 UNK         0.0316 
      9 C9         16.2520  -29.5743  -43.1242 C.ar      10 UNK        -0.0863 
     10 C10        16.6626  -30.4660  -42.1269 C.ar      10 UNK        -0.1009 
     11 C11        17.7615  -31.3064  -42.3266 C.ar      10 UNK        -0.0712 
     12 C12        18.4672  -31.2416  -43.5311 C.ar      10 UNK        -0.0894 
     13 C13        18.0713  -30.3615  -44.5416 C.ar      10 UNK        -0.0745 
     14 C14        16.9512  -29.5473  -44.3385 C.ar      10 UNK        -0.0972 
     15 C15        18.8235  -30.3282  -45.8672 C.3       10 UNK         0.0209 
     16 S16        19.3401  -28.6418  -46.3346 S.3       10 UNK        -0.2568 
     17 C17        21.1712  -28.7302  -46.3634 C.3       10 UNK        -0.0983 
     18 CA         21.8693  -27.7415  -45.3903 C.3       3 UNK         0.0876 
     19 N          21.2617  -26.4122  -45.4599 N.am      3 UNK        -0.4424 
     20 C          21.6995  -25.2911  -44.8760 C.2       2 UNK         0.4918 
     21 O          22.7626  -25.2053  -44.2638 O.2       2 UNK        -0.4875 
     22 CA         20.7506  -24.0789  -44.9467 C.3       2 UNK         0.0481 
     23 CB         21.1195  -23.1725  -46.1306 C.3       2 UNK        -0.1831 
     24 N          19.3370  -24.4678  -45.0515 N.am      2 UNK        -0.4498 
     25 C          18.6509  -25.1400  -44.1157 C.2       1 UNK         0.5027 
     26 O          19.1374  -25.4357  -43.0242 O.2       1 UNK        -0.4969 
     27 C          21.9511  -28.3167  -43.9596 C.2       3 UNK         0.5005 
     28 O          22.8397  -29.1271  -43.7046 O.2       3 UNK        -0.5279 
     29 N          21.0601  -27.8846  -43.0539 N.am      4 UNK        -0.4463 
     30 CA         20.9876  -28.3511  -41.6665 C.3       4 UNK         0.0283 
     31 CB         19.5581  -28.1337  -41.1437 C.3       4 UNK        -0.1875 
     32 C          22.0069  -27.6802  -40.7262 C.2       4 UNK         0.4949 
     33 O          22.0443  -28.0276  -39.5444 O.2       4 UNK        -0.5039 
     34 N          22.7925  -26.7150  -41.2269 N.am      5 UNK        -0.4663 
     35 CA         23.7852  -25.9449  -40.4717 C.3       5 UNK         0.0242 
     36 CB         24.1739  -24.6993  -41.2886 C.3       5 UNK        -0.1982 
     37 C          25.0111  -26.7939  -40.0791 C.2       5 UNK         0.5017 
     38 O          26.0721  -26.6638  -40.6923 O.2       5 UNK        -0.5012 
     39 N          24.8248  -27.6541  -39.0673 N.am      6 UNK        -0.4439 
     40 CA         25.7938  -28.6022  -38.5005 C.3       6 UNK         0.0297 
     41 CB         26.9638  -27.8585  -37.8210 C.3       6 UNK        -0.2006 
     42 C          26.2606  -29.6604  -39.5205 C.2       6 UNK         0.4892 
     43 O          27.4355  -30.0328  -39.5361 O.2       6 UNK        -0.5089 
     44 N          25.3237  -30.1250  -40.3527 N.am      7 UNK        -0.4243 
     45 CA         25.5169  -31.1057  -41.4143 C.3       7 UNK         0.0196 
     46 CB         26.1611  -30.4246  -42.6390 C.3       7 UNK        -0.2007 
     47 C          24.1531  -31.7149  -41.7648 C.2       7 UNK         0.5020 
     48 O          23.1323  -31.2682  -41.2358 O.2       7 UNK        -0.5147 
     49 N          24.1695  -32.7243  -42.6471 N.am      8 UNK        -0.4734 
     50 CA         23.0397  -33.4191  -43.2892 C.3       8 UNK         0.0238 
     51 CB         22.2052  -32.4422  -44.1417 C.3       8 UNK        -0.1912 
     52 C          22.1257  -34.2365  -42.3571 C.2       8 UNK         0.5038 
     53 O          21.7646  -35.3591  -42.7125 O.2       8 UNK        -0.5046 
     54 N          21.7530  -33.6678  -41.2078 N.am      9 UNK        -0.4200 
     55 CA         20.7973  -34.2334  -40.2429 C.3       9 UNK         0.0839 
     56 C          21.3597  -35.3842  -39.3597 C.2       9 UNK         0.5513 
     57 N          22.6544  -35.6768  -39.3890 N.am      9 UNK        -0.7519 
     58 O          20.6031  -36.0276  -38.6369 O.2       9 UNK        -0.4960 
     59 C59        20.1254  -33.1359  -39.3697 C.3       10 UNK        -0.0876 
     60 S60        19.5873  -31.6558  -40.2949 S.3       10 UNK        -0.2414 
     61 C61        18.1841  -32.2969  -41.2526 C.3       10 UNK         0.0169 
     62 H62        14.9226  -23.2124  -47.5204 H         1 UNK         0.0903 
     63 H63        14.8525  -22.6406  -45.8525 H         1 UNK         0.0903 
     64 H64        16.0785  -22.0048  -46.9517 H         1 UNK         0.0903 
     65 H65        15.7142  -24.1095  -44.4066 H         1 UNK         0.3096 
     66 H66        17.3352  -26.3470  -45.2489 H         1 UNK         0.1121 
     67 H67        16.2407  -25.5375  -42.5068 H         1 UNK         0.0849 
     68 H68        17.1415  -26.9998  -42.7987 H         1 UNK         0.0849 
     69 H69        14.9959  -28.4262  -41.7952 H         1 UNK         0.0865 
     70 H70        14.1362  -29.2555  -43.0683 H         1 UNK         0.0865 
     71 H71        16.1230  -30.5106  -41.1905 H         1 UNK         0.1346 
     72 H72        19.3182  -31.8902  -43.6810 H         1 UNK         0.1412 
     73 H73        16.6335  -28.8869  -45.1328 H         1 UNK         0.1426 
     74 H74        18.1660  -30.7151  -46.6467 H         1 UNK         0.0716 
     75 H75        19.6841  -30.9973  -45.8404 H         1 UNK         0.0716 
     76 H76        21.5155  -29.7528  -46.1989 H         1 UNK         0.0695 
     77 H77        21.4775  -28.4910  -47.3828 H         1 UNK         0.0695 
     78 H78        22.9040  -27.6287  -45.7217 H         1 UNK         0.0983 
     79 H79        20.3760  -26.3789  -45.9438 H         1 UNK         0.3095 
     80 H80        20.8746  -23.5078  -44.0244 H         1 UNK         0.0454 
     81 H81        22.1603  -22.8518  -46.0667 H         1 UNK         0.0851 
     82 H82        20.9932  -23.6829  -47.0862 H         1 UNK         0.0851 
     83 H83        20.5053  -22.2721  -46.1473 H         1 UNK         0.0851 
     84 H84        18.8580  -24.2757  -45.9278 H         1 UNK         0.2976 
     85 H85        20.3897  -27.1734  -43.3199 H         1 UNK         0.3116 
     86 H86        21.1898  -29.4237  -41.6546 H         1 UNK         0.0646 
     87 H87        19.4266  -28.5991  -40.1663 H         1 UNK         0.0847 
     88 H88        18.8210  -28.5765  -41.8119 H         1 UNK         0.0847 
     89 H89        19.3219  -27.0761  -41.0290 H         1 UNK         0.0847 
     90 H90        22.7119  -26.4985  -42.2118 H         1 UNK         0.3040 
     91 H91        23.3176  -25.5969  -39.5477 H         1 UNK         0.1015 
     92 H92        23.3049  -24.0760  -41.5010 H         1 UNK         0.0786 
     93 H93        24.6322  -24.9674  -42.2415 H         1 UNK         0.0786 
     94 H94        24.8903  -24.0828  -40.7441 H         1 UNK         0.0786 
     95 H95        23.8703  -27.7439  -38.7298 H         1 UNK         0.3172 
     96 H96        25.2597  -29.1503  -37.7229 H         1 UNK         0.0595 
     97 H97        27.6107  -28.5547  -37.2858 H         1 UNK         0.0839 
     98 H98        26.6038  -27.1300  -37.0946 H         1 UNK         0.0839 
     99 H99        27.5855  -27.3317  -38.5456 H         1 UNK         0.0839 
    100 H100       24.3622  -29.8213  -40.2500 H         1 UNK         0.2998 
    101 H101       26.1647  -31.9056  -41.0493 H         1 UNK         0.0822 
    102 H102       27.1268  -29.9848  -42.3896 H         1 UNK         0.0787 
    103 H103       26.3328  -31.1346  -43.4484 H         1 UNK         0.0787 
    104 H104       25.5253  -29.6293  -43.0309 H         1 UNK         0.0787 
    105 H105       25.0778  -33.0313  -42.9681 H         1 UNK         0.3055 
    106 H106       23.4916  -34.1385  -43.9745 H         1 UNK         0.1106 
    107 H107       21.7199  -31.6823  -43.5280 H         1 UNK         0.0828 
    108 H108       22.8249  -31.9265  -44.8752 H         1 UNK         0.0828 
    109 H109       21.4231  -32.9691  -44.6897 H         1 UNK         0.0828 
    110 H110       22.0961  -32.7281  -41.0174 H         1 UNK         0.2931 
    111 H111       20.0040  -34.6973  -40.8309 H         1 UNK         0.0412 
    112 H112       23.2791  -35.1565  -39.9838 H         1 UNK         0.3472 
    113 H113       23.0069  -36.4270  -38.8152 H         1 UNK         0.3472 
    114 H114       19.2652  -33.5456  -38.8369 H         1 UNK         0.0970 
    115 H115       20.8206  -32.7947  -38.6004 H         1 UNK         0.0970 
    116 H116       17.3554  -32.5159  -40.5776 H         1 UNK         0.0612 
    117 H117       18.4571  -33.2396  -41.7272 H         1 UNK         0.0612 
@<TRIPOS>BOND
     1    1    2 1    
     2    1   62 1    
     3    1   63 1    
     4    1   64 1    
     5    2    3 2    
     6    2    4 am   BACKBONE|DICT|INTERRES
     7    4    5 1    
     8    4   65 1    
     9    5    6 1    
    10    5   25 1    
    11    5   66 1    
    12    6    7 1    
    13    6   67 1    
    14    6   68 1    
    15    7    8 1    
    16    8    9 1    
    17    8   69 1    
    18    8   70 1    
    19    9   10 ar   
    20    9   14 ar   
    21   10   11 ar   
    22   10   71 1    
    23   11   12 ar   
    24   11   61 1    
    25   12   13 ar   
    26   12   72 1    
    27   13   14 ar   
    28   13   15 1    
    29   14   73 1    
    30   15   16 1    
    31   15   74 1    
    32   15   75 1    
    33   16   17 1    
    34   17   18 1    
    35   17   76 1    
    36   17   77 1    
    37   18   19 1    
    38   18   27 1    
    39   18   78 1    
    40   19   20 am   BACKBONE|DICT|INTERRES
    41   19   79 1    
    42   20   21 2    
    43   20   22 1    
    44   22   23 1    
    45   22   24 1    
    46   22   80 1    
    47   23   81 1    
    48   23   82 1    
    49   23   83 1    
    50   24   25 am   BACKBONE|DICT|INTERRES
    51   24   84 1    
    52   25   26 2    
    53   27   28 2    
    54   27   29 am   BACKBONE|DICT|INTERRES
    55   29   30 1    
    56   29   85 1    
    57   30   31 1    
    58   30   32 1    
    59   30   86 1    
    60   31   87 1    
    61   31   88 1    
    62   31   89 1    
    63   32   33 2    
    64   32   34 am   BACKBONE|DICT|INTERRES
    65   34   35 1    
    66   34   90 1    
    67   35   36 1    
    68   35   37 1    
    69   35   91 1    
    70   36   92 1    
    71   36   93 1    
    72   36   94 1    
    73   37   38 2    
    74   37   39 am   BACKBONE|DICT|INTERRES
    75   39   40 1    
    76   39   95 1    
    77   40   41 1    
    78   40   42 1    
    79   40   96 1    
    80   41   97 1    
    81   41   98 1    
    82   41   99 1    
    83   42   43 2    
    84   42   44 am   BACKBONE|DICT|INTERRES
    85   44   45 1    
    86   44  100 1    
    87   45   46 1    
    88   45   47 1    
    89   45  101 1    
    90   46  102 1    
    91   46  103 1    
    92   46  104 1    
    93   47   48 2    
    94   47   49 am   BACKBONE|DICT|INTERRES
    95   49   50 1    
    96   49  105 1    
    97   50   51 1    
    98   50   52 1    
    99   50  106 1    
   100   51  107 1    
   101   51  108 1    
   102   51  109 1    
   103   52   53 2    
   104   52   54 am   BACKBONE|DICT|INTERRES
   105   54   55 1    
   106   54  110 1    
   107   55   56 1    
   108   55   59 1    
   109   55  111 1    
   110   56   57 am   BACKBONE|DICT|INTERRES
   111   56   58 2    
   112   57  112 1    
   113   57  113 1    
   114   59   60 1    
   115   59  114 1    
   116   59  115 1    
   117   60   61 1    
   118   61  116 1    
   119   61  117 1    
@<TRIPOS>SUBSTRUCTURE
     1 UNK         1 GROUP             0       ****    0 ROOT    
