@<TRIPOS>MOLECULE
3R8
117   119    1
SMALL
USER_CHARGES


@<TRIPOS>ATOM
      1 CA         16.3809  -24.9347  -42.2050 C.3       0 UNK        -0.2013 
      2 C          17.3957  -25.8380  -42.8886 C.2       0 UNK         0.4866 
      3 O          18.0691  -26.6152  -42.2129 O.2       0 UNK        -0.5176 
      4 N          17.5049  -25.7425  -44.2219 N.am      1 UNK        -0.4884 
      5 CA         18.4272  -26.5049  -45.0808 C.3       1 UNK         0.0853 
      6 C6         18.1029  -28.0282  -45.1282 C.3       10 UNK        -0.0849 
      7 S7         16.3878  -28.4009  -45.6328 S.3       10 UNK        -0.2776 
      8 C8         15.6318  -28.9704  -44.0722 C.3       10 UNK         0.0316 
      9 C9         16.3185  -30.2064  -43.5052 C.ar      10 UNK        -0.0863 
     10 C10        16.2096  -31.4367  -44.1606 C.ar      10 UNK        -0.1009 
     11 C11        16.8492  -32.5721  -43.6534 C.ar      10 UNK        -0.0712 
     12 C12        17.5870  -32.4714  -42.4708 C.ar      10 UNK        -0.0894 
     13 C13        17.7027  -31.2479  -41.8037 C.ar      10 UNK        -0.0745 
     14 C14        17.0626  -30.1195  -42.3235 C.ar      10 UNK        -0.0972 
     15 C15        18.5122  -31.1544  -40.5185 C.3       10 UNK         0.0209 
     16 S16        20.2160  -30.5959  -40.8349 S.3       10 UNK        -0.2568 
     17 C17        20.1030  -28.8322  -40.3981 C.3       10 UNK        -0.0983 
     18 CA         21.3183  -28.0086  -40.8942 C.3       3 UNK         0.0876 
     19 N          21.3580  -27.8763  -42.3596 N.am      3 UNK        -0.4424 
     20 C          22.3881  -27.3669  -43.0572 C.2       2 UNK         0.4918 
     21 O          23.4472  -27.0277  -42.5346 O.2       2 UNK        -0.4875 
     22 CA         22.2097  -27.1174  -44.5676 C.3       2 UNK         0.0481 
     23 CB         23.0646  -28.0835  -45.4020 C.3       2 UNK        -0.1831 
     24 N          20.8118  -27.1645  -45.0052 N.am      2 UNK        -0.4498 
     25 C          19.9057  -26.2192  -44.7119 C.2       1 UNK         0.5027 
     26 O          20.2075  -25.1652  -44.1450 O.2       1 UNK        -0.4969 
     27 C          21.3833  -26.6468  -40.1666 C.2       3 UNK         0.5005 
     28 O          21.8024  -26.6064  -39.0093 O.2       3 UNK        -0.5279 
     29 N          21.0122  -25.5536  -40.8507 N.am      4 UNK        -0.4463 
     30 CA         21.1929  -24.1813  -40.3723 C.3       4 UNK         0.0283 
     31 CB         20.3635  -23.2295  -41.2488 C.3       4 UNK        -0.1875 
     32 C          22.6688  -23.7333  -40.3418 C.2       4 UNK         0.4949 
     33 O          22.9941  -22.8173  -39.5861 O.2       4 UNK        -0.5039 
     34 N          23.5257  -24.3638  -41.1584 N.am      5 UNK        -0.4663 
     35 CA         24.9541  -24.0601  -41.2710 C.3       5 UNK         0.0242 
     36 CB         25.3277  -23.9404  -42.7586 C.3       5 UNK        -0.1982 
     37 C          25.8217  -25.1262  -40.5847 C.2       5 UNK         0.5017 
     38 O          26.7560  -24.7689  -39.8661 O.2       5 UNK        -0.5012 
     39 N          25.5111  -26.4059  -40.8224 N.am      6 UNK        -0.4439 
     40 CA         26.2387  -27.5658  -40.3184 C.3       6 UNK         0.0297 
     41 CB         27.4539  -27.8677  -41.2210 C.3       6 UNK        -0.2006 
     42 C          25.2621  -28.7414  -40.1843 C.2       6 UNK         0.4892 
     43 O          24.6426  -28.8859  -39.1303 O.2       6 UNK        -0.5089 
     44 N          25.1300  -29.5515  -41.2412 N.am      7 UNK        -0.4243 
     45 CA         24.2418  -30.7083  -41.3130 C.3       7 UNK         0.0196 
     46 CB         24.9593  -31.9545  -40.7651 C.3       7 UNK        -0.2007 
     47 C          23.8111  -30.9215  -42.7677 C.2       7 UNK         0.5020 
     48 O          24.5842  -30.6248  -43.6813 O.2       7 UNK        -0.5147 
     49 N          22.5966  -31.4490  -42.9435 N.am      8 UNK        -0.4734 
     50 CA         22.0057  -31.8448  -44.2214 C.3       8 UNK         0.0238 
     51 CB         20.7139  -31.0253  -44.4534 C.3       8 UNK        -0.1912 
     52 C          21.7704  -33.3667  -44.1996 C.2       8 UNK         0.5038 
     53 O          22.6545  -34.1134  -43.7761 O.2       8 UNK        -0.5046 
     54 N          20.5819  -33.7970  -44.6351 N.am      9 UNK        -0.4200 
     55 CA         20.0701  -35.1763  -44.6212 C.3       9 UNK         0.0839 
     56 C          19.7747  -35.7799  -43.2129 C.2       9 UNK         0.5513 
     57 N          20.0263  -35.0839  -42.1116 N.am      9 UNK        -0.7519 
     58 O          19.3207  -36.9170  -43.1164 O.2       9 UNK        -0.4960 
     59 C59        18.8820  -35.3588  -45.6188 C.3       10 UNK        -0.0876 
     60 S60        17.8074  -33.8960  -45.8675 S.3       10 UNK        -0.2414 
     61 C61        16.7458  -33.9002  -44.3901 C.3       10 UNK         0.0169 
     62 H62        16.8739  -24.3183  -41.4541 H         1 UNK         0.0903 
     63 H63        15.8803  -24.2736  -42.9121 H         1 UNK         0.0903 
     64 H64        15.6221  -25.5369  -41.7062 H         1 UNK         0.0903 
     65 H65        16.9356  -25.0650  -44.7096 H         1 UNK         0.3096 
     66 H66        18.2986  -26.1072  -46.0888 H         1 UNK         0.1121 
     67 H67        18.3199  -28.4933  -44.1668 H         1 UNK         0.0849 
     68 H68        18.7368  -28.5368  -45.8558 H         1 UNK         0.0849 
     69 H69        15.6415  -28.1549  -43.3484 H         1 UNK         0.0865 
     70 H70        14.5807  -29.1989  -44.2538 H         1 UNK         0.0865 
     71 H71        15.6413  -31.5066  -45.0784 H         1 UNK         0.1346 
     72 H72        18.0729  -33.3466  -42.0672 H         1 UNK         0.1412 
     73 H73        17.1514  -29.1706  -41.8122 H         1 UNK         0.1426 
     74 H74        18.5531  -32.1308  -40.0334 H         1 UNK         0.0716 
     75 H75        18.0198  -30.4880  -39.8087 H         1 UNK         0.0716 
     76 H76        20.0217  -28.7850  -39.3101 H         1 UNK         0.0695 
     77 H77        19.1733  -28.4208  -40.7888 H         1 UNK         0.0695 
     78 H78        22.2240  -28.5357  -40.5945 H         1 UNK         0.0983 
     79 H79        20.5041  -28.1097  -42.8429 H         1 UNK         0.3095 
     80 H80        22.5866  -26.1107  -44.7615 H         1 UNK         0.0454 
     81 H81        23.0199  -27.8375  -46.4628 H         1 UNK         0.0851 
     82 H82        22.7569  -29.1203  -45.2858 H         1 UNK         0.0851 
     83 H83        24.1130  -28.0288  -45.1045 H         1 UNK         0.0851 
     84 H84        20.5201  -27.9867  -45.5128 H         1 UNK         0.2976 
     85 H85        20.6315  -25.6668  -41.7822 H         1 UNK         0.3116 
     86 H86        20.8091  -24.1240  -39.3515 H         1 UNK         0.0646 
     87 H87        20.7109  -23.2268  -42.2827 H         1 UNK         0.0847 
     88 H88        20.4290  -22.2045  -40.8813 H         1 UNK         0.0847 
     89 H89        19.3094  -23.5061  -41.2502 H         1 UNK         0.0847 
     90 H90        23.1846  -25.1368  -41.7158 H         1 UNK         0.3040 
     91 H91        25.1755  -23.1022  -40.7945 H         1 UNK         0.1015 
     92 H92        25.1257  -24.8620  -43.3062 H         1 UNK         0.0786 
     93 H93        26.3885  -23.7157  -42.8777 H         1 UNK         0.0786 
     94 H94        24.7709  -23.1370  -43.2413 H         1 UNK         0.0786 
     95 H95        24.7163  -26.6178  -41.4267 H         1 UNK         0.3172 
     96 H96        26.6066  -27.3493  -39.3131 H         1 UNK         0.0595 
     97 H97        27.1744  -27.9644  -42.2706 H         1 UNK         0.0839 
     98 H98        27.9474  -28.7929  -40.9199 H         1 UNK         0.0839 
     99 H99        28.1970  -27.0729  -41.1531 H         1 UNK         0.0839 
    100 H100       25.6197  -29.3436  -42.1024 H         1 UNK         0.2998 
    101 H101       23.3506  -30.5229  -40.7113 H         1 UNK         0.0822 
    102 H102       24.3174  -32.8345  -40.8267 H         1 UNK         0.0787 
    103 H103       25.8688  -32.1731  -41.3262 H         1 UNK         0.0787 
    104 H104       25.2338  -31.8263  -39.7179 H         1 UNK         0.0787 
    105 H105       22.0428  -31.6616  -42.1240 H         1 UNK         0.3055 
    106 H106       22.7002  -31.6439  -45.0400 H         1 UNK         0.1106 
    107 H107       20.3358  -31.1548  -45.4683 H         1 UNK         0.0828 
    108 H108       19.9178  -31.3053  -43.7634 H         1 UNK         0.0828 
    109 H109       20.8865  -29.9622  -44.3106 H         1 UNK         0.0828 
    110 H110       19.9104  -33.1125  -44.9528 H         1 UNK         0.2931 
    111 H111       20.8844  -35.7977  -44.9987 H         1 UNK         0.0412 
    112 H112       20.4507  -34.1737  -42.1690 H         1 UNK         0.3472 
    113 H113       19.8429  -35.5029  -41.2135 H         1 UNK         0.3472 
    114 H114       18.2607  -36.2230  -45.3760 H         1 UNK         0.0970 
    115 H115       19.2981  -35.5915  -46.6001 H         1 UNK         0.0970 
    116 H116       17.0099  -34.7283  -43.7311 H         1 UNK         0.0612 
    117 H117       15.7127  -34.0706  -44.6961 H         1 UNK         0.0612 
@<TRIPOS>BOND
     1    1    2 1    
     2    1   62 1    
     3    1   63 1    
     4    1   64 1    
     5    2    3 2    
     6    2    4 am   BACKBONE|DICT|INTERRES
     7    4    5 1    
     8    4   65 1    
     9    5    6 1    
    10    5   25 1    
    11    5   66 1    
    12    6    7 1    
    13    6   67 1    
    14    6   68 1    
    15    7    8 1    
    16    8    9 1    
    17    8   69 1    
    18    8   70 1    
    19    9   10 ar   
    20    9   14 ar   
    21   10   11 ar   
    22   10   71 1    
    23   11   12 ar   
    24   11   61 1    
    25   12   13 ar   
    26   12   72 1    
    27   13   14 ar   
    28   13   15 1    
    29   14   73 1    
    30   15   16 1    
    31   15   74 1    
    32   15   75 1    
    33   16   17 1    
    34   17   18 1    
    35   17   76 1    
    36   17   77 1    
    37   18   19 1    
    38   18   27 1    
    39   18   78 1    
    40   19   20 am   BACKBONE|DICT|INTERRES
    41   19   79 1    
    42   20   21 2    
    43   20   22 1    
    44   22   23 1    
    45   22   24 1    
    46   22   80 1    
    47   23   81 1    
    48   23   82 1    
    49   23   83 1    
    50   24   25 am   BACKBONE|DICT|INTERRES
    51   24   84 1    
    52   25   26 2    
    53   27   28 2    
    54   27   29 am   BACKBONE|DICT|INTERRES
    55   29   30 1    
    56   29   85 1    
    57   30   31 1    
    58   30   32 1    
    59   30   86 1    
    60   31   87 1    
    61   31   88 1    
    62   31   89 1    
    63   32   33 2    
    64   32   34 am   BACKBONE|DICT|INTERRES
    65   34   35 1    
    66   34   90 1    
    67   35   36 1    
    68   35   37 1    
    69   35   91 1    
    70   36   92 1    
    71   36   93 1    
    72   36   94 1    
    73   37   38 2    
    74   37   39 am   BACKBONE|DICT|INTERRES
    75   39   40 1    
    76   39   95 1    
    77   40   41 1    
    78   40   42 1    
    79   40   96 1    
    80   41   97 1    
    81   41   98 1    
    82   41   99 1    
    83   42   43 2    
    84   42   44 am   BACKBONE|DICT|INTERRES
    85   44   45 1    
    86   44  100 1    
    87   45   46 1    
    88   45   47 1    
    89   45  101 1    
    90   46  102 1    
    91   46  103 1    
    92   46  104 1    
    93   47   48 2    
    94   47   49 am   BACKBONE|DICT|INTERRES
    95   49   50 1    
    96   49  105 1    
    97   50   51 1    
    98   50   52 1    
    99   50  106 1    
   100   51  107 1    
   101   51  108 1    
   102   51  109 1    
   103   52   53 2    
   104   52   54 am   BACKBONE|DICT|INTERRES
   105   54   55 1    
   106   54  110 1    
   107   55   56 1    
   108   55   59 1    
   109   55  111 1    
   110   56   57 am   BACKBONE|DICT|INTERRES
   111   56   58 2    
   112   57  112 1    
   113   57  113 1    
   114   59   60 1    
   115   59  114 1    
   116   59  115 1    
   117   60   61 1    
   118   61  116 1    
   119   61  117 1    
@<TRIPOS>SUBSTRUCTURE
     1 UNK         1 GROUP             0       ****    0 ROOT    
