@<TRIPOS>MOLECULE
3R8
117   119    1
SMALL
USER_CHARGES


@<TRIPOS>ATOM
      1 CA         12.7679  -24.7802  -43.4631 C.3       0 UNK        -0.2013 
      2 C          13.0395  -25.7737  -42.3369 C.2       0 UNK         0.4866 
      3 O          12.2811  -25.8142  -41.3699 O.2       0 UNK        -0.5176 
      4 N          14.0979  -26.5883  -42.4086 N.am      1 UNK        -0.4884 
      5 CA         15.1130  -26.6359  -43.4594 C.3       1 UNK         0.0853 
      6 C6         14.6853  -27.5654  -44.6241 C.3       10 UNK        -0.0849 
      7 S7         15.4780  -27.1186  -46.2036 S.3       10 UNK        -0.2776 
      8 C8         16.1237  -28.7261  -46.7664 C.3       10 UNK         0.0316 
      9 C9         17.5233  -28.9935  -46.2335 C.ar      10 UNK        -0.0863 
     10 C10        17.7123  -29.6772  -45.0280 C.ar      10 UNK        -0.1009 
     11 C11        19.0028  -29.9307  -44.5525 C.ar      10 UNK        -0.0712 
     12 C12        20.1055  -29.5171  -45.3044 C.ar      10 UNK        -0.0894 
     13 C13        19.9305  -28.8267  -46.5055 C.ar      10 UNK        -0.0745 
     14 C14        18.6364  -28.5656  -46.9634 C.ar      10 UNK        -0.0972 
     15 C15        21.1340  -28.3733  -47.3185 C.3       10 UNK         0.0209 
     16 S16        21.6709  -26.6927  -46.8647 S.3       10 UNK        -0.2568 
     17 C17        22.7719  -27.0003  -45.4432 C.3       10 UNK        -0.0983 
     18 CA         22.3541  -26.2221  -44.1694 C.3       3 UNK         0.0876 
     19 N          21.1353  -26.7397  -43.5566 N.am      3 UNK        -0.4424 
     20 C          19.9281  -26.1730  -43.6048 C.2       2 UNK         0.4918 
     21 O          19.6390  -25.1909  -44.2932 O.2       2 UNK        -0.4875 
     22 CA         18.8802  -26.7756  -42.6642 C.3       2 UNK         0.0481 
     23 CB         19.0460  -26.2111  -41.2391 C.3       2 UNK        -0.1831 
     24 N          17.5461  -26.4859  -43.1805 N.am      2 UNK        -0.4498 
     25 C          16.4208  -27.0968  -42.7966 C.2       1 UNK         0.5027 
     26 O          16.3780  -27.9909  -41.9462 O.2       1 UNK        -0.4969 
     27 C          23.4369  -26.3523  -43.0884 C.2       3 UNK         0.5005 
     28 O          23.4407  -27.3518  -42.3623 O.2       3 UNK        -0.5279 
     29 N          24.3534  -25.3778  -43.0103 N.am      4 UNK        -0.4463 
     30 CA         25.4212  -25.3182  -42.0013 C.3       4 UNK         0.0283 
     31 CB         26.1840  -23.9907  -42.1386 C.3       4 UNK        -0.1875 
     32 C          26.3997  -26.5061  -42.0456 C.2       4 UNK         0.4949 
     33 O          26.8996  -26.9174  -40.9991 O.2       4 UNK        -0.5039 
     34 N          26.6334  -27.0484  -43.2484 N.am      5 UNK        -0.4663 
     35 CA         27.4508  -28.2436  -43.4722 C.3       5 UNK         0.0242 
     36 CB         27.8827  -28.2847  -44.9473 C.3       5 UNK        -0.1982 
     37 C          26.7329  -29.5510  -43.0883 C.2       5 UNK         0.5017 
     38 O          27.4085  -30.5434  -42.8145 O.2       5 UNK        -0.5012 
     39 N          25.3925  -29.5382  -43.0914 N.am      6 UNK        -0.4439 
     40 CA         24.5494  -30.6821  -42.7415 C.3       6 UNK         0.0297 
     41 CB         23.2408  -30.6143  -43.5405 C.3       6 UNK        -0.2006 
     42 C          24.2568  -30.7294  -41.2357 C.2       6 UNK         0.4892 
     43 O          24.2237  -31.8234  -40.6711 O.2       6 UNK        -0.5089 
     44 N          24.0539  -29.5517  -40.6223 N.am      7 UNK        -0.4243 
     45 CA         23.7973  -29.3127  -39.1983 C.3       7 UNK         0.0196 
     46 CB         25.0718  -29.5813  -38.3671 C.3       7 UNK        -0.2007 
     47 C          22.5575  -30.0771  -38.6985 C.2       7 UNK         0.5020 
     48 O          21.4379  -29.6080  -38.9021 O.2       7 UNK        -0.5147 
     49 N          22.7746  -31.2462  -38.0803 N.am      8 UNK        -0.4734 
     50 CA         21.7322  -32.1747  -37.6299 C.3       8 UNK         0.0238 
     51 CB         22.3656  -33.2234  -36.7007 C.3       8 UNK        -0.1912 
     52 C          20.9682  -32.8639  -38.7786 C.2       8 UNK         0.5038 
     53 O          19.8801  -33.3877  -38.5346 O.2       8 UNK        -0.5046 
     54 N          21.5298  -32.8385  -39.9958 N.am      9 UNK        -0.4200 
     55 CA         20.9741  -33.4194  -41.2266 C.3       9 UNK         0.0839 
     56 C          21.0405  -34.9748  -41.2657 C.2       9 UNK         0.5513 
     57 N          20.4480  -35.5978  -42.2755 N.am      9 UNK        -0.7519 
     58 O          21.6505  -35.6246  -40.4184 O.2       9 UNK        -0.4960 
     59 C59        19.5672  -32.8400  -41.5802 C.3       10 UNK        -0.0876 
     60 S60        19.3944  -32.4027  -43.3448 S.3       10 UNK        -0.2414 
     61 C61        19.2072  -30.6006  -43.2026 C.3       10 UNK         0.0169 
     62 H62        13.4668  -23.9460  -43.4115 H         1 UNK         0.0903 
     63 H63        12.8520  -25.2474  -44.4433 H         1 UNK         0.0903 
     64 H64        11.7591  -24.3763  -43.3792 H         1 UNK         0.0903 
     65 H65        14.2938  -27.2202  -41.6411 H         1 UNK         0.3096 
     66 H66        15.2720  -25.6227  -43.8345 H         1 UNK         0.1121 
     67 H67        14.8614  -28.6140  -44.3779 H         1 UNK         0.0849 
     68 H68        13.6099  -27.4932  -44.7918 H         1 UNK         0.0849 
     69 H69        15.4430  -29.5310  -46.4845 H         1 UNK         0.0865 
     70 H70        16.1435  -28.7271  -47.8574 H         1 UNK         0.0865 
     71 H71        16.8574  -30.0008  -44.4505 H         1 UNK         0.1346 
     72 H72        21.1024  -29.7189  -44.9487 H         1 UNK         0.1412 
     73 H73        18.4956  -28.0301  -47.8927 H         1 UNK         0.1426 
     74 H74        21.9613  -29.0761  -47.2083 H         1 UNK         0.0716 
     75 H75        20.8791  -28.3786  -48.3794 H         1 UNK         0.0716 
     76 H76        22.8294  -28.0700  -45.2391 H         1 UNK         0.0695 
     77 H77        23.7741  -26.7033  -45.7583 H         1 UNK         0.0695 
     78 H78        22.2312  -25.1635  -44.4094 H         1 UNK         0.0983 
     79 H79        21.3061  -27.4881  -42.8983 H         1 UNK         0.3095 
     80 H80        19.0200  -27.8560  -42.6379 H         1 UNK         0.0454 
     81 H81        18.8840  -25.1329  -41.2135 H         1 UNK         0.0851 
     82 H82        18.3475  -26.6709  -40.5403 H         1 UNK         0.0851 
     83 H83        20.0492  -26.4001  -40.8545 H         1 UNK         0.0851 
     84 H84        17.5295  -25.7918  -43.9183 H         1 UNK         0.2976 
     85 H85        24.2946  -24.5978  -43.6504 H         1 UNK         0.3116 
     86 H86        24.9423  -25.3334  -41.0198 H         1 UNK         0.0646 
     87 H87        26.9683  -23.9119  -41.3842 H         1 UNK         0.0847 
     88 H88        25.5223  -23.1350  -42.0030 H         1 UNK         0.0847 
     89 H89        26.6617  -23.8966  -43.1145 H         1 UNK         0.0847 
     90 H90        26.1999  -26.6282  -44.0578 H         1 UNK         0.3040 
     91 H91        28.3492  -28.1720  -42.8544 H         1 UNK         0.1015 
     92 H92        28.4543  -27.3969  -45.2187 H         1 UNK         0.0786 
     93 H93        27.0257  -28.3524  -45.6188 H         1 UNK         0.0786 
     94 H94        28.5189  -29.1492  -45.1435 H         1 UNK         0.0786 
     95 H95        24.9211  -28.6573  -43.2478 H         1 UNK         0.3172 
     96 H96        25.0619  -31.6065  -43.0170 H         1 UNK         0.0595 
     97 H97        22.6325  -31.5024  -43.3722 H         1 UNK         0.0839 
     98 H98        23.4332  -30.5558  -44.6118 H         1 UNK         0.0839 
     99 H99        22.6413  -29.7509  -43.2531 H         1 UNK         0.0839 
    100 H100       24.0030  -28.7225  -41.2098 H         1 UNK         0.2998 
    101 H101       23.5618  -28.2513  -39.1033 H         1 UNK         0.0822 
    102 H102       25.8754  -28.9074  -38.6658 H         1 UNK         0.0787 
    103 H103       24.8912  -29.4134  -37.3044 H         1 UNK         0.0787 
    104 H104       25.4421  -30.6001  -38.4848 H         1 UNK         0.0787 
    105 H105       23.7304  -31.5640  -38.0010 H         1 UNK         0.3055 
    106 H106       20.9981  -31.6043  -37.0564 H         1 UNK         0.1106 
    107 H107       21.6108  -33.9109  -36.3160 H         1 UNK         0.0828 
    108 H108       23.1154  -33.8219  -37.2199 H         1 UNK         0.0828 
    109 H109       22.8433  -32.7560  -35.8395 H         1 UNK         0.0828 
    110 H110       22.4577  -32.4355  -40.0862 H         1 UNK         0.2931 
    111 H111       21.6824  -33.0983  -41.9893 H         1 UNK         0.0412 
    112 H112       20.4901  -36.6037  -42.3297 H         1 UNK         0.3472 
    113 H113       19.9619  -35.0726  -42.9869 H         1 UNK         0.3472 
    114 H114       19.3672  -31.9449  -40.9895 H         1 UNK         0.0970 
    115 H115       18.7693  -33.5321  -41.3039 H         1 UNK         0.0970 
    116 H116       18.3612  -30.3768  -42.5501 H         1 UNK         0.0612 
    117 H117       20.0905  -30.1879  -42.7125 H         1 UNK         0.0612 
@<TRIPOS>BOND
     1    1    2 1    
     2    1   62 1    
     3    1   63 1    
     4    1   64 1    
     5    2    3 2    
     6    2    4 am   BACKBONE|DICT|INTERRES
     7    4    5 1    
     8    4   65 1    
     9    5    6 1    
    10    5   25 1    
    11    5   66 1    
    12    6    7 1    
    13    6   67 1    
    14    6   68 1    
    15    7    8 1    
    16    8    9 1    
    17    8   69 1    
    18    8   70 1    
    19    9   10 ar   
    20    9   14 ar   
    21   10   11 ar   
    22   10   71 1    
    23   11   12 ar   
    24   11   61 1    
    25   12   13 ar   
    26   12   72 1    
    27   13   14 ar   
    28   13   15 1    
    29   14   73 1    
    30   15   16 1    
    31   15   74 1    
    32   15   75 1    
    33   16   17 1    
    34   17   18 1    
    35   17   76 1    
    36   17   77 1    
    37   18   19 1    
    38   18   27 1    
    39   18   78 1    
    40   19   20 am   BACKBONE|DICT|INTERRES
    41   19   79 1    
    42   20   21 2    
    43   20   22 1    
    44   22   23 1    
    45   22   24 1    
    46   22   80 1    
    47   23   81 1    
    48   23   82 1    
    49   23   83 1    
    50   24   25 am   BACKBONE|DICT|INTERRES
    51   24   84 1    
    52   25   26 2    
    53   27   28 2    
    54   27   29 am   BACKBONE|DICT|INTERRES
    55   29   30 1    
    56   29   85 1    
    57   30   31 1    
    58   30   32 1    
    59   30   86 1    
    60   31   87 1    
    61   31   88 1    
    62   31   89 1    
    63   32   33 2    
    64   32   34 am   BACKBONE|DICT|INTERRES
    65   34   35 1    
    66   34   90 1    
    67   35   36 1    
    68   35   37 1    
    69   35   91 1    
    70   36   92 1    
    71   36   93 1    
    72   36   94 1    
    73   37   38 2    
    74   37   39 am   BACKBONE|DICT|INTERRES
    75   39   40 1    
    76   39   95 1    
    77   40   41 1    
    78   40   42 1    
    79   40   96 1    
    80   41   97 1    
    81   41   98 1    
    82   41   99 1    
    83   42   43 2    
    84   42   44 am   BACKBONE|DICT|INTERRES
    85   44   45 1    
    86   44  100 1    
    87   45   46 1    
    88   45   47 1    
    89   45  101 1    
    90   46  102 1    
    91   46  103 1    
    92   46  104 1    
    93   47   48 2    
    94   47   49 am   BACKBONE|DICT|INTERRES
    95   49   50 1    
    96   49  105 1    
    97   50   51 1    
    98   50   52 1    
    99   50  106 1    
   100   51  107 1    
   101   51  108 1    
   102   51  109 1    
   103   52   53 2    
   104   52   54 am   BACKBONE|DICT|INTERRES
   105   54   55 1    
   106   54  110 1    
   107   55   56 1    
   108   55   59 1    
   109   55  111 1    
   110   56   57 am   BACKBONE|DICT|INTERRES
   111   56   58 2    
   112   57  112 1    
   113   57  113 1    
   114   59   60 1    
   115   59  114 1    
   116   59  115 1    
   117   60   61 1    
   118   61  116 1    
   119   61  117 1    
@<TRIPOS>SUBSTRUCTURE
     1 UNK         1 GROUP             0       ****    0 ROOT    
