@<TRIPOS>MOLECULE
3R8
117   119    1
SMALL
USER_CHARGES


@<TRIPOS>ATOM
      1 CA         15.8367  -22.2974  -42.9502 C.3       0 UNK        -0.2013 
      2 C          16.5044  -23.2285  -43.9514 C.2       0 UNK         0.4866 
      3 O          17.0799  -22.7580  -44.9336 O.2       0 UNK        -0.5176 
      4 N          16.4259  -24.5440  -43.7126 N.am      1 UNK        -0.4884 
      5 CA         17.0892  -25.5805  -44.5123 C.3       1 UNK         0.0853 
      6 C6         16.3004  -26.9158  -44.4632 C.3       10 UNK        -0.0849 
      7 S7         16.5231  -27.9058  -45.9825 S.3       10 UNK        -0.2776 
      8 C8         16.1321  -29.5845  -45.3992 C.3       10 UNK         0.0316 
      9 C9         17.2558  -30.1777  -44.5611 C.ar      10 UNK        -0.0863 
     10 C10        18.3692  -30.7531  -45.1844 C.ar      10 UNK        -0.1009 
     11 C11        19.3854  -31.3336  -44.4193 C.ar      10 UNK        -0.0712 
     12 C12        19.2824  -31.3307  -43.0282 C.ar      10 UNK        -0.0894 
     13 C13        18.1742  -30.7673  -42.3916 C.ar      10 UNK        -0.0745 
     14 C14        17.1635  -30.1895  -43.1649 C.ar      10 UNK        -0.0972 
     15 C15        18.0365  -30.8468  -40.8769 C.3       10 UNK         0.0209 
     16 S16        19.5184  -30.2660  -39.9926 S.3       10 UNK        -0.2568 
     17 C17        19.3671  -28.4581  -40.1261 C.3       10 UNK        -0.0983 
     18 CA         20.5921  -27.8221  -40.8404 C.3       3 UNK         0.0876 
     19 N          20.3640  -27.6902  -42.2895 N.am      3 UNK        -0.4424 
     20 C          21.2203  -27.1704  -43.1827 C.2       2 UNK         0.4918 
     21 O          22.3528  -26.7850  -42.8986 O.2       2 UNK        -0.4875 
     22 CA         20.7112  -26.9379  -44.6162 C.3       2 UNK         0.0481 
     23 CB         21.1185  -28.1006  -45.5307 C.3       2 UNK        -0.1831 
     24 N          19.2693  -26.6900  -44.7391 N.am      2 UNK        -0.4498 
     25 C          18.5713  -25.7408  -44.0976 C.2       1 UNK         0.5027 
     26 O          19.0544  -25.0271  -43.2133 O.2       1 UNK        -0.4969 
     27 C          20.9966  -26.5055  -40.1302 C.2       3 UNK         0.5005 
     28 O          21.5594  -26.5690  -39.0359 O.2       3 UNK        -0.5279 
     29 N          20.7271  -25.3424  -40.7440 N.am      4 UNK        -0.4463 
     30 CA         21.1748  -24.0283  -40.2778 C.3       4 UNK         0.0283 
     31 CB         20.4773  -22.9384  -41.1082 C.3       4 UNK        -0.1875 
     32 C          22.7051  -23.8276  -40.3115 C.2       4 UNK         0.4949 
     33 O          23.1895  -22.9269  -39.6250 O.2       4 UNK        -0.5039 
     34 N          23.4385  -24.6344  -41.0947 N.am      5 UNK        -0.4663 
     35 CA         24.8971  -24.5367  -41.2302 C.3       5 UNK         0.0242 
     36 CB         25.2443  -23.5990  -42.4002 C.3       5 UNK        -0.1982 
     37 C          25.5984  -25.8945  -41.3982 C.2       5 UNK         0.5017 
     38 O          26.7168  -26.0484  -40.9050 O.2       5 UNK        -0.5012 
     39 N          24.9643  -26.8399  -42.1005 N.am      6 UNK        -0.4439 
     40 CA         25.4873  -28.1725  -42.3988 C.3       6 UNK         0.0297 
     41 CB         25.0826  -28.5363  -43.8409 C.3       6 UNK        -0.2006 
     42 C          24.9572  -29.2172  -41.4012 C.2       6 UNK         0.4892 
     43 O          24.1840  -28.8920  -40.4965 O.2       6 UNK        -0.5089 
     44 N          25.3961  -30.4665  -41.5985 N.am      7 UNK        -0.4243 
     45 CA         24.9560  -31.6517  -40.8606 C.3       7 UNK         0.0196 
     46 CB         25.9461  -32.7953  -41.1511 C.3       7 UNK        -0.2007 
     47 C          23.5152  -32.0727  -41.2129 C.2       7 UNK         0.5020 
     48 O          22.9152  -31.5452  -42.1506 O.2       7 UNK        -0.5147 
     49 N          23.0045  -33.0619  -40.4672 N.am      8 UNK        -0.4734 
     50 CA         21.6507  -33.6180  -40.5903 C.3       8 UNK         0.0238 
     51 CB         21.3816  -34.5322  -39.3827 C.3       8 UNK        -0.1912 
     52 C          21.3516  -34.3640  -41.9083 C.2       8 UNK         0.5038 
     53 O          20.1820  -34.6516  -42.1588 O.2       8 UNK        -0.5046 
     54 N          22.3950  -34.6769  -42.6920 N.am      9 UNK        -0.4200 
     55 CA         22.3892  -35.3417  -44.0111 C.3       9 UNK         0.0839 
     56 C          21.6850  -36.7316  -44.1033 C.2       9 UNK         0.5513 
     57 N          21.4304  -37.4175  -42.9959 N.am      9 UNK        -0.7519 
     58 O          21.4134  -37.2248  -45.1955 O.2       9 UNK        -0.4960 
     59 C59        22.0815  -34.3787  -45.2004 C.3       10 UNK        -0.0876 
     60 S60        20.3649  -33.7565  -45.3046 S.3       10 UNK        -0.2414 
     61 C61        20.6023  -31.9667  -45.0744 C.3       10 UNK         0.0169 
     62 H62        16.5764  -21.6276  -42.5120 H         1 UNK         0.0903 
     63 H63        15.0796  -21.6915  -43.4476 H         1 UNK         0.0903 
     64 H64        15.3546  -22.8456  -42.1409 H         1 UNK         0.0903 
     65 H65        15.9707  -24.8647  -42.8698 H         1 UNK         0.3096 
     66 H66        17.0988  -25.2326  -45.5483 H         1 UNK         0.1121 
     67 H67        15.2302  -26.7177  -44.3812 H         1 UNK         0.0849 
     68 H68        16.5618  -27.4944  -43.5765 H         1 UNK         0.0849 
     69 H69        15.1953  -29.5686  -44.8396 H         1 UNK         0.0865 
     70 H70        15.9530  -30.2235  -46.2653 H         1 UNK         0.0865 
     71 H71        18.4409  -30.7557  -46.2636 H         1 UNK         0.1346 
     72 H72        20.0671  -31.7831  -42.4408 H         1 UNK         0.1412 
     73 H73        16.2923  -29.7695  -42.6808 H         1 UNK         0.1426 
     74 H74        17.8611  -31.8887  -40.6056 H         1 UNK         0.0716 
     75 H75        17.1663  -30.2891  -40.5274 H         1 UNK         0.0716 
     76 H76        19.2583  -28.1016  -39.0993 H         1 UNK         0.0695 
     77 H77        18.4351  -28.1845  -40.6237 H         1 UNK         0.0695 
     78 H78        21.4569  -28.4799  -40.7253 H         1 UNK         0.0983 
     79 H79        19.4604  -27.9892  -42.6239 H         1 UNK         0.3095 
     80 H80        21.2095  -26.0388  -44.9841 H         1 UNK         0.0454 
     81 H81        20.6624  -29.0348  -45.2116 H         1 UNK         0.0851 
     82 H82        22.1991  -28.2464  -45.5208 H         1 UNK         0.0851 
     83 H83        20.8281  -27.9184  -46.5653 H         1 UNK         0.0851 
     84 H84        18.7710  -27.2574  -45.4136 H         1 UNK         0.2976 
     85 H85        20.2279  -25.3593  -41.6294 H         1 UNK         0.3116 
     86 H86        20.8565  -23.9191  -39.2390 H         1 UNK         0.0646 
     87 H87        20.7523  -22.9986  -42.1622 H         1 UNK         0.0847 
     88 H88        20.7497  -21.9424  -40.7563 H         1 UNK         0.0847 
     89 H89        19.3922  -23.0193  -41.0415 H         1 UNK         0.0847 
     90 H90        22.9668  -25.3622  -41.6205 H         1 UNK         0.3040 
     91 H91        25.3113  -24.1038  -40.3164 H         1 UNK         0.1015 
     92 H92        24.8281  -23.9606  -43.3413 H         1 UNK         0.0786 
     93 H93        26.3244  -23.5158  -42.5294 H         1 UNK         0.0786 
     94 H94        24.8615  -22.5927  -42.2290 H         1 UNK         0.0786 
     95 H95        24.0121  -26.6794  -42.4240 H         1 UNK         0.3172 
     96 H96        26.5775  -28.1647  -42.3375 H         1 UNK         0.0595 
     97 H97        25.5852  -29.4420  -44.1810 H         1 UNK         0.0839 
     98 H98        25.3470  -27.7441  -44.5417 H         1 UNK         0.0839 
     99 H99        24.0096  -28.7125  -43.9237 H         1 UNK         0.0839 
    100 H100       26.0102  -30.6365  -42.3810 H         1 UNK         0.2998 
    101 H101       24.9867  -31.4186  -39.7939 H         1 UNK         0.0822 
    102 H102       26.9672  -32.5082  -40.8982 H         1 UNK         0.0787 
    103 H103       25.7149  -33.6856  -40.5652 H         1 UNK         0.0787 
    104 H104       25.9315  -33.0841  -42.2030 H         1 UNK         0.0787 
    105 H105       23.5756  -33.4461  -39.7275 H         1 UNK         0.3055 
    106 H106       20.9504  -32.7835  -40.5398 H         1 UNK         0.1106 
    107 H107       20.3678  -34.9345  -39.4131 H         1 UNK         0.0828 
    108 H108       22.0674  -35.3799  -39.3561 H         1 UNK         0.0828 
    109 H109       21.4797  -33.9885  -38.4429 H         1 UNK         0.0828 
    110 H110       23.3069  -34.4081  -42.3550 H         1 UNK         0.2931 
    111 H111       23.4380  -35.6109  -44.1421 H         1 UNK         0.0412 
    112 H112       21.6412  -37.0242  -42.0931 H         1 UNK         0.3472 
    113 H113       20.9908  -38.3220  -43.0646 H         1 UNK         0.3472 
    114 H114       22.3050  -34.8774  -46.1451 H         1 UNK         0.0970 
    115 H115       22.7726  -33.5359  -45.1638 H         1 UNK         0.0970 
    116 H116       21.4774  -31.7810  -44.4503 H         1 UNK         0.0612 
    117 H117       20.8067  -31.5026  -46.0403 H         1 UNK         0.0612 
@<TRIPOS>BOND
     1    1    2 1    
     2    1   62 1    
     3    1   63 1    
     4    1   64 1    
     5    2    3 2    
     6    2    4 am   BACKBONE|DICT|INTERRES
     7    4    5 1    
     8    4   65 1    
     9    5    6 1    
    10    5   25 1    
    11    5   66 1    
    12    6    7 1    
    13    6   67 1    
    14    6   68 1    
    15    7    8 1    
    16    8    9 1    
    17    8   69 1    
    18    8   70 1    
    19    9   10 ar   
    20    9   14 ar   
    21   10   11 ar   
    22   10   71 1    
    23   11   12 ar   
    24   11   61 1    
    25   12   13 ar   
    26   12   72 1    
    27   13   14 ar   
    28   13   15 1    
    29   14   73 1    
    30   15   16 1    
    31   15   74 1    
    32   15   75 1    
    33   16   17 1    
    34   17   18 1    
    35   17   76 1    
    36   17   77 1    
    37   18   19 1    
    38   18   27 1    
    39   18   78 1    
    40   19   20 am   BACKBONE|DICT|INTERRES
    41   19   79 1    
    42   20   21 2    
    43   20   22 1    
    44   22   23 1    
    45   22   24 1    
    46   22   80 1    
    47   23   81 1    
    48   23   82 1    
    49   23   83 1    
    50   24   25 am   BACKBONE|DICT|INTERRES
    51   24   84 1    
    52   25   26 2    
    53   27   28 2    
    54   27   29 am   BACKBONE|DICT|INTERRES
    55   29   30 1    
    56   29   85 1    
    57   30   31 1    
    58   30   32 1    
    59   30   86 1    
    60   31   87 1    
    61   31   88 1    
    62   31   89 1    
    63   32   33 2    
    64   32   34 am   BACKBONE|DICT|INTERRES
    65   34   35 1    
    66   34   90 1    
    67   35   36 1    
    68   35   37 1    
    69   35   91 1    
    70   36   92 1    
    71   36   93 1    
    72   36   94 1    
    73   37   38 2    
    74   37   39 am   BACKBONE|DICT|INTERRES
    75   39   40 1    
    76   39   95 1    
    77   40   41 1    
    78   40   42 1    
    79   40   96 1    
    80   41   97 1    
    81   41   98 1    
    82   41   99 1    
    83   42   43 2    
    84   42   44 am   BACKBONE|DICT|INTERRES
    85   44   45 1    
    86   44  100 1    
    87   45   46 1    
    88   45   47 1    
    89   45  101 1    
    90   46  102 1    
    91   46  103 1    
    92   46  104 1    
    93   47   48 2    
    94   47   49 am   BACKBONE|DICT|INTERRES
    95   49   50 1    
    96   49  105 1    
    97   50   51 1    
    98   50   52 1    
    99   50  106 1    
   100   51  107 1    
   101   51  108 1    
   102   51  109 1    
   103   52   53 2    
   104   52   54 am   BACKBONE|DICT|INTERRES
   105   54   55 1    
   106   54  110 1    
   107   55   56 1    
   108   55   59 1    
   109   55  111 1    
   110   56   57 am   BACKBONE|DICT|INTERRES
   111   56   58 2    
   112   57  112 1    
   113   57  113 1    
   114   59   60 1    
   115   59  114 1    
   116   59  115 1    
   117   60   61 1    
   118   61  116 1    
   119   61  117 1    
@<TRIPOS>SUBSTRUCTURE
     1 UNK         1 GROUP             0       ****    0 ROOT    
