@<TRIPOS>MOLECULE
3R8
117   119    1
SMALL
USER_CHARGES


@<TRIPOS>ATOM
      1 CA         20.2896  -22.3972  -47.2344 C.3       0 UNK        -0.2013 
      2 C          19.5987  -23.7067  -46.8835 C.2       0 UNK         0.4866 
      3 O          18.3736  -23.7883  -46.9686 O.2       0 UNK        -0.5176 
      4 N          20.3803  -24.7247  -46.4954 N.am      1 UNK        -0.4884 
      5 CA         19.9338  -26.0641  -46.0892 C.3       1 UNK         0.0853 
      6 C6         19.2937  -26.8712  -47.2527 C.3       10 UNK        -0.0849 
      7 S7         19.3886  -28.6748  -46.9654 S.3       10 UNK        -0.2776 
      8 C8         17.6300  -29.1417  -46.8419 C.3       10 UNK         0.0316 
      9 C9         17.3760  -30.1597  -45.7362 C.ar      10 UNK        -0.0863 
     10 C10        17.9224  -31.4448  -45.8120 C.ar      10 UNK        -0.1009 
     11 C11        17.6483  -32.3937  -44.8216 C.ar      10 UNK        -0.0712 
     12 C12        16.8171  -32.0515  -43.7501 C.ar      10 UNK        -0.0894 
     13 C13        16.2515  -30.7756  -43.6681 C.ar      10 UNK        -0.0745 
     14 C14        16.5437  -29.8328  -44.6605 C.ar      10 UNK        -0.0972 
     15 C15        15.2495  -30.4548  -42.5638 C.3       10 UNK         0.0209 
     16 S16        15.5953  -28.8900  -41.6982 S.3       10 UNK        -0.2568 
     17 C17        16.7839  -29.3941  -40.4067 C.3       10 UNK        -0.0983 
     18 CA         18.2553  -28.9978  -40.7098 C.3       3 UNK         0.0876 
     19 N          18.3622  -27.5935  -41.1239 N.am      3 UNK        -0.4424 
     20 C          19.3225  -27.0999  -41.9101 C.2       2 UNK         0.4918 
     21 O          20.3058  -27.7441  -42.2759 O.2       2 UNK        -0.4875 
     22 CA         19.1733  -25.6365  -42.3598 C.3       2 UNK         0.0481 
     23 CB         19.9524  -24.7017  -41.4209 C.3       2 UNK        -0.1831 
     24 N          19.6758  -25.4843  -43.7269 N.am      2 UNK        -0.4498 
     25 C          19.0774  -26.0156  -44.8034 C.2       1 UNK         0.5027 
     26 O          17.9208  -26.4431  -44.7956 O.2       1 UNK        -0.4969 
     27 C          19.1929  -29.2974  -39.5151 C.2       3 UNK         0.5005 
     28 O          18.7229  -29.6818  -38.4413 O.2       3 UNK        -0.5279 
     29 N          20.4981  -29.0798  -39.6989 N.am      4 UNK        -0.4463 
     30 CA         21.5462  -29.2681  -38.7021 C.3       4 UNK         0.0283 
     31 CB         21.6158  -28.0466  -37.7680 C.3       4 UNK        -0.1875 
     32 C          22.8753  -29.4681  -39.4303 C.2       4 UNK         0.4949 
     33 O          23.0850  -28.8623  -40.4828 O.2       4 UNK        -0.5039 
     34 N          23.7648  -30.2725  -38.8336 N.am      5 UNK        -0.4663 
     35 CA         25.0301  -30.7506  -39.4115 C.3       5 UNK         0.0242 
     36 CB         25.6974  -31.7145  -38.4168 C.3       5 UNK        -0.1982 
     37 C          26.0266  -29.6636  -39.8554 C.2       5 UNK         0.5017 
     38 O          26.9109  -29.9563  -40.6607 O.2       5 UNK        -0.5012 
     39 N          25.8581  -28.4338  -39.3509 N.am      6 UNK        -0.4439 
     40 CA         26.5720  -27.2352  -39.7968 C.3       6 UNK         0.0297 
     41 CB         26.2640  -26.0795  -38.8311 C.3       6 UNK        -0.2006 
     42 C          26.2421  -26.8252  -41.2473 C.2       6 UNK         0.4892 
     43 O          27.0628  -26.1516  -41.8718 O.2       6 UNK        -0.5089 
     44 N          25.0681  -27.2303  -41.7517 N.am      7 UNK        -0.4243 
     45 CA         24.6200  -27.0170  -43.1243 C.3       7 UNK         0.0196 
     46 CB         23.3287  -26.1822  -43.1239 C.3       7 UNK        -0.2007 
     47 C          24.4337  -28.3719  -43.8190 C.2       7 UNK         0.5020 
     48 O          25.1899  -28.6772  -44.7417 O.2       7 UNK        -0.5147 
     49 N          23.4560  -29.1675  -43.3671 N.am      8 UNK        -0.4734 
     50 CA         23.1334  -30.4900  -43.9022 C.3       8 UNK         0.0238 
     51 CB         22.4538  -30.3614  -45.2802 C.3       8 UNK        -0.1912 
     52 C          22.2015  -31.2328  -42.9379 C.2       8 UNK         0.5038 
     53 O          21.3593  -30.6033  -42.2973 O.2       8 UNK        -0.5046 
     54 N          22.3233  -32.5653  -42.9097 N.am      9 UNK        -0.4200 
     55 CA         21.4355  -33.4874  -42.1809 C.3       9 UNK         0.0839 
     56 C          21.5016  -33.2945  -40.6347 C.2       9 UNK         0.5513 
     57 N          20.4097  -33.4728  -39.9013 N.am      9 UNK        -0.7519 
     58 O          22.5692  -33.0472  -40.0802 O.2       9 UNK        -0.4960 
     59 C59        19.9938  -33.5132  -42.7736 C.3       10 UNK        -0.0876 
     60 S60        19.9865  -33.8759  -44.5631 S.3       10 UNK        -0.2414 
     61 C61        18.2091  -33.8043  -44.9374 C.3       10 UNK         0.0169 
     62 H62        19.9295  -21.5982  -46.5869 H         1 UNK         0.0903 
     63 H63        21.3718  -22.4618  -47.1228 H         1 UNK         0.0903 
     64 H64        20.0716  -22.1233  -48.2664 H         1 UNK         0.0903 
     65 H65        21.3797  -24.5764  -46.4556 H         1 UNK         0.3096 
     66 H66        20.8478  -26.5908  -45.8067 H         1 UNK         0.1121 
     67 H67        19.8394  -26.6742  -48.1766 H         1 UNK         0.0849 
     68 H68        18.2700  -26.5474  -47.4469 H         1 UNK         0.0849 
     69 H69        17.0163  -28.2556  -46.6756 H         1 UNK         0.0865 
     70 H70        17.3059  -29.5575  -47.7969 H         1 UNK         0.0865 
     71 H71        18.5566  -31.7094  -46.6473 H         1 UNK         0.1346 
     72 H72        16.5838  -32.7919  -42.9971 H         1 UNK         0.1412 
     73 H73        16.1000  -28.8476  -44.6063 H         1 UNK         0.1426 
     74 H74        15.1821  -31.2675  -41.8392 H         1 UNK         0.0716 
     75 H75        14.2618  -30.3776  -43.0200 H         1 UNK         0.0716 
     76 H76        16.7102  -30.4703  -40.2416 H         1 UNK         0.0695 
     77 H77        16.4473  -28.9252  -39.4799 H         1 UNK         0.0695 
     78 H78        18.5942  -29.6244  -41.5395 H         1 UNK         0.0983 
     79 H79        17.5936  -26.9982  -40.8529 H         1 UNK         0.3095 
     80 H80        18.1177  -25.3571  -42.3400 H         1 UNK         0.0454 
     81 H81        19.8577  -23.6602  -41.7283 H         1 UNK         0.0851 
     82 H82        21.0143  -24.9484  -41.3906 H         1 UNK         0.0851 
     83 H83        19.5750  -24.7726  -40.4000 H         1 UNK         0.0851 
     84 H84        20.6198  -25.1417  -43.8213 H         1 UNK         0.2976 
     85 H85        20.8251  -28.8176  -40.6286 H         1 UNK         0.3116 
     86 H86        21.3273  -30.1664  -38.1207 H         1 UNK         0.0646 
     87 H87        21.8199  -27.1295  -38.3224 H         1 UNK         0.0847 
     88 H88        22.4061  -28.1640  -37.0256 H         1 UNK         0.0847 
     89 H89        20.6815  -27.9072  -37.2242 H         1 UNK         0.0847 
     90 H90        23.4985  -30.7006  -37.9582 H         1 UNK         0.3040 
     91 H91        24.7713  -31.3149  -40.3103 H         1 UNK         0.1015 
     92 H92        25.9385  -31.2195  -37.4753 H         1 UNK         0.0786 
     93 H93        26.6273  -32.1161  -38.8223 H         1 UNK         0.0786 
     94 H94        25.0514  -32.5649  -38.1966 H         1 UNK         0.0786 
     95 H95        25.1005  -28.2998  -38.6973 H         1 UNK         0.3172 
     96 H96        27.6424  -27.4459  -39.7500 H         1 UNK         0.0595 
     97 H97        25.2016  -25.8318  -38.8229 H         1 UNK         0.0839 
     98 H98        26.8058  -25.1772  -39.1181 H         1 UNK         0.0839 
     99 H99        26.5619  -26.3225  -37.8109 H         1 UNK         0.0839 
    100 H100       24.4612  -27.8128  -41.1780 H         1 UNK         0.2998 
    101 H101       25.3712  -26.4657  -43.6939 H         1 UNK         0.0822 
    102 H102       23.5223  -25.1634  -42.7884 H         1 UNK         0.0787 
    103 H103       22.8982  -26.1223  -44.1239 H         1 UNK         0.0787 
    104 H104       22.5776  -26.6093  -42.4616 H         1 UNK         0.0787 
    105 H105       22.9010  -28.8906  -42.5601 H         1 UNK         0.3055 
    106 H106       24.0609  -31.0579  -44.0027 H         1 UNK         0.1106 
    107 H107       22.1646  -31.3383  -45.6703 H         1 UNK         0.0828 
    108 H108       21.5475  -29.7585  -45.2146 H         1 UNK         0.0828 
    109 H109       23.1102  -29.9018  -46.0185 H         1 UNK         0.0828 
    110 H110       23.0458  -33.0052  -43.4598 H         1 UNK         0.2931 
    111 H111       21.8610  -34.4779  -42.3457 H         1 UNK         0.0412 
    112 H112       19.5247  -33.7045  -40.3216 H         1 UNK         0.3472 
    113 H113       20.4763  -33.3730  -38.9008 H         1 UNK         0.3472 
    114 H114       19.4949  -32.5578  -42.6018 H         1 UNK         0.0970 
    115 H115       19.3887  -34.2772  -42.2837 H         1 UNK         0.0970 
    116 H116       17.6747  -34.4927  -44.2808 H         1 UNK         0.0612 
    117 H117       18.0517  -34.1694  -45.9533 H         1 UNK         0.0612 
@<TRIPOS>BOND
     1    1    2 1    
     2    1   62 1    
     3    1   63 1    
     4    1   64 1    
     5    2    3 2    
     6    2    4 am   BACKBONE|DICT|INTERRES
     7    4    5 1    
     8    4   65 1    
     9    5    6 1    
    10    5   25 1    
    11    5   66 1    
    12    6    7 1    
    13    6   67 1    
    14    6   68 1    
    15    7    8 1    
    16    8    9 1    
    17    8   69 1    
    18    8   70 1    
    19    9   10 ar   
    20    9   14 ar   
    21   10   11 ar   
    22   10   71 1    
    23   11   12 ar   
    24   11   61 1    
    25   12   13 ar   
    26   12   72 1    
    27   13   14 ar   
    28   13   15 1    
    29   14   73 1    
    30   15   16 1    
    31   15   74 1    
    32   15   75 1    
    33   16   17 1    
    34   17   18 1    
    35   17   76 1    
    36   17   77 1    
    37   18   19 1    
    38   18   27 1    
    39   18   78 1    
    40   19   20 am   BACKBONE|DICT|INTERRES
    41   19   79 1    
    42   20   21 2    
    43   20   22 1    
    44   22   23 1    
    45   22   24 1    
    46   22   80 1    
    47   23   81 1    
    48   23   82 1    
    49   23   83 1    
    50   24   25 am   BACKBONE|DICT|INTERRES
    51   24   84 1    
    52   25   26 2    
    53   27   28 2    
    54   27   29 am   BACKBONE|DICT|INTERRES
    55   29   30 1    
    56   29   85 1    
    57   30   31 1    
    58   30   32 1    
    59   30   86 1    
    60   31   87 1    
    61   31   88 1    
    62   31   89 1    
    63   32   33 2    
    64   32   34 am   BACKBONE|DICT|INTERRES
    65   34   35 1    
    66   34   90 1    
    67   35   36 1    
    68   35   37 1    
    69   35   91 1    
    70   36   92 1    
    71   36   93 1    
    72   36   94 1    
    73   37   38 2    
    74   37   39 am   BACKBONE|DICT|INTERRES
    75   39   40 1    
    76   39   95 1    
    77   40   41 1    
    78   40   42 1    
    79   40   96 1    
    80   41   97 1    
    81   41   98 1    
    82   41   99 1    
    83   42   43 2    
    84   42   44 am   BACKBONE|DICT|INTERRES
    85   44   45 1    
    86   44  100 1    
    87   45   46 1    
    88   45   47 1    
    89   45  101 1    
    90   46  102 1    
    91   46  103 1    
    92   46  104 1    
    93   47   48 2    
    94   47   49 am   BACKBONE|DICT|INTERRES
    95   49   50 1    
    96   49  105 1    
    97   50   51 1    
    98   50   52 1    
    99   50  106 1    
   100   51  107 1    
   101   51  108 1    
   102   51  109 1    
   103   52   53 2    
   104   52   54 am   BACKBONE|DICT|INTERRES
   105   54   55 1    
   106   54  110 1    
   107   55   56 1    
   108   55   59 1    
   109   55  111 1    
   110   56   57 am   BACKBONE|DICT|INTERRES
   111   56   58 2    
   112   57  112 1    
   113   57  113 1    
   114   59   60 1    
   115   59  114 1    
   116   59  115 1    
   117   60   61 1    
   118   61  116 1    
   119   61  117 1    
@<TRIPOS>SUBSTRUCTURE
     1 UNK         1 GROUP             0       ****    0 ROOT    
