@<TRIPOS>MOLECULE
3R8
117   119    1
SMALL
USER_CHARGES


@<TRIPOS>ATOM
      1 CA         17.3565  -27.0074  -39.9933 C.3       0 UNK        -0.2013 
      2 C          17.0118  -26.4697  -41.3745 C.2       0 UNK         0.4866 
      3 O          16.9610  -25.2539  -41.5625 O.2       0 UNK        -0.5176 
      4 N          16.7661  -27.3641  -42.3403 N.am      1 UNK        -0.4884 
      5 CA         16.5082  -27.0256  -43.7450 C.3       1 UNK         0.0853 
      6 C6         15.7614  -28.1901  -44.4766 C.3       10 UNK        -0.0849 
      7 S7         16.0487  -28.4050  -46.2798 S.3       10 UNK        -0.2776 
      8 C8         16.7799  -30.0727  -46.4100 C.3       10 UNK         0.0316 
      9 C9         18.1495  -30.2014  -45.7493 C.ar      10 UNK        -0.0863 
     10 C10        18.2386  -30.6545  -44.4307 C.ar      10 UNK        -0.1009 
     11 C11        19.4789  -30.8435  -43.8205 C.ar      10 UNK        -0.0712 
     12 C12        20.6471  -30.5902  -44.5444 C.ar      10 UNK        -0.0894 
     13 C13        20.5804  -30.1718  -45.8785 C.ar      10 UNK        -0.0745 
     14 C14        19.3273  -29.9609  -46.4705 C.ar      10 UNK        -0.0972 
     15 C15        21.8621  -30.0663  -46.7023 C.3       10 UNK         0.0209 
     16 S16        22.3461  -28.3620  -47.1256 S.3       10 UNK        -0.2568 
     17 C17        22.7504  -27.6522  -45.4909 C.3       10 UNK        -0.0983 
     18 CA         22.2151  -26.2099  -45.3015 C.3       3 UNK         0.0876 
     19 N          20.8445  -26.0751  -45.7909 N.am      3 UNK        -0.4424 
     20 C          20.1065  -24.9623  -45.8602 C.2       2 UNK         0.4918 
     21 O          20.5089  -23.8377  -45.5621 O.2       2 UNK        -0.4875 
     22 CA         18.6652  -25.1531  -46.3621 C.3       2 UNK         0.0481 
     23 CB         18.6048  -26.0766  -47.5969 C.3       2 UNK        -0.1831 
     24 N          17.7018  -25.6152  -45.3519 N.am      2 UNK        -0.4498 
     25 C          17.8223  -26.5823  -44.4243 C.2       1 UNK         0.5027 
     26 O          18.8730  -27.1514  -44.1205 O.2       1 UNK        -0.4969 
     27 C          22.3506  -25.7860  -43.8251 C.2       3 UNK         0.5005 
     28 O          23.3975  -25.2641  -43.4403 O.2       3 UNK        -0.5279 
     29 N          21.2894  -26.0218  -43.0361 N.am      4 UNK        -0.4463 
     30 CA         21.0325  -25.5952  -41.6538 C.3       4 UNK         0.0283 
     31 CB         20.9633  -24.0592  -41.5656 C.3       4 UNK        -0.1875 
     32 C          21.9665  -26.1603  -40.5675 C.2       4 UNK         0.4949 
     33 O          21.5276  -26.2779  -39.4246 O.2       4 UNK        -0.5039 
     34 N          23.2113  -26.4959  -40.9161 N.am      5 UNK        -0.4663 
     35 CA         24.2424  -27.0028  -40.0129 C.3       5 UNK         0.0242 
     36 CB         25.0020  -25.8213  -39.3768 C.3       5 UNK        -0.1982 
     37 C          25.1598  -27.9865  -40.7555 C.2       5 UNK         0.5017 
     38 O          26.3840  -27.8665  -40.6798 O.2       5 UNK        -0.5012 
     39 N          24.5525  -28.9385  -41.4717 N.am      6 UNK        -0.4439 
     40 CA         25.2238  -30.0350  -42.1641 C.3       6 UNK         0.0297 
     41 CB         25.4583  -29.6582  -43.6362 C.3       6 UNK        -0.2006 
     42 C          24.3383  -31.2790  -42.0610 C.2       6 UNK         0.4892 
     43 O          23.1192  -31.1435  -41.9309 O.2       6 UNK        -0.5089 
     44 N          24.9616  -32.4627  -42.1381 N.am      7 UNK        -0.4243 
     45 CA         24.3299  -33.7840  -42.0327 C.3       7 UNK         0.0196 
     46 CB         23.4804  -34.0734  -43.2937 C.3       7 UNK        -0.2007 
     47 C          23.5631  -33.9338  -40.7020 C.2       7 UNK         0.5020 
     48 O          24.1214  -33.6213  -39.6485 O.2       7 UNK        -0.5147 
     49 N          22.2970  -34.3668  -40.7634 N.am      8 UNK        -0.4734 
     50 CA         21.3938  -34.4955  -39.6136 C.3       8 UNK         0.0238 
     51 CB         20.1256  -35.2430  -40.0583 C.3       8 UNK        -0.1912 
     52 C          21.0187  -33.1552  -38.9502 C.2       8 UNK         0.5038 
     53 O          20.5770  -33.1628  -37.8004 O.2       8 UNK        -0.5046 
     54 N          21.1946  -32.0438  -39.6754 N.am      9 UNK        -0.4200 
     55 CA         20.9650  -30.6751  -39.1959 C.3       9 UNK         0.0839 
     56 C          22.1745  -30.1018  -38.4027 C.2       9 UNK         0.5513 
     57 N          23.3427  -30.7365  -38.4031 N.am      9 UNK        -0.7519 
     58 O          22.0432  -29.0725  -37.7488 O.2       9 UNK        -0.4960 
     59 C59        20.5261  -29.7253  -40.3471 C.3       10 UNK        -0.0876 
     60 S60        18.9672  -30.2453  -41.1429 S.3       10 UNK        -0.2414 
     61 C61        19.5426  -31.4182  -42.4150 C.3       10 UNK         0.0169 
     62 H62        16.7489  -26.5137  -39.2354 H         1 UNK         0.0903 
     63 H63        17.1785  -28.0798  -39.9184 H         1 UNK         0.0903 
     64 H64        18.4050  -26.8190  -39.7644 H         1 UNK         0.0903 
     65 H65        16.8963  -28.3464  -42.1435 H         1 UNK         0.3096 
     66 H66        15.8405  -26.1607  -43.7537 H         1 UNK         0.1121 
     67 H67        14.6878  -28.0585  -44.3343 H         1 UNK         0.0849 
     68 H68        15.9785  -29.1379  -43.9885 H         1 UNK         0.0849 
     69 H69        16.0865  -30.7999  -45.9844 H         1 UNK         0.0865 
     70 H70        16.8636  -30.3300  -47.4669 H         1 UNK         0.0865 
     71 H71        17.3416  -30.8931  -43.8773 H         1 UNK         0.1346 
     72 H72        21.6089  -30.7720  -44.0845 H         1 UNK         0.1412 
     73 H73        19.2704  -29.6534  -47.5057 H         1 UNK         0.1426 
     74 H74        22.6937  -30.5466  -46.1838 H         1 UNK         0.0716 
     75 H75        21.7281  -30.6249  -47.6297 H         1 UNK         0.0716 
     76 H76        22.3574  -28.3115  -44.7151 H         1 UNK         0.0695 
     77 H77        23.8354  -27.6595  -45.3775 H         1 UNK         0.0695 
     78 H78        22.8317  -25.5312  -45.8944 H         1 UNK         0.0983 
     79 H79        20.3896  -26.9495  -46.0142 H         1 UNK         0.3095 
     80 H80        18.3195  -24.1682  -46.6797 H         1 UNK         0.0454 
     81 H81        18.7966  -27.1188  -47.3415 H         1 UNK         0.0851 
     82 H82        17.6235  -26.0339  -48.0695 H         1 UNK         0.0851 
     83 H83        19.3369  -25.7809  -48.3498 H         1 UNK         0.0851 
     84 H84        16.7828  -25.2087  -45.4567 H         1 UNK         0.2976 
     85 H85        20.4997  -26.4959  -43.4749 H         1 UNK         0.3116 
     86 H86        20.0379  -25.9786  -41.4247 H         1 UNK         0.0646 
     87 H87        21.9256  -23.5963  -41.7865 H         1 UNK         0.0847 
     88 H88        20.2283  -23.6564  -42.2628 H         1 UNK         0.0847 
     89 H89        20.6703  -23.7384  -40.5651 H         1 UNK         0.0847 
     90 H90        23.5000  -26.2927  -41.8707 H         1 UNK         0.3040 
     91 H91        23.7718  -27.5729  -39.2096 H         1 UNK         0.1015 
     92 H92        25.5016  -25.2132  -40.1318 H         1 UNK         0.0786 
     93 H93        25.7635  -26.1733  -38.6797 H         1 UNK         0.0786 
     94 H94        24.3285  -25.1730  -38.8160 H         1 UNK         0.0786 
     95 H95        23.5442  -29.0171  -41.4489 H         1 UNK         0.3172 
     96 H96        26.1802  -30.2479  -41.6814 H         1 UNK         0.0595 
     97 H97        26.0496  -30.4207  -44.1444 H         1 UNK         0.0839 
     98 H98        25.9966  -28.7147  -43.7283 H         1 UNK         0.0839 
     99 H99        24.5175  -29.5663  -44.1780 H         1 UNK         0.0839 
    100 H100       25.9690  -32.4674  -42.2179 H         1 UNK         0.2998 
    101 H101       25.1389  -34.5153  -42.0003 H         1 UNK         0.0822 
    102 H102       22.6269  -33.3996  -43.3822 H         1 UNK         0.0787 
    103 H103       24.0780  -33.9602  -44.1984 H         1 UNK         0.0787 
    104 H104       23.1028  -35.0967  -43.2936 H         1 UNK         0.0787 
    105 H105       21.9144  -34.5940  -41.6701 H         1 UNK         0.3055 
    106 H106       21.9007  -35.0957  -38.8545 H         1 UNK         0.1106 
    107 H107       20.3631  -36.2309  -40.4531 H         1 UNK         0.0828 
    108 H108       19.4434  -35.3884  -39.2193 H         1 UNK         0.0828 
    109 H109       19.5816  -34.6932  -40.8275 H         1 UNK         0.0828 
    110 H110       21.6286  -32.1175  -40.5863 H         1 UNK         0.2931 
    111 H111       20.1378  -30.7070  -38.4840 H         1 UNK         0.0412 
    112 H112       24.1046  -30.3640  -37.8598 H         1 UNK         0.3472 
    113 H113       23.4601  -31.6080  -38.9026 H         1 UNK         0.3472 
    114 H114       20.3567  -28.7224  -39.9523 H         1 UNK         0.0970 
    115 H115       21.3016  -29.6173  -41.1041 H         1 UNK         0.0970 
    116 H116       18.9125  -32.3075  -42.3692 H         1 UNK         0.0612 
    117 H117       20.5528  -31.7609  -42.1996 H         1 UNK         0.0612 
@<TRIPOS>BOND
     1    1    2 1    
     2    1   62 1    
     3    1   63 1    
     4    1   64 1    
     5    2    3 2    
     6    2    4 am   BACKBONE|DICT|INTERRES
     7    4    5 1    
     8    4   65 1    
     9    5    6 1    
    10    5   25 1    
    11    5   66 1    
    12    6    7 1    
    13    6   67 1    
    14    6   68 1    
    15    7    8 1    
    16    8    9 1    
    17    8   69 1    
    18    8   70 1    
    19    9   10 ar   
    20    9   14 ar   
    21   10   11 ar   
    22   10   71 1    
    23   11   12 ar   
    24   11   61 1    
    25   12   13 ar   
    26   12   72 1    
    27   13   14 ar   
    28   13   15 1    
    29   14   73 1    
    30   15   16 1    
    31   15   74 1    
    32   15   75 1    
    33   16   17 1    
    34   17   18 1    
    35   17   76 1    
    36   17   77 1    
    37   18   19 1    
    38   18   27 1    
    39   18   78 1    
    40   19   20 am   BACKBONE|DICT|INTERRES
    41   19   79 1    
    42   20   21 2    
    43   20   22 1    
    44   22   23 1    
    45   22   24 1    
    46   22   80 1    
    47   23   81 1    
    48   23   82 1    
    49   23   83 1    
    50   24   25 am   BACKBONE|DICT|INTERRES
    51   24   84 1    
    52   25   26 2    
    53   27   28 2    
    54   27   29 am   BACKBONE|DICT|INTERRES
    55   29   30 1    
    56   29   85 1    
    57   30   31 1    
    58   30   32 1    
    59   30   86 1    
    60   31   87 1    
    61   31   88 1    
    62   31   89 1    
    63   32   33 2    
    64   32   34 am   BACKBONE|DICT|INTERRES
    65   34   35 1    
    66   34   90 1    
    67   35   36 1    
    68   35   37 1    
    69   35   91 1    
    70   36   92 1    
    71   36   93 1    
    72   36   94 1    
    73   37   38 2    
    74   37   39 am   BACKBONE|DICT|INTERRES
    75   39   40 1    
    76   39   95 1    
    77   40   41 1    
    78   40   42 1    
    79   40   96 1    
    80   41   97 1    
    81   41   98 1    
    82   41   99 1    
    83   42   43 2    
    84   42   44 am   BACKBONE|DICT|INTERRES
    85   44   45 1    
    86   44  100 1    
    87   45   46 1    
    88   45   47 1    
    89   45  101 1    
    90   46  102 1    
    91   46  103 1    
    92   46  104 1    
    93   47   48 2    
    94   47   49 am   BACKBONE|DICT|INTERRES
    95   49   50 1    
    96   49  105 1    
    97   50   51 1    
    98   50   52 1    
    99   50  106 1    
   100   51  107 1    
   101   51  108 1    
   102   51  109 1    
   103   52   53 2    
   104   52   54 am   BACKBONE|DICT|INTERRES
   105   54   55 1    
   106   54  110 1    
   107   55   56 1    
   108   55   59 1    
   109   55  111 1    
   110   56   57 am   BACKBONE|DICT|INTERRES
   111   56   58 2    
   112   57  112 1    
   113   57  113 1    
   114   59   60 1    
   115   59  114 1    
   116   59  115 1    
   117   60   61 1    
   118   61  116 1    
   119   61  117 1    
@<TRIPOS>SUBSTRUCTURE
     1 UNK         1 GROUP             0       ****    0 ROOT    
