@<TRIPOS>MOLECULE
3R8
117   119    1
SMALL
USER_CHARGES


@<TRIPOS>ATOM
      1 CA         18.6033  -27.2804  -40.6215 C.3       0 UNK        -0.2013 
      2 C          17.6253  -26.4210  -41.4065 C.2       0 UNK         0.4866 
      3 O          17.3280  -25.3008  -40.9921 O.2       0 UNK        -0.5176 
      4 N          17.1263  -26.9356  -42.5394 N.am      1 UNK        -0.4884 
      5 CA         16.1666  -26.2574  -43.4258 C.3       1 UNK         0.0853 
      6 C6         15.6063  -27.2101  -44.5126 C.3       10 UNK        -0.0849 
      7 S7         14.9075  -28.7480  -43.8242 S.3       10 UNK        -0.2776 
      8 C8         15.0613  -29.8819  -45.2425 C.3       10 UNK         0.0316 
      9 C9         16.5039  -30.2887  -45.5209 C.ar      10 UNK        -0.0863 
     10 C10        17.1618  -31.1724  -44.6582 C.ar      10 UNK        -0.1009 
     11 C11        18.4636  -31.5997  -44.9375 C.ar      10 UNK        -0.0712 
     12 C12        19.1064  -31.1359  -46.0883 C.ar      10 UNK        -0.0894 
     13 C13        18.4681  -30.2411  -46.9511 C.ar      10 UNK        -0.0745 
     14 C14        17.1649  -29.8223  -46.6636 C.ar      10 UNK        -0.0972 
     15 C15        19.1799  -29.7583  -48.2089 C.3       10 UNK         0.0209 
     16 S16        19.8024  -28.0528  -48.0574 S.3       10 UNK        -0.2568 
     17 C17        21.0508  -28.2144  -46.7327 C.3       10 UNK        -0.0983 
     18 CA         21.4605  -26.8515  -46.1173 C.3       3 UNK         0.0876 
     19 N          20.2884  -26.0443  -45.7595 N.am      3 UNK        -0.4424 
     20 C          20.2975  -24.7628  -45.3616 C.2       2 UNK         0.4918 
     21 O          21.3173  -24.0949  -45.1955 O.2       2 UNK        -0.4875 
     22 CA         18.9241  -24.1297  -45.0982 C.3       2 UNK         0.0481 
     23 CB         18.3297  -23.6189  -46.4280 C.3       2 UNK        -0.1831 
     24 N          18.0623  -25.1177  -44.4451 N.am      2 UNK        -0.4498 
     25 C          16.7732  -25.0096  -44.1014 C.2       1 UNK         0.5027 
     26 O          16.0760  -24.0122  -44.2903 O.2       1 UNK        -0.4969 
     27 C          22.4095  -27.0779  -44.9225 C.2       3 UNK         0.5005 
     28 O          23.6292  -27.0453  -45.0957 O.2       3 UNK        -0.5279 
     29 N          21.8194  -27.3091  -43.7385 N.am      4 UNK        -0.4463 
     30 CA         22.4248  -27.5425  -42.4197 C.3       4 UNK         0.0283 
     31 CB         23.2472  -26.3273  -41.9511 C.3       4 UNK        -0.1875 
     32 C          23.2407  -28.8409  -42.2977 C.2       4 UNK         0.4949 
     33 O          23.0351  -29.5751  -41.3321 O.2       4 UNK        -0.5039 
     34 N          24.1501  -29.0886  -43.2508 N.am      5 UNK        -0.4663 
     35 CA         25.0654  -30.2350  -43.3443 C.3       5 UNK         0.0242 
     36 CB         24.2799  -31.5211  -43.6738 C.3       5 UNK        -0.1982 
     37 C          25.9485  -30.3829  -42.0901 C.2       5 UNK         0.5017 
     38 O          25.9864  -31.4528  -41.4829 O.2       5 UNK        -0.5012 
     39 N          26.5956  -29.2767  -41.6904 N.am      6 UNK        -0.4439 
     40 CA         27.3776  -29.1204  -40.4528 C.3       6 UNK         0.0297 
     41 CB         28.6562  -29.9851  -40.4899 C.3       6 UNK        -0.2006 
     42 C          26.5290  -29.3512  -39.1830 C.2       6 UNK         0.4892 
     43 O          27.0047  -29.9484  -38.2165 O.2       6 UNK        -0.5089 
     44 N          25.2763  -28.8753  -39.2383 N.am      7 UNK        -0.4243 
     45 CA         24.2070  -28.9803  -38.2389 C.3       7 UNK         0.0196 
     46 CB         24.6257  -28.3598  -36.8889 C.3       7 UNK        -0.2007 
     47 C          23.6113  -30.3932  -38.0771 C.2       7 UNK         0.5020 
     48 O          22.7920  -30.5883  -37.1780 O.2       7 UNK        -0.5147 
     49 N          23.9647  -31.3459  -38.9544 N.am      8 UNK        -0.4734 
     50 CA         23.3981  -32.7004  -38.9669 C.3       8 UNK         0.0238 
     51 CB         24.2131  -33.6024  -39.9058 C.3       8 UNK        -0.1912 
     52 C          21.9081  -32.7342  -39.3512 C.2       8 UNK         0.5038 
     53 O          21.1947  -33.6266  -38.8906 O.2       8 UNK        -0.5046 
     54 N          21.4627  -31.7618  -40.1580 N.am      9 UNK        -0.4200 
     55 CA         20.0488  -31.5515  -40.5079 C.3       9 UNK         0.0839 
     56 C          19.2370  -30.7968  -39.4138 C.2       9 UNK         0.5513 
     57 N          19.8310  -30.3621  -38.3076 N.am      9 UNK        -0.7519 
     58 O          18.0343  -30.6062  -39.5701 O.2       9 UNK        -0.4960 
     59 C59        19.8907  -30.8783  -41.8971 C.3       10 UNK        -0.0876 
     60 S60        20.6392  -31.8660  -43.2338 S.3       10 UNK        -0.2414 
     61 C61        19.1703  -32.5921  -44.0250 C.3       10 UNK         0.0169 
     62 H62        18.1812  -27.5375  -39.6502 H         1 UNK         0.0903 
     63 H63        18.8346  -28.2064  -41.1437 H         1 UNK         0.0903 
     64 H64        19.5345  -26.7393  -40.4560 H         1 UNK         0.0903 
     65 H65        17.3495  -27.8865  -42.7982 H         1 UNK         0.3096 
     66 H66        15.3331  -25.9159  -42.8075 H         1 UNK         0.1121 
     67 H67        14.8227  -26.7128  -45.0880 H         1 UNK         0.0849 
     68 H68        16.3895  -27.4688  -45.2271 H         1 UNK         0.0849 
     69 H69        14.4744  -30.7785  -45.0376 H         1 UNK         0.0865 
     70 H70        14.6086  -29.4221  -46.1226 H         1 UNK         0.0865 
     71 H71        16.6510  -31.5382  -43.7778 H         1 UNK         0.1346 
     72 H72        20.1105  -31.4731  -46.3080 H         1 UNK         0.1412 
     73 H73        16.6635  -29.1425  -47.3395 H         1 UNK         0.1426 
     74 H74        18.4899  -29.8055  -49.0526 H         1 UNK         0.0716 
     75 H75        20.0107  -30.4193  -48.4608 H         1 UNK         0.0716 
     76 H76        21.9232  -28.7263  -47.1433 H         1 UNK         0.0695 
     77 H77        20.6503  -28.8669  -45.9559 H         1 UNK         0.0695 
     78 H78        22.0183  -26.2912  -46.8709 H         1 UNK         0.0983 
     79 H79        19.3993  -26.4748  -45.9683 H         1 UNK         0.3095 
     80 H80        19.0590  -23.2885  -44.4159 H         1 UNK         0.0454 
     81 H81        19.0427  -22.9839  -46.9558 H         1 UNK         0.0851 
     82 H82        17.4358  -23.0170  -46.2689 H         1 UNK         0.0851 
     83 H83        18.0673  -24.4393  -47.0968 H         1 UNK         0.0851 
     84 H84        18.5279  -25.9648  -44.1550 H         1 UNK         0.2976 
     85 H85        20.8116  -27.3495  -43.7495 H         1 UNK         0.3116 
     86 H86        21.5855  -27.6437  -41.7301 H         1 UNK         0.0646 
     87 H87        24.1209  -26.1549  -42.5802 H         1 UNK         0.0847 
     88 H88        22.6468  -25.4176  -41.9607 H         1 UNK         0.0847 
     89 H89        23.6041  -26.4668  -40.9299 H         1 UNK         0.0847 
     90 H90        24.2112  -28.4001  -43.9999 H         1 UNK         0.3040 
     91 H91        25.7404  -30.0355  -44.1782 H         1 UNK         0.1015 
     92 H92        24.9553  -32.3593  -43.8485 H         1 UNK         0.0786 
     93 H93        23.6738  -31.3982  -44.5713 H         1 UNK         0.0786 
     94 H94        23.6144  -31.8052  -42.8584 H         1 UNK         0.0786 
     95 H95        26.4944  -28.4449  -42.2566 H         1 UNK         0.3172 
     96 H96        27.6910  -28.0758  -40.4195 H         1 UNK         0.0595 
     97 H97        28.4278  -31.0509  -40.4580 H         1 UNK         0.0839 
     98 H98        29.2991  -29.7674  -39.6361 H         1 UNK         0.0839 
     99 H99        29.2399  -29.7936  -41.3901 H         1 UNK         0.0839 
    100 H100       24.9913  -28.4574  -40.1120 H         1 UNK         0.2998 
    101 H101       23.3901  -28.3724  -38.6312 H         1 UNK         0.0822 
    102 H102       23.7724  -28.2804  -36.2141 H         1 UNK         0.0787 
    103 H103       25.0265  -27.3547  -37.0202 H         1 UNK         0.0787 
    104 H104       25.3808  -28.9606  -36.3816 H         1 UNK         0.0787 
    105 H105       24.6155  -31.1153  -39.6961 H         1 UNK         0.3055 
    106 H106       23.4808  -33.1025  -37.9546 H         1 UNK         0.1106 
    107 H107       25.2712  -33.5998  -39.6435 H         1 UNK         0.0828 
    108 H108       23.8667  -34.6352  -39.8506 H         1 UNK         0.0828 
    109 H109       24.1236  -33.2866  -40.9454 H         1 UNK         0.0828 
    110 H110       22.1165  -31.0624  -40.4997 H         1 UNK         0.2931 
    111 H111       19.5777  -32.5334  -40.5836 H         1 UNK         0.0412 
    112 H112       19.2798  -29.8837  -37.6129 H         1 UNK         0.3472 
    113 H113       20.8126  -30.5347  -38.1361 H         1 UNK         0.3472 
    114 H114       20.3631  -29.8965  -41.8980 H         1 UNK         0.0970 
    115 H115       18.8383  -30.7072  -42.1308 H         1 UNK         0.0970 
    116 H116       18.4961  -32.9769  -43.2581 H         1 UNK         0.0612 
    117 H117       19.4839  -33.4528  -44.6172 H         1 UNK         0.0612 
@<TRIPOS>BOND
     1    1    2 1    
     2    1   62 1    
     3    1   63 1    
     4    1   64 1    
     5    2    3 2    
     6    2    4 am   BACKBONE|DICT|INTERRES
     7    4    5 1    
     8    4   65 1    
     9    5    6 1    
    10    5   25 1    
    11    5   66 1    
    12    6    7 1    
    13    6   67 1    
    14    6   68 1    
    15    7    8 1    
    16    8    9 1    
    17    8   69 1    
    18    8   70 1    
    19    9   10 ar   
    20    9   14 ar   
    21   10   11 ar   
    22   10   71 1    
    23   11   12 ar   
    24   11   61 1    
    25   12   13 ar   
    26   12   72 1    
    27   13   14 ar   
    28   13   15 1    
    29   14   73 1    
    30   15   16 1    
    31   15   74 1    
    32   15   75 1    
    33   16   17 1    
    34   17   18 1    
    35   17   76 1    
    36   17   77 1    
    37   18   19 1    
    38   18   27 1    
    39   18   78 1    
    40   19   20 am   BACKBONE|DICT|INTERRES
    41   19   79 1    
    42   20   21 2    
    43   20   22 1    
    44   22   23 1    
    45   22   24 1    
    46   22   80 1    
    47   23   81 1    
    48   23   82 1    
    49   23   83 1    
    50   24   25 am   BACKBONE|DICT|INTERRES
    51   24   84 1    
    52   25   26 2    
    53   27   28 2    
    54   27   29 am   BACKBONE|DICT|INTERRES
    55   29   30 1    
    56   29   85 1    
    57   30   31 1    
    58   30   32 1    
    59   30   86 1    
    60   31   87 1    
    61   31   88 1    
    62   31   89 1    
    63   32   33 2    
    64   32   34 am   BACKBONE|DICT|INTERRES
    65   34   35 1    
    66   34   90 1    
    67   35   36 1    
    68   35   37 1    
    69   35   91 1    
    70   36   92 1    
    71   36   93 1    
    72   36   94 1    
    73   37   38 2    
    74   37   39 am   BACKBONE|DICT|INTERRES
    75   39   40 1    
    76   39   95 1    
    77   40   41 1    
    78   40   42 1    
    79   40   96 1    
    80   41   97 1    
    81   41   98 1    
    82   41   99 1    
    83   42   43 2    
    84   42   44 am   BACKBONE|DICT|INTERRES
    85   44   45 1    
    86   44  100 1    
    87   45   46 1    
    88   45   47 1    
    89   45  101 1    
    90   46  102 1    
    91   46  103 1    
    92   46  104 1    
    93   47   48 2    
    94   47   49 am   BACKBONE|DICT|INTERRES
    95   49   50 1    
    96   49  105 1    
    97   50   51 1    
    98   50   52 1    
    99   50  106 1    
   100   51  107 1    
   101   51  108 1    
   102   51  109 1    
   103   52   53 2    
   104   52   54 am   BACKBONE|DICT|INTERRES
   105   54   55 1    
   106   54  110 1    
   107   55   56 1    
   108   55   59 1    
   109   55  111 1    
   110   56   57 am   BACKBONE|DICT|INTERRES
   111   56   58 2    
   112   57  112 1    
   113   57  113 1    
   114   59   60 1    
   115   59  114 1    
   116   59  115 1    
   117   60   61 1    
   118   61  116 1    
   119   61  117 1    
@<TRIPOS>SUBSTRUCTURE
     1 UNK         1 GROUP             0       ****    0 ROOT    
