@<TRIPOS>MOLECULE
3R8
117   119    1
SMALL
USER_CHARGES


@<TRIPOS>ATOM
      1 CA         18.5284  -26.5536  -38.8328 C.3       0 UNK        -0.2013 
      2 C          17.8952  -26.2860  -40.1891 C.2       0 UNK         0.4866 
      3 O          16.6885  -26.0553  -40.2721 O.2       0 UNK        -0.5176 
      4 N          18.7035  -26.3158  -41.2520 N.am      1 UNK        -0.4884 
      5 CA         18.2967  -26.0732  -42.6374 C.3       1 UNK         0.0853 
      6 C6         17.5053  -27.2676  -43.2386 C.3       10 UNK        -0.0849 
      7 S7         16.4314  -26.7982  -44.6388 S.3       10 UNK        -0.2776 
      8 C8         15.4746  -28.3320  -44.8938 C.3       10 UNK         0.0316 
      9 C9         16.3725  -29.5560  -45.0211 C.ar      10 UNK        -0.0863 
     10 C10        16.3908  -30.5234  -44.0121 C.ar      10 UNK        -0.1009 
     11 C11        17.2499  -31.6244  -44.0855 C.ar      10 UNK        -0.0712 
     12 C12        18.1038  -31.7427  -45.1921 C.ar      10 UNK        -0.0894 
     13 C13        18.0925  -30.7845  -46.2108 C.ar      10 UNK        -0.0745 
     14 C14        17.2125  -29.7021  -46.1273 C.ar      10 UNK        -0.0972 
     15 C15        19.0385  -30.9148  -47.3978 C.3       10 UNK         0.0209 
     16 S16        20.1952  -29.5119  -47.5298 S.3       10 UNK        -0.2568 
     17 C17        21.1867  -29.6934  -46.0102 C.3       10 UNK        -0.0983 
     18 CA         22.1387  -28.4920  -45.7706 C.3       3 UNK         0.0876 
     19 N          21.4210  -27.2611  -45.4447 N.am      3 UNK        -0.4424 
     20 C          21.1606  -26.2490  -46.2777 C.2       2 UNK         0.4918 
     21 O          21.4794  -26.2519  -47.4680 O.2       2 UNK        -0.4875 
     22 CA         20.4280  -25.0219  -45.6870 C.3       2 UNK         0.0481 
     23 CB         19.8219  -24.1202  -46.7788 C.3       2 UNK        -0.1831 
     24 N          19.3704  -25.3778  -44.7343 N.am      2 UNK        -0.4498 
     25 C          19.5549  -25.7232  -43.4552 C.2       1 UNK         0.5027 
     26 O          20.6702  -25.7941  -42.9353 O.2       1 UNK        -0.4969 
     27 C          23.0915  -28.7750  -44.5982 C.2       3 UNK         0.5005 
     28 O          22.7777  -28.4154  -43.4601 O.2       3 UNK        -0.5279 
     29 N          24.2300  -29.4211  -44.8936 N.am      4 UNK        -0.4463 
     30 CA         25.3275  -29.7286  -43.9642 C.3       4 UNK         0.0283 
     31 CB         24.8674  -30.7570  -42.9034 C.3       4 UNK        -0.1875 
     32 C          25.9433  -28.4520  -43.3490 C.2       4 UNK         0.4949 
     33 O          25.8576  -27.3762  -43.9464 O.2       4 UNK        -0.5039 
     34 N          26.5435  -28.5719  -42.1588 N.am      5 UNK        -0.4663 
     35 CA         27.0559  -27.4523  -41.3633 C.3       5 UNK         0.0242 
     36 CB         28.2288  -27.9524  -40.4986 C.3       5 UNK        -0.1982 
     37 C          25.9242  -26.8245  -40.5261 C.2       5 UNK         0.5017 
     38 O          26.0096  -26.8009  -39.2972 O.2       5 UNK        -0.5012 
     39 N          24.8495  -26.3950  -41.2045 N.am      6 UNK        -0.4439 
     40 CA         23.5763  -25.8541  -40.6980 C.3       6 UNK         0.0297 
     41 CB         23.7887  -24.5709  -39.8727 C.3       6 UNK        -0.2006 
     42 C          22.7017  -26.8662  -39.9316 C.2       6 UNK         0.4892 
     43 O          21.4778  -26.8320  -40.0712 O.2       6 UNK        -0.5089 
     44 N          23.3253  -27.7630  -39.1571 N.am      7 UNK        -0.4243 
     45 CA         22.7105  -28.8901  -38.4536 C.3       7 UNK         0.0196 
     46 CB         23.6702  -29.3647  -37.3472 C.3       7 UNK        -0.2007 
     47 C          22.3321  -30.0179  -39.4334 C.2       7 UNK         0.5020 
     48 O          22.8991  -31.1117  -39.3818 O.2       7 UNK        -0.5147 
     49 N          21.4011  -29.7037  -40.3394 N.am      8 UNK        -0.4734 
     50 CA         20.8985  -30.5684  -41.4032 C.3       8 UNK         0.0238 
     51 CB         19.8658  -29.7821  -42.2210 C.3       8 UNK        -0.1912 
     52 C          20.2769  -31.8654  -40.8634 C.2       8 UNK         0.5038 
     53 O          19.4674  -31.8095  -39.9344 O.2       8 UNK        -0.5046 
     54 N          20.6527  -32.9946  -41.4761 N.am      9 UNK        -0.4200 
     55 CA         20.1860  -34.3559  -41.1557 C.3       9 UNK         0.0839 
     56 C          20.6131  -34.8837  -39.7506 C.2       9 UNK         0.5513 
     57 N          21.5430  -34.2430  -39.0508 N.am      9 UNK        -0.7519 
     58 O          20.1203  -35.9145  -39.2992 O.2       9 UNK        -0.4960 
     59 C59        18.6691  -34.5688  -41.4429 C.3       10 UNK        -0.0876 
     60 S60        18.2136  -34.1448  -43.1617 S.3       10 UNK        -0.2414 
     61 C61        17.2525  -32.6099  -42.9139 C.3       10 UNK         0.0169 
     62 H62        17.7784  -26.5362  -38.0423 H         1 UNK         0.0903 
     63 H63        19.0099  -27.5313  -38.8225 H         1 UNK         0.0903 
     64 H64        19.2795  -25.7970  -38.6063 H         1 UNK         0.0903 
     65 H65        19.7076  -26.4402  -41.1279 H         1 UNK         0.3096 
     66 H66        17.6614  -25.1844  -42.6363 H         1 UNK         0.1121 
     67 H67        16.8623  -27.7182  -42.4813 H         1 UNK         0.0849 
     68 H68        18.1820  -28.0584  -43.5634 H         1 UNK         0.0849 
     69 H69        14.7711  -28.4515  -44.0683 H         1 UNK         0.0865 
     70 H70        14.8708  -28.2303  -45.7967 H         1 UNK         0.0865 
     71 H71        15.7481  -30.4079  -43.1497 H         1 UNK         0.1346 
     72 H72        18.7959  -32.5688  -45.2646 H         1 UNK         0.1412 
     73 H73        17.2098  -28.9516  -46.9063 H         1 UNK         0.1426 
     74 H74        18.4488  -30.9709  -48.3137 H         1 UNK         0.0716 
     75 H75        19.6112  -31.8419  -47.3441 H         1 UNK         0.0716 
     76 H76        21.7500  -30.6247  -46.0951 H         1 UNK         0.0695 
     77 H77        20.5134  -29.8153  -45.1613 H         1 UNK         0.0695 
     78 H78        22.7490  -28.3322  -46.6623 H         1 UNK         0.0983 
     79 H79        21.2471  -27.1292  -44.4529 H         1 UNK         0.3095 
     80 H80        21.1817  -24.4334  -45.1598 H         1 UNK         0.0454 
     81 H81        19.0804  -24.6536  -47.3747 H         1 UNK         0.0851 
     82 H82        20.5909  -23.7576  -47.4622 H         1 UNK         0.0851 
     83 H83        19.3395  -23.2428  -46.3479 H         1 UNK         0.0851 
     84 H84        18.4287  -25.4199  -45.1026 H         1 UNK         0.2976 
     85 H85        24.4093  -29.6535  -45.8609 H         1 UNK         0.3116 
     86 H86        26.1131  -30.1920  -44.5625 H         1 UNK         0.0646 
     87 H87        24.2002  -30.3100  -42.1649 H         1 UNK         0.0847 
     88 H88        25.7147  -31.1833  -42.3658 H         1 UNK         0.0847 
     89 H89        24.3383  -31.5907  -43.3649 H         1 UNK         0.0847 
     90 H90        26.5577  -29.4799  -41.7167 H         1 UNK         0.3040 
     91 H91        27.4403  -26.6732  -42.0260 H         1 UNK         0.1015 
     92 H92        27.9163  -28.7306  -39.8010 H         1 UNK         0.0786 
     93 H93        28.6551  -27.1385  -39.9104 H         1 UNK         0.0786 
     94 H94        29.0311  -28.3576  -41.1156 H         1 UNK         0.0786 
     95 H95        24.8773  -26.5332  -42.2096 H         1 UNK         0.3172 
     96 H96        23.0114  -25.5778  -41.5894 H         1 UNK         0.0595 
     97 H97        24.3291  -24.7641  -38.9456 H         1 UNK         0.0839 
     98 H98        22.8312  -24.1248  -39.6004 H         1 UNK         0.0839 
     99 H99        24.3453  -23.8232  -40.4374 H         1 UNK         0.0839 
    100 H100       24.3348  -27.6769  -39.0871 H         1 UNK         0.2998 
    101 H101       21.7901  -28.5451  -37.9774 H         1 UNK         0.0822 
    102 H102       23.2407  -30.1970  -36.7880 H         1 UNK         0.0787 
    103 H103       24.6232  -29.7023  -37.7570 H         1 UNK         0.0787 
    104 H104       23.8769  -28.5673  -36.6331 H         1 UNK         0.0787 
    105 H105       21.0606  -28.7479  -40.3300 H         1 UNK         0.3055 
    106 H106       21.7432  -30.8109  -42.0510 H         1 UNK         0.1106 
    107 H107       18.9885  -29.5267  -41.6249 H         1 UNK         0.0828 
    108 H108       20.2887  -28.8561  -42.6097 H         1 UNK         0.0828 
    109 H109       19.5234  -30.3652  -43.0741 H         1 UNK         0.0828 
    110 H110       21.3298  -32.9421  -42.2226 H         1 UNK         0.2931 
    111 H111       20.7264  -34.9990  -41.8514 H         1 UNK         0.0412 
    112 H112       21.8175  -34.6042  -38.1509 H         1 UNK         0.3472 
    113 H113       21.9490  -33.3836  -39.3934 H         1 UNK         0.3472 
    114 H114       18.4003  -35.6157  -41.2911 H         1 UNK         0.0970 
    115 H115       18.0584  -34.0032  -40.7374 H         1 UNK         0.0970 
    116 H116       16.2256  -32.8910  -42.6763 H         1 UNK         0.0612 
    117 H117       17.6346  -32.0803  -42.0419 H         1 UNK         0.0612 
@<TRIPOS>BOND
     1    1    2 1    
     2    1   62 1    
     3    1   63 1    
     4    1   64 1    
     5    2    3 2    
     6    2    4 am   BACKBONE|DICT|INTERRES
     7    4    5 1    
     8    4   65 1    
     9    5    6 1    
    10    5   25 1    
    11    5   66 1    
    12    6    7 1    
    13    6   67 1    
    14    6   68 1    
    15    7    8 1    
    16    8    9 1    
    17    8   69 1    
    18    8   70 1    
    19    9   10 ar   
    20    9   14 ar   
    21   10   11 ar   
    22   10   71 1    
    23   11   12 ar   
    24   11   61 1    
    25   12   13 ar   
    26   12   72 1    
    27   13   14 ar   
    28   13   15 1    
    29   14   73 1    
    30   15   16 1    
    31   15   74 1    
    32   15   75 1    
    33   16   17 1    
    34   17   18 1    
    35   17   76 1    
    36   17   77 1    
    37   18   19 1    
    38   18   27 1    
    39   18   78 1    
    40   19   20 am   BACKBONE|DICT|INTERRES
    41   19   79 1    
    42   20   21 2    
    43   20   22 1    
    44   22   23 1    
    45   22   24 1    
    46   22   80 1    
    47   23   81 1    
    48   23   82 1    
    49   23   83 1    
    50   24   25 am   BACKBONE|DICT|INTERRES
    51   24   84 1    
    52   25   26 2    
    53   27   28 2    
    54   27   29 am   BACKBONE|DICT|INTERRES
    55   29   30 1    
    56   29   85 1    
    57   30   31 1    
    58   30   32 1    
    59   30   86 1    
    60   31   87 1    
    61   31   88 1    
    62   31   89 1    
    63   32   33 2    
    64   32   34 am   BACKBONE|DICT|INTERRES
    65   34   35 1    
    66   34   90 1    
    67   35   36 1    
    68   35   37 1    
    69   35   91 1    
    70   36   92 1    
    71   36   93 1    
    72   36   94 1    
    73   37   38 2    
    74   37   39 am   BACKBONE|DICT|INTERRES
    75   39   40 1    
    76   39   95 1    
    77   40   41 1    
    78   40   42 1    
    79   40   96 1    
    80   41   97 1    
    81   41   98 1    
    82   41   99 1    
    83   42   43 2    
    84   42   44 am   BACKBONE|DICT|INTERRES
    85   44   45 1    
    86   44  100 1    
    87   45   46 1    
    88   45   47 1    
    89   45  101 1    
    90   46  102 1    
    91   46  103 1    
    92   46  104 1    
    93   47   48 2    
    94   47   49 am   BACKBONE|DICT|INTERRES
    95   49   50 1    
    96   49  105 1    
    97   50   51 1    
    98   50   52 1    
    99   50  106 1    
   100   51  107 1    
   101   51  108 1    
   102   51  109 1    
   103   52   53 2    
   104   52   54 am   BACKBONE|DICT|INTERRES
   105   54   55 1    
   106   54  110 1    
   107   55   56 1    
   108   55   59 1    
   109   55  111 1    
   110   56   57 am   BACKBONE|DICT|INTERRES
   111   56   58 2    
   112   57  112 1    
   113   57  113 1    
   114   59   60 1    
   115   59  114 1    
   116   59  115 1    
   117   60   61 1    
   118   61  116 1    
   119   61  117 1    
@<TRIPOS>SUBSTRUCTURE
     1 UNK         1 GROUP             0       ****    0 ROOT    
