@<TRIPOS>MOLECULE
3R8
117   119    1
SMALL
USER_CHARGES


@<TRIPOS>ATOM
      1 CA         15.5409  -23.2329  -42.1261 C.3       0 UNK        -0.2013 
      2 C          16.4729  -24.4346  -42.1758 C.2       0 UNK         0.4866 
      3 O          17.3033  -24.5959  -41.2813 O.2       0 UNK        -0.5176 
      4 N          16.3347  -25.2713  -43.2139 N.am      1 UNK        -0.4884 
      5 CA         17.1334  -26.4750  -43.4826 C.3       1 UNK         0.0853 
      6 C6         16.9301  -27.6083  -42.4367 C.3       10 UNK        -0.0849 
      7 S7         15.1995  -28.1603  -42.2368 S.3       10 UNK        -0.2776 
      8 C8         14.7549  -28.8285  -43.8801 C.3       10 UNK         0.0316 
      9 C9         15.8169  -29.7398  -44.4869 C.ar      10 UNK        -0.0863 
     10 C10        16.2943  -30.8510  -43.7832 C.ar      10 UNK        -0.1009 
     11 C11        17.2954  -31.6609  -44.3297 C.ar      10 UNK        -0.0712 
     12 C12        17.7776  -31.3865  -45.6114 C.ar      10 UNK        -0.0894 
     13 C13        17.3190  -30.2734  -46.3191 C.ar      10 UNK        -0.0745 
     14 C14        16.3332  -29.4587  -45.7561 C.ar      10 UNK        -0.0972 
     15 C15        17.9094  -29.9325  -47.6785 C.3       10 UNK         0.0209 
     16 S16        19.2050  -28.6585  -47.5440 S.3       10 UNK        -0.2568 
     17 C17        20.5886  -29.6075  -46.8259 C.3       10 UNK        -0.0983 
     18 CA         21.6206  -28.6999  -46.1189 C.3       3 UNK         0.0876 
     19 N          21.0423  -27.9673  -44.9895 N.am      3 UNK        -0.4424 
     20 C          21.6530  -26.9647  -44.3428 C.2       2 UNK         0.4918 
     21 O          22.7076  -26.4535  -44.7241 O.2       2 UNK        -0.4875 
     22 CA         21.0029  -26.4822  -43.0327 C.3       2 UNK         0.0481 
     23 CB         21.3900  -25.0365  -42.6583 C.3       2 UNK        -0.1831 
     24 N          19.5506  -26.6808  -42.9664 N.am      2 UNK        -0.4498 
     25 C          18.6139  -26.1063  -43.7390 C.2       1 UNK         0.5027 
     26 O          18.8722  -25.3141  -44.6476 O.2       1 UNK        -0.4969 
     27 C          22.8173  -29.5277  -45.6125 C.2       3 UNK         0.5005 
     28 O          22.6953  -30.1949  -44.5824 O.2       3 UNK        -0.5279 
     29 N          23.9560  -29.4336  -46.3129 N.am      4 UNK        -0.4463 
     30 CA         25.2885  -29.9318  -45.9391 C.3       4 UNK         0.0283 
     31 CB         25.3107  -31.4568  -45.7068 C.3       4 UNK        -0.1875 
     32 C          25.8993  -29.1634  -44.7520 C.2       4 UNK         0.4949 
     33 O          26.9916  -28.6136  -44.8947 O.2       4 UNK        -0.5039 
     34 N          25.1809  -29.1055  -43.6257 N.am      5 UNK        -0.4663 
     35 CA         25.5185  -28.3395  -42.4305 C.3       5 UNK         0.0242 
     36 CB         26.6541  -29.0342  -41.6521 C.3       5 UNK        -0.1982 
     37 C          24.2731  -28.2147  -41.5482 C.2       5 UNK         0.5017 
     38 O          23.4205  -29.1055  -41.5642 O.2       5 UNK        -0.5012 
     39 N          24.2300  -27.1639  -40.7186 N.am      6 UNK        -0.4439 
     40 CA         23.2122  -26.9730  -39.6753 C.3       6 UNK         0.0297 
     41 CB         23.3398  -25.5577  -39.0904 C.3       6 UNK        -0.2006 
     42 C          23.2751  -28.0327  -38.5572 C.2       6 UNK         0.4892 
     43 O          22.2647  -28.2791  -37.9006 O.2       6 UNK        -0.5089 
     44 N          24.4506  -28.6507  -38.3742 N.am      7 UNK        -0.4243 
     45 CA         24.6598  -29.7993  -37.4922 C.3       7 UNK         0.0196 
     46 CB         26.1552  -29.8998  -37.1490 C.3       7 UNK        -0.2007 
     47 C          24.1626  -31.1223  -38.1050 C.2       7 UNK         0.5020 
     48 O          23.8674  -32.0510  -37.3526 O.2       7 UNK        -0.5147 
     49 N          24.0940  -31.2013  -39.4424 N.am      8 UNK        -0.4734 
     50 CA         23.6174  -32.3766  -40.1745 C.3       8 UNK         0.0238 
     51 CB         24.2990  -32.4516  -41.5530 C.3       8 UNK        -0.1912 
     52 C          22.0898  -32.3542  -40.3154 C.2       8 UNK         0.5038 
     53 O          21.4423  -33.3556  -40.0069 O.2       8 UNK        -0.5046 
     54 N          21.5530  -31.2111  -40.7554 N.am      9 UNK        -0.4200 
     55 CA         20.1220  -30.9585  -40.9357 C.3       9 UNK         0.0839 
     56 C          19.7496  -29.6608  -40.1813 C.2       9 UNK         0.5513 
     57 N          19.4541  -29.7565  -38.8933 N.am      9 UNK        -0.7519 
     58 O          19.7065  -28.5765  -40.7568 O.2       9 UNK        -0.4960 
     59 C59        19.7407  -30.8974  -42.4361 C.3       10 UNK        -0.0876 
     60 S60        19.6975  -32.5422  -43.2300 S.3       10 UNK        -0.2414 
     61 C61        17.9079  -32.7900  -43.5106 C.3       10 UNK         0.0169 
     62 H62        16.1190  -22.3093  -42.1383 H         1 UNK         0.0903 
     63 H63        14.8525  -23.2134  -42.9708 H         1 UNK         0.0903 
     64 H64        14.9515  -23.2540  -41.2098 H         1 UNK         0.0903 
     65 H65        15.6462  -25.0541  -43.9210 H         1 UNK         0.3096 
     66 H66        16.7816  -26.8537  -44.4424 H         1 UNK         0.1121 
     67 H67        17.5256  -28.4816  -42.7003 H         1 UNK         0.0849 
     68 H68        17.2831  -27.2909  -41.4540 H         1 UNK         0.0849 
     69 H69        13.8231  -29.3881  -43.7890 H         1 UNK         0.0865 
     70 H70        14.5376  -27.9914  -44.5453 H         1 UNK         0.0865 
     71 H71        15.9138  -31.0576  -42.7920 H         1 UNK         0.1346 
     72 H72        18.5503  -32.0142  -46.0340 H         1 UNK         0.1412 
     73 H73        15.9810  -28.5966  -46.3064 H         1 UNK         0.1426 
     74 H74        18.3191  -30.8225  -48.1590 H         1 UNK         0.0716 
     75 H75        17.1209  -29.5657  -48.3372 H         1 UNK         0.0716 
     76 H76        21.0604  -30.1692  -47.6345 H         1 UNK         0.0695 
     77 H77        20.2068  -30.3461  -46.1216 H         1 UNK         0.0695 
     78 H78        21.9823  -27.9647  -46.8413 H         1 UNK         0.0983 
     79 H79        20.1857  -28.3386  -44.6105 H         1 UNK         0.3095 
     80 H80        21.4147  -27.1341  -42.2643 H         1 UNK         0.0454 
     81 H81        20.9419  -24.7406  -41.7098 H         1 UNK         0.0851 
     82 H82        21.0730  -24.3221  -43.4184 H         1 UNK         0.0851 
     83 H83        22.4704  -24.9370  -42.5482 H         1 UNK         0.0851 
     84 H84        19.2592  -27.3054  -42.2193 H         1 UNK         0.2976 
     85 H85        23.9486  -28.8445  -47.1349 H         1 UNK         0.3116 
     86 H86        25.9250  -29.7322  -46.8028 H         1 UNK         0.0646 
     87 H87        24.9028  -31.9943  -46.5626 H         1 UNK         0.0847 
     88 H88        26.3326  -31.8084  -45.5600 H         1 UNK         0.0847 
     89 H89        24.7430  -31.7525  -44.8244 H         1 UNK         0.0847 
     90 H90        24.2629  -29.5495  -43.6130 H         1 UNK         0.3040 
     91 H91        25.8340  -27.3392  -42.7355 H         1 UNK         0.1015 
     92 H92        26.3787  -30.0471  -41.3559 H         1 UNK         0.0786 
     93 H93        26.9086  -28.4838  -40.7457 H         1 UNK         0.0786 
     94 H94        27.5650  -29.1005  -42.2470 H         1 UNK         0.0786 
     95 H95        24.9700  -26.4767  -40.7593 H         1 UNK         0.3172 
     96 H96        22.2278  -27.0596  -40.1380 H         1 UNK         0.0595 
     97 H97        24.3102  -25.3995  -38.6183 H         1 UNK         0.0839 
     98 H98        22.5762  -25.3806  -38.3315 H         1 UNK         0.0839 
     99 H99        23.2098  -24.7963  -39.8596 H         1 UNK         0.0839 
    100 H100       25.2389  -28.3519  -38.9281 H         1 UNK         0.2998 
    101 H101       24.1058  -29.6354  -36.5651 H         1 UNK         0.0822 
    102 H102       26.5117  -28.9940  -36.6579 H         1 UNK         0.0787 
    103 H103       26.3435  -30.7309  -36.4678 H         1 UNK         0.0787 
    104 H104       26.7651  -30.0635  -38.0385 H         1 UNK         0.0787 
    105 H105       24.2773  -30.3731  -39.9919 H         1 UNK         0.3055 
    106 H106       23.8881  -33.2789  -39.6207 H         1 UNK         0.1106 
    107 H107       25.3837  -32.5000  -41.4579 H         1 UNK         0.0828 
    108 H108       23.9816  -33.3449  -42.0925 H         1 UNK         0.0828 
    109 H109       24.0555  -31.5953  -42.1822 H         1 UNK         0.0828 
    110 H110       22.1668  -30.4333  -40.9842 H         1 UNK         0.2931 
    111 H111       19.5356  -31.7590  -40.4796 H         1 UNK         0.0412 
    112 H112       19.5007  -30.6415  -38.4134 H         1 UNK         0.3472 
    113 H113       19.2290  -28.9180  -38.3819 H         1 UNK         0.3472 
    114 H114       18.7691  -30.4219  -42.5520 H         1 UNK         0.0970 
    115 H115       20.4445  -30.2673  -42.9828 H         1 UNK         0.0970 
    116 H116       17.7571  -33.7357  -44.0326 H         1 UNK         0.0612 
    117 H117       17.4109  -32.8846  -42.5438 H         1 UNK         0.0612 
@<TRIPOS>BOND
     1    1    2 1    
     2    1   62 1    
     3    1   63 1    
     4    1   64 1    
     5    2    3 2    
     6    2    4 am   BACKBONE|DICT|INTERRES
     7    4    5 1    
     8    4   65 1    
     9    5    6 1    
    10    5   25 1    
    11    5   66 1    
    12    6    7 1    
    13    6   67 1    
    14    6   68 1    
    15    7    8 1    
    16    8    9 1    
    17    8   69 1    
    18    8   70 1    
    19    9   10 ar   
    20    9   14 ar   
    21   10   11 ar   
    22   10   71 1    
    23   11   12 ar   
    24   11   61 1    
    25   12   13 ar   
    26   12   72 1    
    27   13   14 ar   
    28   13   15 1    
    29   14   73 1    
    30   15   16 1    
    31   15   74 1    
    32   15   75 1    
    33   16   17 1    
    34   17   18 1    
    35   17   76 1    
    36   17   77 1    
    37   18   19 1    
    38   18   27 1    
    39   18   78 1    
    40   19   20 am   BACKBONE|DICT|INTERRES
    41   19   79 1    
    42   20   21 2    
    43   20   22 1    
    44   22   23 1    
    45   22   24 1    
    46   22   80 1    
    47   23   81 1    
    48   23   82 1    
    49   23   83 1    
    50   24   25 am   BACKBONE|DICT|INTERRES
    51   24   84 1    
    52   25   26 2    
    53   27   28 2    
    54   27   29 am   BACKBONE|DICT|INTERRES
    55   29   30 1    
    56   29   85 1    
    57   30   31 1    
    58   30   32 1    
    59   30   86 1    
    60   31   87 1    
    61   31   88 1    
    62   31   89 1    
    63   32   33 2    
    64   32   34 am   BACKBONE|DICT|INTERRES
    65   34   35 1    
    66   34   90 1    
    67   35   36 1    
    68   35   37 1    
    69   35   91 1    
    70   36   92 1    
    71   36   93 1    
    72   36   94 1    
    73   37   38 2    
    74   37   39 am   BACKBONE|DICT|INTERRES
    75   39   40 1    
    76   39   95 1    
    77   40   41 1    
    78   40   42 1    
    79   40   96 1    
    80   41   97 1    
    81   41   98 1    
    82   41   99 1    
    83   42   43 2    
    84   42   44 am   BACKBONE|DICT|INTERRES
    85   44   45 1    
    86   44  100 1    
    87   45   46 1    
    88   45   47 1    
    89   45  101 1    
    90   46  102 1    
    91   46  103 1    
    92   46  104 1    
    93   47   48 2    
    94   47   49 am   BACKBONE|DICT|INTERRES
    95   49   50 1    
    96   49  105 1    
    97   50   51 1    
    98   50   52 1    
    99   50  106 1    
   100   51  107 1    
   101   51  108 1    
   102   51  109 1    
   103   52   53 2    
   104   52   54 am   BACKBONE|DICT|INTERRES
   105   54   55 1    
   106   54  110 1    
   107   55   56 1    
   108   55   59 1    
   109   55  111 1    
   110   56   57 am   BACKBONE|DICT|INTERRES
   111   56   58 2    
   112   57  112 1    
   113   57  113 1    
   114   59   60 1    
   115   59  114 1    
   116   59  115 1    
   117   60   61 1    
   118   61  116 1    
   119   61  117 1    
@<TRIPOS>SUBSTRUCTURE
     1 UNK         1 GROUP             0       ****    0 ROOT    
