@<TRIPOS>MOLECULE
3R8
117   119    1
SMALL
USER_CHARGES


@<TRIPOS>ATOM
      1 CA         14.0558  -29.6132  -41.7268 C.3       0 UNK        -0.2013 
      2 C          15.0870  -28.8138  -40.9348 C.2       0 UNK         0.4866 
      3 O          15.1229  -28.9208  -39.7100 O.2       0 UNK        -0.5176 
      4 N          15.9302  -27.9960  -41.5747 N.am      1 UNK        -0.4884 
      5 CA         15.9492  -27.6716  -43.0009 C.3       1 UNK         0.0853 
      6 C6         16.7524  -28.7055  -43.8392 C.3       10 UNK        -0.0849 
      7 S7         16.2076  -28.7304  -45.5841 S.3       10 UNK        -0.2776 
      8 C8         17.1114  -30.1618  -46.2588 C.3       10 UNK         0.0316 
      9 C9         18.6174  -30.0392  -46.0717 C.ar      10 UNK        -0.0863 
     10 C10        19.2972  -30.9584  -45.2717 C.ar      10 UNK        -0.1009 
     11 C11        20.6739  -30.8412  -45.0644 C.ar      10 UNK        -0.0712 
     12 C12        21.3750  -29.7953  -45.6736 C.ar      10 UNK        -0.0894 
     13 C13        20.7114  -28.8719  -46.4901 C.ar      10 UNK        -0.0745 
     14 C14        19.3320  -29.0122  -46.6943 C.ar      10 UNK        -0.0972 
     15 C15        21.5058  -27.7629  -47.1786 C.3       10 UNK         0.0209 
     16 S16        20.6091  -26.1749  -47.2932 S.3       10 UNK        -0.2568 
     17 C17        21.3407  -25.1770  -45.9481 C.3       10 UNK        -0.0983 
     18 CA         20.6317  -25.2608  -44.5652 C.3       3 UNK         0.0876 
     19 N          19.1759  -25.2495  -44.6505 N.am      3 UNK        -0.4424 
     20 C          18.4046  -24.1641  -44.7450 C.2       2 UNK         0.4918 
     21 O          18.8481  -23.0163  -44.8006 O.2       2 UNK        -0.4875 
     22 CA         16.8785  -24.3788  -44.7909 C.3       2 UNK         0.0481 
     23 CB         16.3428  -24.0772  -46.2001 C.3       2 UNK        -0.1831 
     24 N          16.4429  -25.7241  -44.4006 N.am      2 UNK        -0.4498 
     25 C          16.4781  -26.2312  -43.1614 C.2       1 UNK         0.5027 
     26 O          16.8981  -25.6105  -42.1802 O.2       1 UNK        -0.4969 
     27 C          21.0699  -26.4649  -43.7158 C.2       3 UNK         0.5005 
     28 O          20.2460  -27.3238  -43.3921 O.2       3 UNK        -0.5279 
     29 N          22.3554  -26.4712  -43.3501 N.am      4 UNK        -0.4463 
     30 CA         23.0280  -27.5051  -42.5672 C.3       4 UNK         0.0283 
     31 CB         23.6191  -26.8454  -41.3081 C.3       4 UNK        -0.1875 
     32 C          24.1355  -28.1493  -43.4156 C.2       4 UNK         0.4949 
     33 O          24.4546  -27.6496  -44.4983 O.2       4 UNK        -0.5039 
     34 N          24.7172  -29.2348  -42.9004 N.am      5 UNK        -0.4663 
     35 CA         25.8285  -29.9617  -43.5109 C.3       5 UNK         0.0242 
     36 CB         25.2786  -31.1299  -44.3576 C.3       5 UNK        -0.1982 
     37 C          26.7983  -30.3746  -42.3937 C.2       5 UNK         0.5017 
     38 O          27.2529  -29.5073  -41.6457 O.2       5 UNK        -0.5012 
     39 N          27.0832  -31.6796  -42.2722 N.am      6 UNK        -0.4439 
     40 CA         27.8596  -32.2707  -41.1737 C.3       6 UNK         0.0297 
     41 CB         28.2533  -33.7082  -41.5514 C.3       6 UNK        -0.2006 
     42 C          27.1133  -32.2532  -39.8232 C.2       6 UNK         0.4892 
     43 O          27.7513  -32.3724  -38.7766 O.2       6 UNK        -0.5089 
     44 N          25.7870  -32.0965  -39.8781 N.am      7 UNK        -0.4243 
     45 CA         24.8857  -31.8607  -38.7575 C.3       7 UNK         0.0196 
     46 CB         24.0256  -33.1187  -38.5396 C.3       7 UNK        -0.2007 
     47 C          24.0126  -30.6441  -39.0994 C.2       7 UNK         0.5020 
     48 O          24.0681  -30.1415  -40.2251 O.2       7 UNK        -0.5147 
     49 N          23.2004  -30.2033  -38.1301 N.am      8 UNK        -0.4734 
     50 CA         22.2598  -29.0838  -38.2766 C.3       8 UNK         0.0238 
     51 CB         21.7212  -28.6946  -36.8899 C.3       8 UNK        -0.1912 
     52 C          21.0947  -29.3572  -39.2489 C.2       8 UNK         0.5038 
     53 O          20.4850  -28.4019  -39.7275 O.2       8 UNK        -0.5046 
     54 N          20.8094  -30.6418  -39.5052 N.am      9 UNK        -0.4200 
     55 CA         19.8095  -31.1623  -40.4551 C.3       9 UNK         0.0839 
     56 C          18.3190  -30.9287  -40.0650 C.2       9 UNK         0.5513 
     57 N          18.0058  -30.3723  -38.9021 N.am      9 UNK        -0.7519 
     58 O          17.4241  -31.3000  -40.8198 O.2       9 UNK        -0.4960 
     59 C59        20.0846  -30.7384  -41.9247 C.3       10 UNK        -0.0876 
     60 S60        21.7473  -31.2029  -42.5227 S.3       10 UNK        -0.2414 
     61 C61        21.3954  -31.8542  -44.1855 C.3       10 UNK         0.0169 
     62 H62        13.2408  -28.9678  -42.0528 H         1 UNK         0.0903 
     63 H63        14.4967  -30.0898  -42.6006 H         1 UNK         0.0903 
     64 H64        13.6304  -30.4018  -41.1065 H         1 UNK         0.0903 
     65 H65        16.5719  -27.4271  -41.0351 H         1 UNK         0.3096 
     66 H66        14.9146  -27.6478  -43.3500 H         1 UNK         0.1121 
     67 H67        16.6236  -29.7119  -43.4389 H         1 UNK         0.0849 
     68 H68        17.8257  -28.5105  -43.7876 H         1 UNK         0.0849 
     69 H69        16.7314  -31.0713  -45.7906 H         1 UNK         0.0865 
     70 H70        16.8901  -30.2514  -47.3232 H         1 UNK         0.0865 
     71 H71        18.7513  -31.7640  -44.8001 H         1 UNK         0.1346 
     72 H72        22.4396  -29.7026  -45.5100 H         1 UNK         0.1412 
     73 H73        18.8034  -28.3140  -47.3282 H         1 UNK         0.1426 
     74 H74        21.7404  -28.0957  -48.1903 H         1 UNK         0.0716 
     75 H75        22.4632  -27.6081  -46.6786 H         1 UNK         0.0716 
     76 H76        21.2925  -24.1411  -46.2870 H         1 UNK         0.0695 
     77 H77        22.4075  -25.3927  -45.8718 H         1 UNK         0.0695 
     78 H78        20.9315  -24.3841  -43.9859 H         1 UNK         0.0983 
     79 H79        18.7534  -26.1624  -44.5469 H         1 UNK         0.3095 
     80 H80        16.4302  -23.6656  -44.0962 H         1 UNK         0.0454 
     81 H81        16.7510  -24.7651  -46.9419 H         1 UNK         0.0851 
     82 H82        16.6100  -23.0667  -46.5127 H         1 UNK         0.0851 
     83 H83        15.2556  -24.1473  -46.2370 H         1 UNK         0.0851 
     84 H84        16.1178  -26.3260  -45.1468 H         1 UNK         0.2976 
     85 H85        22.9704  -25.7665  -43.7329 H         1 UNK         0.3116 
     86 H86        22.3248  -28.2847  -42.2676 H         1 UNK         0.0646 
     87 H87        22.8330  -26.4216  -40.6829 H         1 UNK         0.0847 
     88 H88        24.3169  -26.0460  -41.5595 H         1 UNK         0.0847 
     89 H89        24.1627  -27.5652  -40.6967 H         1 UNK         0.0847 
     90 H90        24.4352  -29.5506  -41.9721 H         1 UNK         0.3040 
     91 H91        26.3921  -29.2947  -44.1674 H         1 UNK         0.1015 
     92 H92        24.6981  -31.8315  -43.7572 H         1 UNK         0.0786 
     93 H93        26.0817  -31.6821  -44.8474 H         1 UNK         0.0786 
     94 H94        24.6263  -30.7609  -45.1489 H         1 UNK         0.0786 
     95 H95        26.6793  -32.3210  -42.9401 H         1 UNK         0.3172 
     96 H96        28.7743  -31.6870  -41.0499 H         1 UNK         0.0595 
     97 H97        27.3783  -34.3435  -41.6948 H         1 UNK         0.0839 
     98 H98        28.8606  -34.1642  -40.7681 H         1 UNK         0.0839 
     99 H99        28.8420  -33.7320  -42.4687 H         1 UNK         0.0839 
    100 H100       25.3717  -31.9206  -40.7825 H         1 UNK         0.2998 
    101 H101       25.4515  -31.6338  -37.8514 H         1 UNK         0.0822 
    102 H102       24.6493  -33.9931  -38.3520 H         1 UNK         0.0787 
    103 H103       23.3652  -33.0066  -37.6792 H         1 UNK         0.0787 
    104 H104       23.4016  -33.3358  -39.4080 H         1 UNK         0.0787 
    105 H105       23.2183  -30.6656  -37.2317 H         1 UNK         0.3055 
    106 H106       22.8131  -28.2325  -38.6783 H         1 UNK         0.1106 
    107 H107       21.1736  -29.5142  -36.4230 H         1 UNK         0.0828 
    108 H108       21.0394  -27.8456  -36.9598 H         1 UNK         0.0828 
    109 H109       22.5282  -28.4024  -36.2177 H         1 UNK         0.0828 
    110 H110       21.3636  -31.3420  -39.0368 H         1 UNK         0.2931 
    111 H111       19.9312  -32.2452  -40.4117 H         1 UNK         0.0412 
    112 H112       18.7260  -30.0541  -38.2749 H         1 UNK         0.3472 
    113 H113       17.0327  -30.2103  -38.6886 H         1 UNK         0.3472 
    114 H114       19.9600  -29.6615  -42.0498 H         1 UNK         0.0970 
    115 H115       19.3428  -31.2005  -42.5744 H         1 UNK         0.0970 
    116 H116       20.8092  -32.7696  -44.0911 H         1 UNK         0.0612 
    117 H117       22.3349  -32.1420  -44.6585 H         1 UNK         0.0612 
@<TRIPOS>BOND
     1    1    2 1    
     2    1   62 1    
     3    1   63 1    
     4    1   64 1    
     5    2    3 2    
     6    2    4 am   BACKBONE|DICT|INTERRES
     7    4    5 1    
     8    4   65 1    
     9    5    6 1    
    10    5   25 1    
    11    5   66 1    
    12    6    7 1    
    13    6   67 1    
    14    6   68 1    
    15    7    8 1    
    16    8    9 1    
    17    8   69 1    
    18    8   70 1    
    19    9   10 ar   
    20    9   14 ar   
    21   10   11 ar   
    22   10   71 1    
    23   11   12 ar   
    24   11   61 1    
    25   12   13 ar   
    26   12   72 1    
    27   13   14 ar   
    28   13   15 1    
    29   14   73 1    
    30   15   16 1    
    31   15   74 1    
    32   15   75 1    
    33   16   17 1    
    34   17   18 1    
    35   17   76 1    
    36   17   77 1    
    37   18   19 1    
    38   18   27 1    
    39   18   78 1    
    40   19   20 am   BACKBONE|DICT|INTERRES
    41   19   79 1    
    42   20   21 2    
    43   20   22 1    
    44   22   23 1    
    45   22   24 1    
    46   22   80 1    
    47   23   81 1    
    48   23   82 1    
    49   23   83 1    
    50   24   25 am   BACKBONE|DICT|INTERRES
    51   24   84 1    
    52   25   26 2    
    53   27   28 2    
    54   27   29 am   BACKBONE|DICT|INTERRES
    55   29   30 1    
    56   29   85 1    
    57   30   31 1    
    58   30   32 1    
    59   30   86 1    
    60   31   87 1    
    61   31   88 1    
    62   31   89 1    
    63   32   33 2    
    64   32   34 am   BACKBONE|DICT|INTERRES
    65   34   35 1    
    66   34   90 1    
    67   35   36 1    
    68   35   37 1    
    69   35   91 1    
    70   36   92 1    
    71   36   93 1    
    72   36   94 1    
    73   37   38 2    
    74   37   39 am   BACKBONE|DICT|INTERRES
    75   39   40 1    
    76   39   95 1    
    77   40   41 1    
    78   40   42 1    
    79   40   96 1    
    80   41   97 1    
    81   41   98 1    
    82   41   99 1    
    83   42   43 2    
    84   42   44 am   BACKBONE|DICT|INTERRES
    85   44   45 1    
    86   44  100 1    
    87   45   46 1    
    88   45   47 1    
    89   45  101 1    
    90   46  102 1    
    91   46  103 1    
    92   46  104 1    
    93   47   48 2    
    94   47   49 am   BACKBONE|DICT|INTERRES
    95   49   50 1    
    96   49  105 1    
    97   50   51 1    
    98   50   52 1    
    99   50  106 1    
   100   51  107 1    
   101   51  108 1    
   102   51  109 1    
   103   52   53 2    
   104   52   54 am   BACKBONE|DICT|INTERRES
   105   54   55 1    
   106   54  110 1    
   107   55   56 1    
   108   55   59 1    
   109   55  111 1    
   110   56   57 am   BACKBONE|DICT|INTERRES
   111   56   58 2    
   112   57  112 1    
   113   57  113 1    
   114   59   60 1    
   115   59  114 1    
   116   59  115 1    
   117   60   61 1    
   118   61  116 1    
   119   61  117 1    
@<TRIPOS>SUBSTRUCTURE
     1 UNK         1 GROUP             0       ****    0 ROOT    
