@<TRIPOS>MOLECULE
3R8
117   119    1
SMALL
USER_CHARGES


@<TRIPOS>ATOM
      1 CA         14.1186  -22.4995  -47.7457 C.3       0 UNK        -0.2013 
      2 C          15.3836  -23.0076  -47.0700 C.2       0 UNK         0.4866 
      3 O          16.4112  -22.3298  -47.1054 O.2       0 UNK        -0.5176 
      4 N          15.3208  -24.1989  -46.4614 N.am      1 UNK        -0.4884 
      5 CA         16.4189  -24.8070  -45.7048 C.3       1 UNK         0.0853 
      6 C6         16.1712  -26.3217  -45.4966 C.3       10 UNK        -0.0849 
      7 S7         17.6226  -27.2052  -44.8265 S.3       10 UNK        -0.2776 
      8 C8         16.8001  -28.4450  -43.7787 C.3       10 UNK         0.0316 
      9 C9         17.8213  -29.2357  -42.9791 C.ar      10 UNK        -0.0863 
     10 C10        18.4162  -30.3786  -43.5246 C.ar      10 UNK        -0.1009 
     11 C11        19.3766  -31.0909  -42.7994 C.ar      10 UNK        -0.0712 
     12 C12        19.7443  -30.6445  -41.5282 C.ar      10 UNK        -0.0894 
     13 C13        19.1528  -29.5086  -40.9701 C.ar      10 UNK        -0.0745 
     14 C14        18.1798  -28.8155  -41.6948 C.ar      10 UNK        -0.0972 
     15 C15        19.5770  -29.0293  -39.5908 C.3       10 UNK         0.0209 
     16 S16        21.0814  -28.0086  -39.6808 S.3       10 UNK        -0.2568 
     17 C17        20.4326  -26.4063  -40.2747 C.3       10 UNK        -0.0983 
     18 CA         20.5093  -26.2390  -41.8190 C.3       3 UNK         0.0876 
     19 N          19.5116  -25.2951  -42.3401 N.am      3 UNK        -0.4424 
     20 C          19.4624  -23.9765  -42.0934 C.2       2 UNK         0.4918 
     21 O          20.2696  -23.3858  -41.3752 O.2       2 UNK        -0.4875 
     22 CA         18.3262  -23.1845  -42.7683 C.3       2 UNK         0.0481 
     23 CB         18.7176  -21.7230  -43.0580 C.3       2 UNK        -0.1831 
     24 N          17.8956  -23.8261  -44.0135 N.am      2 UNK        -0.4498 
     25 C          16.6264  -24.0654  -44.3660 C.2       1 UNK         0.5027 
     26 O          15.6470  -23.7574  -43.6816 O.2       1 UNK        -0.4969 
     27 C          21.9283  -25.9579  -42.3633 C.2       3 UNK         0.5005 
     28 O          22.9178  -26.0848  -41.6397 O.2       3 UNK        -0.5279 
     29 N          22.0129  -25.6353  -43.6641 N.am      4 UNK        -0.4463 
     30 CA         23.2698  -25.4603  -44.4061 C.3       4 UNK         0.0283 
     31 CB         22.9574  -24.9382  -45.8176 C.3       4 UNK        -0.1875 
     32 C          24.1213  -26.7442  -44.4799 C.2       4 UNK         0.4949 
     33 O          25.3381  -26.6602  -44.6425 O.2       4 UNK        -0.5039 
     34 N          23.4659  -27.9029  -44.3248 N.am      5 UNK        -0.4663 
     35 CA         24.0802  -29.2235  -44.1917 C.3       5 UNK         0.0242 
     36 CB         22.9943  -30.2861  -44.4233 C.3       5 UNK        -0.1982 
     37 C          24.7716  -29.4595  -42.8342 C.2       5 UNK         0.5017 
     38 O          25.5010  -30.4427  -42.7181 O.2       5 UNK        -0.5012 
     39 N          24.5244  -28.5951  -41.8347 N.am      6 UNK        -0.4439 
     40 CA         25.0973  -28.6228  -40.4816 C.3       6 UNK         0.0297 
     41 CB         26.5960  -28.2560  -40.5255 C.3       6 UNK        -0.2006 
     42 C          24.8226  -29.9382  -39.7230 C.2       6 UNK         0.4892 
     43 O          25.7291  -30.4918  -39.0981 O.2       6 UNK        -0.5089 
     44 N          23.5682  -30.4085  -39.8036 N.am      7 UNK        -0.4243 
     45 CA         23.0272  -31.6153  -39.1608 C.3       7 UNK         0.0196 
     46 CB         23.0432  -31.4713  -37.6236 C.3       7 UNK        -0.2007 
     47 C          23.6612  -32.9372  -39.6448 C.2       7 UNK         0.5020 
     48 O          23.6451  -33.9224  -38.9059 O.2       7 UNK        -0.5147 
     49 N          24.1991  -32.9533  -40.8736 N.am      8 UNK        -0.4734 
     50 CA         24.8471  -34.1266  -41.4712 C.3       8 UNK         0.0238 
     51 CB         25.7120  -33.6814  -42.6611 C.3       8 UNK        -0.1912 
     52 C          23.8727  -35.2355  -41.9088 C.2       8 UNK         0.5038 
     53 O          24.2872  -36.3941  -41.9740 O.2       8 UNK        -0.5046 
     54 N          22.6216  -34.8744  -42.2261 N.am      9 UNK        -0.4200 
     55 CA         21.5672  -35.8169  -42.6308 C.3       9 UNK         0.0839 
     56 C          21.0342  -36.6883  -41.4579 C.2       9 UNK         0.5513 
     57 N          20.4562  -37.8430  -41.7617 N.am      9 UNK        -0.7519 
     58 O          21.1137  -36.3239  -40.2866 O.2       9 UNK        -0.4960 
     59 C59        20.4302  -35.1189  -43.4257 C.3       10 UNK        -0.0876 
     60 S60        19.5190  -33.8348  -42.4989 S.3       10 UNK        -0.2414 
     61 C61        20.0320  -32.3330  -43.3852 C.3       10 UNK         0.0169 
     62 H62        13.2921  -23.2030  -47.6472 H         1 UNK         0.0903 
     63 H63        13.8119  -21.5522  -47.3029 H         1 UNK         0.0903 
     64 H64        14.3000  -22.3364  -48.8077 H         1 UNK         0.0903 
     65 H65        14.4412  -24.6954  -46.4362 H         1 UNK         0.3096 
     66 H66        17.3243  -24.6952  -46.3065 H         1 UNK         0.1121 
     67 H67        15.3050  -26.4788  -44.8505 H         1 UNK         0.0849 
     68 H68        15.9216  -26.7901  -46.4502 H         1 UNK         0.0849 
     69 H69        16.0989  -27.9521  -43.1033 H         1 UNK         0.0865 
     70 H70        16.2081  -29.1161  -44.4033 H         1 UNK         0.0865 
     71 H71        18.1363  -30.7069  -44.5164 H         1 UNK         0.1346 
     72 H72        20.4889  -31.1920  -40.9731 H         1 UNK         0.1412 
     73 H73        17.7219  -27.9327  -41.2694 H         1 UNK         0.1426 
     74 H74        18.7735  -28.4729  -39.1059 H         1 UNK         0.0716 
     75 H75        19.7770  -29.8904  -38.9512 H         1 UNK         0.0716 
     76 H76        19.3986  -26.3160  -39.9393 H         1 UNK         0.0695 
     77 H77        20.9719  -25.6021  -39.7711 H         1 UNK         0.0695 
     78 H78        20.2415  -27.1959  -42.2657 H         1 UNK         0.0983 
     79 H79        18.7925  -25.6947  -42.9278 H         1 UNK         0.3095 
     80 H80        17.5043  -23.1777  -42.0498 H         1 UNK         0.0454 
     81 H81        19.5753  -21.6616  -43.7285 H         1 UNK         0.0851 
     82 H82        17.8937  -21.1766  -43.5173 H         1 UNK         0.0851 
     83 H83        18.9801  -21.1948  -42.1405 H         1 UNK         0.0851 
     84 H84        18.6335  -24.1022  -44.6466 H         1 UNK         0.2976 
     85 H85        21.1584  -25.5481  -44.1944 H         1 UNK         0.3116 
     86 H86        23.8623  -24.7059  -43.8840 H         1 UNK         0.0646 
     87 H87        23.8755  -24.7724  -46.3832 H         1 UNK         0.0847 
     88 H88        22.4267  -23.9866  -45.7821 H         1 UNK         0.0847 
     89 H89        22.3494  -25.6435  -46.3856 H         1 UNK         0.0847 
     90 H90        22.4621  -27.8642  -44.2298 H         1 UNK         0.3040 
     91 H91        24.8441  -29.3300  -44.9652 H         1 UNK         0.1015 
     92 H92        22.5599  -30.2003  -45.4195 H         1 UNK         0.0786 
     93 H93        22.1877  -30.1907  -43.6962 H         1 UNK         0.0786 
     94 H94        23.4016  -31.2945  -44.3361 H         1 UNK         0.0786 
     95 H95        23.9097  -27.8068  -42.0163 H         1 UNK         0.3172 
     96 H96        24.5844  -27.8391  -39.9217 H         1 UNK         0.0595 
     97 H97        27.0041  -28.1554  -39.5191 H         1 UNK         0.0839 
     98 H98        26.7565  -27.3062  -41.0356 H         1 UNK         0.0839 
     99 H99        27.1836  -29.0170  -41.0402 H         1 UNK         0.0839 
    100 H100       22.9037  -29.8563  -40.3290 H         1 UNK         0.2998 
    101 H101       21.9810  -31.6737  -39.4542 H         1 UNK         0.0822 
    102 H102       22.5688  -30.5417  -37.3084 H         1 UNK         0.0787 
    103 H103       22.4988  -32.2873  -37.1469 H         1 UNK         0.0787 
    104 H104       24.0581  -31.4831  -37.2254 H         1 UNK         0.0787 
    105 H105       24.2397  -32.0906  -41.4000 H         1 UNK         0.3055 
    106 H106       25.5094  -34.5648  -40.7207 H         1 UNK         0.1106 
    107 H107       26.2171  -34.5326  -43.1200 H         1 UNK         0.0828 
    108 H108       25.1166  -33.1981  -43.4366 H         1 UNK         0.0828 
    109 H109       26.4860  -32.9809  -42.3468 H         1 UNK         0.0828 
    110 H110       22.3431  -33.9149  -42.0947 H         1 UNK         0.2931 
    111 H111       22.0368  -36.5129  -43.3296 H         1 UNK         0.0412 
    112 H112       20.0938  -38.4196  -41.0180 H         1 UNK         0.3472 
    113 H113       20.3813  -38.1552  -42.7177 H         1 UNK         0.3472 
    114 H114       20.8440  -34.6844  -44.3370 H         1 UNK         0.0970 
    115 H115       19.7056  -35.8584  -43.7712 H         1 UNK         0.0970 
    116 H116       19.7848  -32.4352  -44.4431 H         1 UNK         0.0612 
    117 H117       21.1160  -32.2411  -43.3230 H         1 UNK         0.0612 
@<TRIPOS>BOND
     1    1    2 1    
     2    1   62 1    
     3    1   63 1    
     4    1   64 1    
     5    2    3 2    
     6    2    4 am   BACKBONE|DICT|INTERRES
     7    4    5 1    
     8    4   65 1    
     9    5    6 1    
    10    5   25 1    
    11    5   66 1    
    12    6    7 1    
    13    6   67 1    
    14    6   68 1    
    15    7    8 1    
    16    8    9 1    
    17    8   69 1    
    18    8   70 1    
    19    9   10 ar   
    20    9   14 ar   
    21   10   11 ar   
    22   10   71 1    
    23   11   12 ar   
    24   11   61 1    
    25   12   13 ar   
    26   12   72 1    
    27   13   14 ar   
    28   13   15 1    
    29   14   73 1    
    30   15   16 1    
    31   15   74 1    
    32   15   75 1    
    33   16   17 1    
    34   17   18 1    
    35   17   76 1    
    36   17   77 1    
    37   18   19 1    
    38   18   27 1    
    39   18   78 1    
    40   19   20 am   BACKBONE|DICT|INTERRES
    41   19   79 1    
    42   20   21 2    
    43   20   22 1    
    44   22   23 1    
    45   22   24 1    
    46   22   80 1    
    47   23   81 1    
    48   23   82 1    
    49   23   83 1    
    50   24   25 am   BACKBONE|DICT|INTERRES
    51   24   84 1    
    52   25   26 2    
    53   27   28 2    
    54   27   29 am   BACKBONE|DICT|INTERRES
    55   29   30 1    
    56   29   85 1    
    57   30   31 1    
    58   30   32 1    
    59   30   86 1    
    60   31   87 1    
    61   31   88 1    
    62   31   89 1    
    63   32   33 2    
    64   32   34 am   BACKBONE|DICT|INTERRES
    65   34   35 1    
    66   34   90 1    
    67   35   36 1    
    68   35   37 1    
    69   35   91 1    
    70   36   92 1    
    71   36   93 1    
    72   36   94 1    
    73   37   38 2    
    74   37   39 am   BACKBONE|DICT|INTERRES
    75   39   40 1    
    76   39   95 1    
    77   40   41 1    
    78   40   42 1    
    79   40   96 1    
    80   41   97 1    
    81   41   98 1    
    82   41   99 1    
    83   42   43 2    
    84   42   44 am   BACKBONE|DICT|INTERRES
    85   44   45 1    
    86   44  100 1    
    87   45   46 1    
    88   45   47 1    
    89   45  101 1    
    90   46  102 1    
    91   46  103 1    
    92   46  104 1    
    93   47   48 2    
    94   47   49 am   BACKBONE|DICT|INTERRES
    95   49   50 1    
    96   49  105 1    
    97   50   51 1    
    98   50   52 1    
    99   50  106 1    
   100   51  107 1    
   101   51  108 1    
   102   51  109 1    
   103   52   53 2    
   104   52   54 am   BACKBONE|DICT|INTERRES
   105   54   55 1    
   106   54  110 1    
   107   55   56 1    
   108   55   59 1    
   109   55  111 1    
   110   56   57 am   BACKBONE|DICT|INTERRES
   111   56   58 2    
   112   57  112 1    
   113   57  113 1    
   114   59   60 1    
   115   59  114 1    
   116   59  115 1    
   117   60   61 1    
   118   61  116 1    
   119   61  117 1    
@<TRIPOS>SUBSTRUCTURE
     1 UNK         1 GROUP             0       ****    0 ROOT    
