@<TRIPOS>MOLECULE
3R8
117   119    1
SMALL
USER_CHARGES


@<TRIPOS>ATOM
      1 CA         12.5744  -28.9358  -40.8802 C.3       0 UNK        -0.2013 
      2 C          13.6359  -28.2305  -41.7112 C.2       0 UNK         0.4866 
      3 O          14.1158  -27.1673  -41.3164 O.2       0 UNK        -0.5176 
      4 N          13.9998  -28.8086  -42.8627 N.am      1 UNK        -0.4884 
      5 CA         15.0648  -28.3149  -43.7408 C.3       1 UNK         0.0853 
      6 C6         14.9463  -28.9315  -45.1543 C.3       10 UNK        -0.0849 
      7 S7         15.7919  -27.9303  -46.4234 S.3       10 UNK        -0.2776 
      8 C8         16.7991  -29.1809  -47.2816 C.3       10 UNK         0.0316 
      9 C9         18.2214  -29.2636  -46.7427 C.ar      10 UNK        -0.0863 
     10 C10        18.6123  -30.3083  -45.8967 C.ar      10 UNK        -0.1009 
     11 C11        19.9522  -30.4449  -45.5140 C.ar      10 UNK        -0.0712 
     12 C12        20.8941  -29.5102  -45.9578 C.ar      10 UNK        -0.0894 
     13 C13        20.5128  -28.4559  -46.7919 C.ar      10 UNK        -0.0745 
     14 C14        19.1741  -28.3354  -47.1739 C.ar      10 UNK        -0.0972 
     15 C15        21.5522  -27.4972  -47.3573 C.3       10 UNK         0.0209 
     16 S16        21.5631  -25.8890  -46.5059 S.3       10 UNK        -0.2568 
     17 C17        22.6453  -26.2143  -45.0757 C.3       10 UNK        -0.0983 
     18 CA         21.9484  -25.8984  -43.7308 C.3       3 UNK         0.0876 
     19 N          20.9095  -26.8671  -43.4023 N.am      3 UNK        -0.4424 
     20 C          19.5942  -26.6449  -43.4183 C.2       2 UNK         0.4918 
     21 O          19.0554  -25.6205  -43.8455 O.2       2 UNK        -0.4875 
     22 CA         18.7467  -27.7435  -42.7766 C.3       2 UNK         0.0481 
     23 CB         18.8037  -27.6313  -41.2381 C.3       2 UNK        -0.1831 
     24 N          17.3704  -27.6465  -43.2450 N.am      2 UNK        -0.4498 
     25 C          16.4446  -28.6033  -43.1196 C.2       1 UNK         0.5027 
     26 O          16.6399  -29.6889  -42.5641 O.2       1 UNK        -0.4969 
     27 C          22.9552  -25.9568  -42.5722 C.2       3 UNK         0.5005 
     28 O          23.2034  -27.0443  -42.0449 O.2       3 UNK        -0.5279 
     29 N          23.5363  -24.8067  -42.2040 N.am      4 UNK        -0.4463 
     30 CA         24.4536  -24.6631  -41.0638 C.3       4 UNK         0.0283 
     31 CB         24.7657  -23.1732  -40.8478 C.3       4 UNK        -0.1875 
     32 C          25.7602  -25.4705  -41.1840 C.2       4 UNK         0.4949 
     33 O          26.3421  -25.8324  -40.1615 O.2       4 UNK        -0.5039 
     34 N          26.1933  -25.7380  -42.4223 N.am      5 UNK        -0.4663 
     35 CA         27.3775  -26.5400  -42.7359 C.3       5 UNK         0.0242 
     36 CB         27.9562  -26.0510  -44.0751 C.3       5 UNK        -0.1982 
     37 C          27.0955  -28.0540  -42.7945 C.2       5 UNK         0.5017 
     38 O          28.0509  -28.8266  -42.8862 O.2       5 UNK        -0.5012 
     39 N          25.8176  -28.4586  -42.7788 N.am      6 UNK        -0.4439 
     40 CA         25.3886  -29.8532  -42.8882 C.3       6 UNK         0.0297 
     41 CB         24.0939  -29.9047  -43.7127 C.3       6 UNK        -0.2006 
     42 C          25.1987  -30.4924  -41.5026 C.2       6 UNK         0.4892 
     43 O          25.1548  -29.7925  -40.4871 O.2       6 UNK        -0.5089 
     44 N          25.0930  -31.8273  -41.4885 N.am      7 UNK        -0.4243 
     45 CA         24.9798  -32.6673  -40.2930 C.3       7 UNK         0.0196 
     46 CB         25.4126  -34.1006  -40.6560 C.3       7 UNK        -0.2007 
     47 C          23.5760  -32.6201  -39.6569 C.2       7 UNK         0.5020 
     48 O          22.8704  -33.6306  -39.6437 O.2       7 UNK        -0.5147 
     49 N          23.1987  -31.4420  -39.1437 N.am      8 UNK        -0.4734 
     50 CA         21.9759  -31.0904  -38.4012 C.3       8 UNK         0.0238 
     51 CB         21.8477  -31.9138  -37.1044 C.3       8 UNK        -0.1912 
     52 C          20.6688  -31.1378  -39.2144 C.2       8 UNK         0.5038 
     53 O          19.8589  -30.2200  -39.0799 O.2       8 UNK        -0.5046 
     54 N          20.4950  -32.1744  -40.0425 N.am      9 UNK        -0.4200 
     55 CA         19.3630  -32.3893  -40.9575 C.3       9 UNK         0.0839 
     56 C          18.0162  -32.5707  -40.1939 C.2       9 UNK         0.5513 
     57 N          16.9258  -31.9316  -40.6029 N.am      9 UNK        -0.7519 
     58 O          17.9441  -33.3464  -39.2430 O.2       9 UNK        -0.4960 
     59 C59        19.3171  -31.3377  -42.0997 C.3       10 UNK        -0.0876 
     60 S60        20.8925  -31.1953  -43.0060 S.3       10 UNK        -0.2414 
     61 C61        20.4118  -31.6475  -44.6995 C.3       10 UNK         0.0169 
     62 H62        12.9749  -29.1905  -39.8994 H         1 UNK         0.0903 
     63 H63        11.7136  -28.2829  -40.7381 H         1 UNK         0.0903 
     64 H64        12.2285  -29.8544  -41.3539 H         1 UNK         0.0903 
     65 H65        13.6000  -29.7008  -43.1167 H         1 UNK         0.3096 
     66 H66        14.9392  -27.2323  -43.8219 H         1 UNK         0.1121 
     67 H67        15.3046  -29.9629  -45.1641 H         1 UNK         0.0849 
     68 H68        13.8972  -28.9812  -45.4512 H         1 UNK         0.0849 
     69 H69        16.3118  -30.1563  -47.2457 H         1 UNK         0.0865 
     70 H70        16.8383  -28.9173  -48.3397 H         1 UNK         0.0865 
     71 H71        17.8843  -31.0404  -45.5750 H         1 UNK         0.1346 
     72 H72        21.9320  -29.6271  -45.6805 H         1 UNK         0.1412 
     73 H73        18.8795  -27.5352  -47.8395 H         1 UNK         0.1426 
     74 H74        21.3360  -27.3238  -48.4125 H         1 UNK         0.0716 
     75 H75        22.5489  -27.9403  -47.3293 H         1 UNK         0.0716 
     76 H76        22.9927  -27.2487  -45.0943 H         1 UNK         0.0695 
     77 H77        23.5342  -25.5937  -45.2038 H         1 UNK         0.0695 
     78 H78        21.5254  -24.8916  -43.7655 H         1 UNK         0.0983 
     79 H79        21.2640  -27.7072  -42.9642 H         1 UNK         0.3095 
     80 H80        19.1508  -28.6982  -43.1110 H         1 UNK         0.0454 
     81 H81        19.8233  -27.7565  -40.8713 H         1 UNK         0.0851 
     82 H82        18.4500  -26.6582  -40.8956 H         1 UNK         0.0851 
     83 H83        18.1965  -28.3915  -40.7472 H         1 UNK         0.0851 
     84 H84        17.1634  -26.7962  -43.7549 H         1 UNK         0.2976 
     85 H85        23.2952  -23.9574  -42.6963 H         1 UNK         0.3116 
     86 H86        23.9318  -25.0313  -40.1778 H         1 UNK         0.0646 
     87 H87        25.4236  -23.0328  -39.9888 H         1 UNK         0.0847 
     88 H88        23.8592  -22.5997  -40.6535 H         1 UNK         0.0847 
     89 H89        25.2641  -22.7346  -41.7131 H         1 UNK         0.0847 
     90 H90        25.6561  -25.3900  -43.2030 H         1 UNK         0.3040 
     91 H91        28.1332  -26.3839  -41.9624 H         1 UNK         0.1015 
     92 H92        27.2525  -26.1942  -44.8962 H         1 UNK         0.0786 
     93 H93        28.8679  -26.5936  -44.3297 H         1 UNK         0.0786 
     94 H94        28.2143  -24.9926  -44.0332 H         1 UNK         0.0786 
     95 H95        25.0882  -27.7852  -42.5704 H         1 UNK         0.3172 
     96 H96        26.1479  -30.4282  -43.4227 H         1 UNK         0.0595 
     97 H97        23.7809  -30.9336  -43.8920 H         1 UNK         0.0839 
     98 H98        23.2730  -29.3968  -43.2070 H         1 UNK         0.0839 
     99 H99        24.2289  -29.4375  -44.6880 H         1 UNK         0.0839 
    100 H100       25.1011  -32.3164  -42.3720 H         1 UNK         0.2998 
    101 H101       25.6814  -32.2942  -39.5433 H         1 UNK         0.0822 
    102 H102       25.3713  -34.7541  -39.7834 H         1 UNK         0.0787 
    103 H103       24.7684  -34.5368  -41.4207 H         1 UNK         0.0787 
    104 H104       26.4377  -34.1245  -41.0265 H         1 UNK         0.0787 
    105 H105       23.8360  -30.6673  -39.3150 H         1 UNK         0.3055 
    106 H106       22.1094  -30.0473  -38.1085 H         1 UNK         0.1106 
    107 H107       21.7012  -32.9753  -37.3060 H         1 UNK         0.0828 
    108 H108       22.7342  -31.8099  -36.4789 H         1 UNK         0.0828 
    109 H109       20.9940  -31.5776  -36.5143 H         1 UNK         0.0828 
    110 H110       21.2211  -32.8855  -40.0475 H         1 UNK         0.2931 
    111 H111       19.5515  -33.3560  -41.4257 H         1 UNK         0.0412 
    112 H112       16.0628  -32.0824  -40.1056 H         1 UNK         0.3472 
    113 H113       16.9517  -31.2539  -41.3583 H         1 UNK         0.3472 
    114 H114       19.0813  -30.3662  -41.6742 H         1 UNK         0.0970 
    115 H115       18.5179  -31.5691  -42.8050 H         1 UNK         0.0970 
    116 H116       19.6493  -32.4275  -44.6783 H         1 UNK         0.0612 
    117 H117       21.2783  -32.0913  -45.1917 H         1 UNK         0.0612 
@<TRIPOS>BOND
     1    1    2 1    
     2    1   62 1    
     3    1   63 1    
     4    1   64 1    
     5    2    3 2    
     6    2    4 am   BACKBONE|DICT|INTERRES
     7    4    5 1    
     8    4   65 1    
     9    5    6 1    
    10    5   25 1    
    11    5   66 1    
    12    6    7 1    
    13    6   67 1    
    14    6   68 1    
    15    7    8 1    
    16    8    9 1    
    17    8   69 1    
    18    8   70 1    
    19    9   10 ar   
    20    9   14 ar   
    21   10   11 ar   
    22   10   71 1    
    23   11   12 ar   
    24   11   61 1    
    25   12   13 ar   
    26   12   72 1    
    27   13   14 ar   
    28   13   15 1    
    29   14   73 1    
    30   15   16 1    
    31   15   74 1    
    32   15   75 1    
    33   16   17 1    
    34   17   18 1    
    35   17   76 1    
    36   17   77 1    
    37   18   19 1    
    38   18   27 1    
    39   18   78 1    
    40   19   20 am   BACKBONE|DICT|INTERRES
    41   19   79 1    
    42   20   21 2    
    43   20   22 1    
    44   22   23 1    
    45   22   24 1    
    46   22   80 1    
    47   23   81 1    
    48   23   82 1    
    49   23   83 1    
    50   24   25 am   BACKBONE|DICT|INTERRES
    51   24   84 1    
    52   25   26 2    
    53   27   28 2    
    54   27   29 am   BACKBONE|DICT|INTERRES
    55   29   30 1    
    56   29   85 1    
    57   30   31 1    
    58   30   32 1    
    59   30   86 1    
    60   31   87 1    
    61   31   88 1    
    62   31   89 1    
    63   32   33 2    
    64   32   34 am   BACKBONE|DICT|INTERRES
    65   34   35 1    
    66   34   90 1    
    67   35   36 1    
    68   35   37 1    
    69   35   91 1    
    70   36   92 1    
    71   36   93 1    
    72   36   94 1    
    73   37   38 2    
    74   37   39 am   BACKBONE|DICT|INTERRES
    75   39   40 1    
    76   39   95 1    
    77   40   41 1    
    78   40   42 1    
    79   40   96 1    
    80   41   97 1    
    81   41   98 1    
    82   41   99 1    
    83   42   43 2    
    84   42   44 am   BACKBONE|DICT|INTERRES
    85   44   45 1    
    86   44  100 1    
    87   45   46 1    
    88   45   47 1    
    89   45  101 1    
    90   46  102 1    
    91   46  103 1    
    92   46  104 1    
    93   47   48 2    
    94   47   49 am   BACKBONE|DICT|INTERRES
    95   49   50 1    
    96   49  105 1    
    97   50   51 1    
    98   50   52 1    
    99   50  106 1    
   100   51  107 1    
   101   51  108 1    
   102   51  109 1    
   103   52   53 2    
   104   52   54 am   BACKBONE|DICT|INTERRES
   105   54   55 1    
   106   54  110 1    
   107   55   56 1    
   108   55   59 1    
   109   55  111 1    
   110   56   57 am   BACKBONE|DICT|INTERRES
   111   56   58 2    
   112   57  112 1    
   113   57  113 1    
   114   59   60 1    
   115   59  114 1    
   116   59  115 1    
   117   60   61 1    
   118   61  116 1    
   119   61  117 1    
@<TRIPOS>SUBSTRUCTURE
     1 UNK         1 GROUP             0       ****    0 ROOT    
