@<TRIPOS>MOLECULE
3R8
117   119    1
SMALL
USER_CHARGES


@<TRIPOS>ATOM
      1 CA         15.5780  -23.8323  -46.7968 C.3       0 UNK        -0.2013 
      2 C          15.3660  -24.9632  -45.8012 C.2       0 UNK         0.4866 
      3 O          14.5019  -24.8512  -44.9320 O.2       0 UNK        -0.5176 
      4 N          16.1483  -26.0439  -45.9317 N.am      1 UNK        -0.4884 
      5 CA         16.1443  -27.2465  -45.0872 C.3       1 UNK         0.0853 
      6 C6         14.8681  -28.1216  -45.2499 C.3       10 UNK        -0.0849 
      7 S7         14.9709  -29.1343  -46.7665 S.3       10 UNK        -0.2776 
      8 C8         15.5900  -30.7291  -46.1175 C.3       10 UNK         0.0316 
      9 C9         16.8581  -30.5613  -45.2878 C.ar      10 UNK        -0.0863 
     10 C10        16.8017  -30.6491  -43.8930 C.ar      10 UNK        -0.1009 
     11 C11        17.9400  -30.4139  -43.1174 C.ar      10 UNK        -0.0712 
     12 C12        19.1446  -30.0949  -43.7516 C.ar      10 UNK        -0.0894 
     13 C13        19.2248  -30.0347  -45.1459 C.ar      10 UNK        -0.0745 
     14 C14        18.0778  -30.2756  -45.9094 C.ar      10 UNK        -0.0972 
     15 C15        20.5472  -29.7210  -45.8317 C.3       10 UNK         0.0209 
     16 S16        20.9539  -27.9466  -45.7598 S.3       10 UNK        -0.2568 
     17 C17        22.0488  -27.8864  -44.2990 C.3       10 UNK        -0.0983 
     18 CA         21.9709  -26.5399  -43.5271 C.3       3 UNK         0.0876 
     19 N          20.5983  -26.1768  -43.1387 N.am      3 UNK        -0.4424 
     20 C          19.8395  -26.7814  -42.2089 C.2       2 UNK         0.4918 
     21 O          20.2234  -27.6950  -41.4797 O.2       2 UNK        -0.4875 
     22 CA         18.3843  -26.3125  -42.1209 C.3       2 UNK         0.0481 
     23 CB         18.2670  -24.8454  -41.6707 C.3       2 UNK        -0.1831 
     24 N          17.7544  -26.5075  -43.4239 N.am      2 UNK        -0.4498 
     25 C          16.4994  -26.9264  -43.6206 C.2       1 UNK         0.5027 
     26 O          15.6667  -27.0637  -42.7216 O.2       1 UNK        -0.4969 
     27 C          22.9484  -26.5029  -42.3296 C.2       3 UNK         0.5005 
     28 O          23.7849  -27.3981  -42.1913 O.2       3 UNK        -0.5279 
     29 N          22.8050  -25.4811  -41.4704 N.am      4 UNK        -0.4463 
     30 CA         23.4166  -25.3599  -40.1383 C.3       4 UNK         0.0283 
     31 CB         22.9497  -24.0448  -39.4932 C.3       4 UNK        -0.1875 
     32 C          24.9519  -25.4702  -40.0724 C.2       4 UNK         0.4949 
     33 O          25.4814  -25.7861  -39.0070 O.2       4 UNK        -0.5039 
     34 N          25.6387  -25.2326  -41.1979 N.am      5 UNK        -0.4663 
     35 CA         27.0802  -25.4468  -41.3550 C.3       5 UNK         0.0242 
     36 CB         27.5403  -24.8122  -42.6775 C.3       5 UNK        -0.1982 
     37 C          27.4921  -26.9321  -41.2991 C.2       5 UNK         0.5017 
     38 O          28.6415  -27.2160  -40.9595 O.2       5 UNK        -0.5012 
     39 N          26.5630  -27.8396  -41.6302 N.am      6 UNK        -0.4439 
     40 CA         26.7407  -29.2912  -41.5776 C.3       6 UNK         0.0297 
     41 CB         26.5024  -29.8881  -42.9756 C.3       6 UNK        -0.2006 
     42 C          25.7887  -29.9210  -40.5512 C.2       6 UNK         0.4892 
     43 O          26.2359  -30.7262  -39.7345 O.2       6 UNK        -0.5089 
     44 N          24.5004  -29.5470  -40.6198 N.am      7 UNK        -0.4243 
     45 CA         23.3814  -29.9909  -39.7765 C.3       7 UNK         0.0196 
     46 CB         23.5427  -29.4416  -38.3435 C.3       7 UNK        -0.2007 
     47 C          23.1254  -31.5144  -39.8038 C.2       7 UNK         0.5020 
     48 O          22.5897  -32.0594  -38.8375 O.2       7 UNK        -0.5147 
     49 N          23.5186  -32.1823  -40.8986 N.am      8 UNK        -0.4734 
     50 CA         23.3851  -33.6314  -41.0760 C.3       8 UNK         0.0238 
     51 CB         24.3384  -34.1041  -42.1864 C.3       8 UNK        -0.1912 
     52 C          21.9394  -34.0579  -41.3747 C.2       8 UNK         0.5038 
     53 O          21.4656  -35.0358  -40.7949 O.2       8 UNK        -0.5046 
     54 N          21.2763  -33.3077  -42.2659 N.am      9 UNK        -0.4200 
     55 CA         19.8674  -33.4712  -42.6711 C.3       9 UNK         0.0839 
     56 C          19.5346  -34.8199  -43.3796 C.2       9 UNK         0.5513 
     57 N          20.5068  -35.5105  -43.9636 N.am      9 UNK        -0.7519 
     58 O          18.3800  -35.2368  -43.4294 O.2       9 UNK        -0.4960 
     59 C59        18.8672  -33.1194  -41.5304 C.3       10 UNK        -0.0876 
     60 S60        19.1632  -31.4625  -40.8173 S.3       10 UNK        -0.2414 
     61 C61        17.8476  -30.4675  -41.5956 C.3       10 UNK         0.0169 
     62 H62        15.8508  -22.9170  -46.2721 H         1 UNK         0.0903 
     63 H63        16.3668  -24.0597  -47.5137 H         1 UNK         0.0903 
     64 H64        14.6595  -23.6454  -47.3526 H         1 UNK         0.0903 
     65 H65        16.8280  -26.0566  -46.6799 H         1 UNK         0.3096 
     66 H66        16.9905  -27.8351  -45.4393 H         1 UNK         0.1121 
     67 H67        13.9695  -27.5047  -45.2881 H         1 UNK         0.0849 
     68 H68        14.7223  -28.7935  -44.4028 H         1 UNK         0.0849 
     69 H69        15.7886  -31.4011  -46.9536 H         1 UNK         0.0865 
     70 H70        14.8039  -31.2035  -45.5278 H         1 UNK         0.0865 
     71 H71        15.8610  -30.8714  -43.4077 H         1 UNK         0.1346 
     72 H72        20.0208  -29.9051  -43.1495 H         1 UNK         0.1412 
     73 H73        18.1241  -30.2113  -46.9883 H         1 UNK         0.1426 
     74 H74        20.5040  -30.0192  -46.8803 H         1 UNK         0.0716 
     75 H75        21.3489  -30.3127  -45.3875 H         1 UNK         0.0716 
     76 H76        23.0665  -28.0624  -44.6528 H         1 UNK         0.0695 
     77 H77        21.8184  -28.7149  -43.6298 H         1 UNK         0.0695 
     78 H78        22.3130  -25.7573  -44.2064 H         1 UNK         0.0983 
     79 H79        20.1973  -25.4131  -43.6631 H         1 UNK         0.3095 
     80 H80        17.8884  -26.9397  -41.3769 H         1 UNK         0.0454 
     81 H81        18.6929  -24.1544  -42.3984 H         1 UNK         0.0851 
     82 H82        18.7825  -24.6856  -40.7229 H         1 UNK         0.0851 
     83 H83        17.2240  -24.5656  -41.5217 H         1 UNK         0.0851 
     84 H84        18.3714  -26.4668  -44.2233 H         1 UNK         0.2976 
     85 H85        22.1017  -24.7913  -41.6919 H         1 UNK         0.3116 
     86 H86        23.0226  -26.1849  -39.5415 H         1 UNK         0.0646 
     87 H87        21.8639  -24.0077  -39.4028 H         1 UNK         0.0847 
     88 H88        23.2707  -23.1767  -40.0703 H         1 UNK         0.0847 
     89 H89        23.3575  -23.9349  -38.4871 H         1 UNK         0.0847 
     90 H90        25.1201  -24.9726  -42.0242 H         1 UNK         0.3040 
     91 H91        27.5895  -24.9382  -40.5332 H         1 UNK         0.1015 
     92 H92        28.6168  -24.9284  -42.8120 H         1 UNK         0.0786 
     93 H93        27.3268  -23.7434  -42.7011 H         1 UNK         0.0786 
     94 H94        27.0531  -25.2730  -43.5378 H         1 UNK         0.0786 
     95 H95        25.6300  -27.5075  -41.8641 H         1 UNK         0.3172 
     96 H96        27.7597  -29.5417  -41.2750 H         1 UNK         0.0595 
     97 H97        25.5076  -29.6531  -43.3566 H         1 UNK         0.0839 
     98 H98        26.6009  -30.9745  -42.9597 H         1 UNK         0.0839 
     99 H99        27.2301  -29.5086  -43.6931 H         1 UNK         0.0839 
    100 H100       24.2445  -28.8505  -41.3194 H         1 UNK         0.2998 
    101 H101       22.4872  -29.5330  -40.2038 H         1 UNK         0.0822 
    102 H102       23.7085  -28.3642  -38.3483 H         1 UNK         0.0787 
    103 H103       22.6481  -29.6278  -37.7480 H         1 UNK         0.0787 
    104 H104       24.3822  -29.9071  -37.8263 H         1 UNK         0.0787 
    105 H105       23.9652  -31.6623  -41.6392 H         1 UNK         0.3055 
    106 H106       23.6841  -34.1192  -40.1449 H         1 UNK         0.1106 
    107 H107       24.2669  -35.1836  -42.3272 H         1 UNK         0.0828 
    108 H108       25.3761  -33.8809  -41.9373 H         1 UNK         0.0828 
    109 H109       24.1158  -33.6346  -43.1452 H         1 UNK         0.0828 
    110 H110       21.7607  -32.5278  -42.6824 H         1 UNK         0.2931 
    111 H111       19.7202  -32.7345  -43.4589 H         1 UNK         0.0412 
    112 H112       21.4570  -35.1773  -43.9395 H         1 UNK         0.3472 
    113 H113       20.2864  -36.3775  -44.4282 H         1 UNK         0.3472 
    114 H114       17.8385  -33.1661  -41.8921 H         1 UNK         0.0970 
    115 H115       18.9361  -33.8551  -40.7277 H         1 UNK         0.0970 
    116 H116       17.9077  -29.4499  -41.2088 H         1 UNK         0.0612 
    117 H117       16.8809  -30.8612  -41.2782 H         1 UNK         0.0612 
@<TRIPOS>BOND
     1    1    2 1    
     2    1   62 1    
     3    1   63 1    
     4    1   64 1    
     5    2    3 2    
     6    2    4 am   BACKBONE|DICT|INTERRES
     7    4    5 1    
     8    4   65 1    
     9    5    6 1    
    10    5   25 1    
    11    5   66 1    
    12    6    7 1    
    13    6   67 1    
    14    6   68 1    
    15    7    8 1    
    16    8    9 1    
    17    8   69 1    
    18    8   70 1    
    19    9   10 ar   
    20    9   14 ar   
    21   10   11 ar   
    22   10   71 1    
    23   11   12 ar   
    24   11   61 1    
    25   12   13 ar   
    26   12   72 1    
    27   13   14 ar   
    28   13   15 1    
    29   14   73 1    
    30   15   16 1    
    31   15   74 1    
    32   15   75 1    
    33   16   17 1    
    34   17   18 1    
    35   17   76 1    
    36   17   77 1    
    37   18   19 1    
    38   18   27 1    
    39   18   78 1    
    40   19   20 am   BACKBONE|DICT|INTERRES
    41   19   79 1    
    42   20   21 2    
    43   20   22 1    
    44   22   23 1    
    45   22   24 1    
    46   22   80 1    
    47   23   81 1    
    48   23   82 1    
    49   23   83 1    
    50   24   25 am   BACKBONE|DICT|INTERRES
    51   24   84 1    
    52   25   26 2    
    53   27   28 2    
    54   27   29 am   BACKBONE|DICT|INTERRES
    55   29   30 1    
    56   29   85 1    
    57   30   31 1    
    58   30   32 1    
    59   30   86 1    
    60   31   87 1    
    61   31   88 1    
    62   31   89 1    
    63   32   33 2    
    64   32   34 am   BACKBONE|DICT|INTERRES
    65   34   35 1    
    66   34   90 1    
    67   35   36 1    
    68   35   37 1    
    69   35   91 1    
    70   36   92 1    
    71   36   93 1    
    72   36   94 1    
    73   37   38 2    
    74   37   39 am   BACKBONE|DICT|INTERRES
    75   39   40 1    
    76   39   95 1    
    77   40   41 1    
    78   40   42 1    
    79   40   96 1    
    80   41   97 1    
    81   41   98 1    
    82   41   99 1    
    83   42   43 2    
    84   42   44 am   BACKBONE|DICT|INTERRES
    85   44   45 1    
    86   44  100 1    
    87   45   46 1    
    88   45   47 1    
    89   45  101 1    
    90   46  102 1    
    91   46  103 1    
    92   46  104 1    
    93   47   48 2    
    94   47   49 am   BACKBONE|DICT|INTERRES
    95   49   50 1    
    96   49  105 1    
    97   50   51 1    
    98   50   52 1    
    99   50  106 1    
   100   51  107 1    
   101   51  108 1    
   102   51  109 1    
   103   52   53 2    
   104   52   54 am   BACKBONE|DICT|INTERRES
   105   54   55 1    
   106   54  110 1    
   107   55   56 1    
   108   55   59 1    
   109   55  111 1    
   110   56   57 am   BACKBONE|DICT|INTERRES
   111   56   58 2    
   112   57  112 1    
   113   57  113 1    
   114   59   60 1    
   115   59  114 1    
   116   59  115 1    
   117   60   61 1    
   118   61  116 1    
   119   61  117 1    
@<TRIPOS>SUBSTRUCTURE
     1 UNK         1 GROUP             0       ****    0 ROOT    
