@<TRIPOS>MOLECULE
3R8
117   119    1
SMALL
USER_CHARGES


@<TRIPOS>ATOM
      1 CA         18.5569  -22.0344  -45.6560 C.3       0 UNK        -0.2013 
      2 C          18.9270  -23.4613  -46.0336 C.2       0 UNK         0.4866 
      3 O          19.8463  -23.6645  -46.8277 O.2       0 UNK        -0.5176 
      4 N          18.2144  -24.4474  -45.4737 N.am      1 UNK        -0.4884 
      5 CA         18.4910  -25.8798  -45.6375 C.3       1 UNK         0.0853 
      6 C6         17.1908  -26.7170  -45.5099 C.3       10 UNK        -0.0849 
      7 S7         17.2464  -28.2238  -46.5360 S.3       10 UNK        -0.2776 
      8 C8         15.9382  -29.2247  -45.7684 C.3       10 UNK         0.0316 
      9 C9         16.4435  -30.0013  -44.5608 C.ar      10 UNK        -0.0863 
     10 C10        17.1318  -31.2047  -44.7490 C.ar      10 UNK        -0.1009 
     11 C11        17.5239  -31.9781  -43.6526 C.ar      10 UNK        -0.0712 
     12 C12        17.2279  -31.5336  -42.3614 C.ar      10 UNK        -0.0894 
     13 C13        16.5574  -30.3239  -42.1577 C.ar      10 UNK        -0.0745 
     14 C14        16.1710  -29.5573  -43.2619 C.ar      10 UNK        -0.0972 
     15 C15        16.1912  -29.8960  -40.7439 C.3       10 UNK         0.0209 
     16 S16        17.6590  -29.5532  -39.7230 S.3       10 UNK        -0.2568 
     17 C17        17.8951  -27.7604  -39.9494 C.3       10 UNK        -0.0983 
     18 CA         19.3482  -27.4221  -40.3644 C.3       3 UNK         0.0876 
     19 N          19.6143  -27.8253  -41.7488 N.am      3 UNK        -0.4424 
     20 C          20.8278  -27.9455  -42.3015 C.2       2 UNK         0.4918 
     21 O          21.8790  -27.7149  -41.7070 O.2       2 UNK        -0.4875 
     22 CA         20.8680  -28.3240  -43.7943 C.3       2 UNK         0.0481 
     23 CB         20.7391  -29.8450  -43.9642 C.3       2 UNK        -0.1831 
     24 N          19.8444  -27.6636  -44.6156 N.am      2 UNK        -0.4498 
     25 C          19.5979  -26.3464  -44.6636 C.2       1 UNK         0.5027 
     26 O          20.1891  -25.5270  -43.9580 O.2       1 UNK        -0.4969 
     27 C          19.6789  -25.9421  -40.0543 C.2       3 UNK         0.5005 
     28 O          19.6953  -25.5825  -38.8755 O.2       3 UNK        -0.5279 
     29 N          19.9439  -25.1024  -41.0695 N.am      4 UNK        -0.4463 
     30 CA         20.3740  -23.7098  -40.8826 C.3       4 UNK         0.0283 
     31 CB         20.0851  -22.8994  -42.1579 C.3       4 UNK        -0.1875 
     32 C          21.8590  -23.5837  -40.4864 C.2       4 UNK         0.4949 
     33 O          22.2800  -22.4961  -40.0904 O.2       4 UNK        -0.5039 
     34 N          22.6244  -24.6758  -40.5974 N.am      5 UNK        -0.4663 
     35 CA         24.0279  -24.7788  -40.2073 C.3       5 UNK         0.0242 
     36 CB         24.9195  -24.4990  -41.4357 C.3       5 UNK        -0.1982 
     37 C          24.2591  -26.1605  -39.5717 C.2       5 UNK         0.5017 
     38 O          23.3343  -26.7194  -38.9765 O.2       5 UNK        -0.5012 
     39 N          25.4805  -26.6948  -39.6993 N.am      6 UNK        -0.4439 
     40 CA         25.8119  -28.0758  -39.3515 C.3       6 UNK         0.0297 
     41 CB         27.3349  -28.2134  -39.1831 C.3       6 UNK        -0.2006 
     42 C          25.2803  -29.0051  -40.4537 C.2       6 UNK         0.4892 
     43 O          25.7902  -28.9608  -41.5760 O.2       6 UNK        -0.5089 
     44 N          24.2452  -29.7878  -40.1279 N.am      7 UNK        -0.4243 
     45 CA         23.5698  -30.6875  -41.0623 C.3       7 UNK         0.0196 
     46 CB         22.2332  -31.1434  -40.4527 C.3       7 UNK        -0.2007 
     47 C          24.4408  -31.8977  -41.4351 C.2       7 UNK         0.5020 
     48 O          25.1666  -32.4200  -40.5860 O.2       7 UNK        -0.5147 
     49 N          24.3167  -32.3403  -42.6897 N.am      8 UNK        -0.4734 
     50 CA         25.0062  -33.5040  -43.2509 C.3       8 UNK         0.0238 
     51 CB         26.2707  -33.0444  -44.0031 C.3       8 UNK        -0.1912 
     52 C          24.0314  -34.3027  -44.1312 C.2       8 UNK         0.5038 
     53 O          24.3793  -34.6950  -45.2464 O.2       8 UNK        -0.5046 
     54 N          22.8078  -34.4846  -43.6198 N.am      9 UNK        -0.4200 
     55 CA         21.6949  -35.1954  -44.2644 C.3       9 UNK         0.0839 
     56 C          22.0077  -36.6935  -44.5302 C.2       9 UNK         0.5513 
     57 N          21.5302  -37.2390  -45.6403 N.am      9 UNK        -0.7519 
     58 O          22.6356  -37.3715  -43.7192 O.2       9 UNK        -0.4960 
     59 C59        20.3946  -35.0544  -43.4322 C.3       10 UNK        -0.0876 
     60 S60        19.9088  -33.3122  -43.1780 S.3       10 UNK        -0.2414 
     61 C61        18.2213  -33.3156  -43.8570 C.3       10 UNK         0.0169 
     62 H62        19.4058  -21.5410  -45.1833 H         1 UNK         0.0903 
     63 H63        18.2856  -21.4683  -46.5467 H         1 UNK         0.0903 
     64 H64        17.7166  -21.9997  -44.9629 H         1 UNK         0.0903 
     65 H65        17.4915  -24.2148  -44.8078 H         1 UNK         0.3096 
     66 H66        18.8916  -26.0208  -46.6444 H         1 UNK         0.1121 
     67 H67        16.3340  -26.1392  -45.8614 H         1 UNK         0.0849 
     68 H68        16.9725  -26.9654  -44.4695 H         1 UNK         0.0849 
     69 H69        15.0932  -28.5889  -45.4986 H         1 UNK         0.0865 
     70 H70        15.5563  -29.9266  -46.5115 H         1 UNK         0.0865 
     71 H71        17.3384  -31.5504  -45.7529 H         1 UNK         0.1346 
     72 H72        17.5150  -32.1365  -41.5104 H         1 UNK         0.1412 
     73 H73        15.6246  -28.6360  -43.1115 H         1 UNK         0.1426 
     74 H74        15.6293  -30.7045  -40.2742 H         1 UNK         0.0716 
     75 H75        15.5242  -29.0326  -40.7477 H         1 UNK         0.0716 
     76 H76        17.6363  -27.2958  -38.9958 H         1 UNK         0.0695 
     77 H77        17.1858  -27.3660  -40.6791 H         1 UNK         0.0695 
     78 H78        20.0236  -27.9996  -39.7283 H         1 UNK         0.0983 
     79 H79        18.8070  -28.0465  -42.3122 H         1 UNK         0.3095 
     80 H80        21.8404  -28.0175  -44.1844 H         1 UNK         0.0454 
     81 H81        20.8482  -30.1439  -45.0067 H         1 UNK         0.0851 
     82 H82        19.7718  -30.2046  -43.6131 H         1 UNK         0.0851 
     83 H83        21.5031  -30.3744  -43.3968 H         1 UNK         0.0851 
     84 H84        19.2872  -28.2640  -45.2106 H         1 UNK         0.2976 
     85 H85        19.9484  -25.4482  -42.0256 H         1 UNK         0.3116 
     86 H86        19.7838  -23.2725  -40.0744 H         1 UNK         0.0646 
     87 H87        20.7339  -23.1959  -42.9824 H         1 UNK         0.0847 
     88 H88        20.2532  -21.8355  -41.9864 H         1 UNK         0.0847 
     89 H89        19.0511  -23.0158  -42.4822 H         1 UNK         0.0847 
     90 H90        22.1905  -25.5513  -40.8687 H         1 UNK         0.3040 
     91 H91        24.2483  -24.0403  -39.4332 H         1 UNK         0.1015 
     92 H92        24.8117  -25.2743  -42.1959 H         1 UNK         0.0786 
     93 H93        25.9735  -24.4394  -41.1630 H         1 UNK         0.0786 
     94 H94        24.6624  -23.5458  -41.8984 H         1 UNK         0.0786 
     95 H95        26.1725  -26.1872  -40.2312 H         1 UNK         0.3172 
     96 H96        25.3422  -28.3322  -38.3992 H         1 UNK         0.0595 
     97 H97        27.6050  -29.2390  -38.9279 H         1 UNK         0.0839 
     98 H98        27.7050  -27.5724  -38.3828 H         1 UNK         0.0839 
     99 H99        27.8722  -27.9539  -40.0963 H         1 UNK         0.0839 
    100 H100       23.8856  -29.7560  -39.1852 H         1 UNK         0.2998 
    101 H101       23.3607  -30.1163  -41.9688 H         1 UNK         0.0822 
    102 H102       21.5883  -30.2930  -40.2290 H         1 UNK         0.0787 
    103 H103       21.6862  -31.7875  -41.1418 H         1 UNK         0.0787 
    104 H104       22.3815  -31.7054  -39.5297 H         1 UNK         0.0787 
    105 H105       23.6795  -31.8679  -43.3169 H         1 UNK         0.3055 
    106 H106       25.3127  -34.1795  -42.4486 H         1 UNK         0.1106 
    107 H107       26.8214  -33.8969  -44.4029 H         1 UNK         0.0828 
    108 H108       26.0253  -32.3900  -44.8403 H         1 UNK         0.0828 
    109 H109       26.9489  -32.5036  -43.3429 H         1 UNK         0.0828 
    110 H110       22.6183  -34.1256  -42.6964 H         1 UNK         0.2931 
    111 H111       21.5314  -34.7113  -45.2296 H         1 UNK         0.0412 
    112 H112       21.0063  -36.6925  -46.3067 H         1 UNK         0.3472 
    113 H113       21.7079  -38.2147  -45.8234 H         1 UNK         0.3472 
    114 H114       20.5137  -35.5215  -42.4526 H         1 UNK         0.0970 
    115 H115       19.5768  -35.5885  -43.9199 H         1 UNK         0.0970 
    116 H116       18.2657  -33.5731  -44.9164 H         1 UNK         0.0612 
    117 H117       17.6371  -34.0966  -43.3682 H         1 UNK         0.0612 
@<TRIPOS>BOND
     1    1    2 1    
     2    1   62 1    
     3    1   63 1    
     4    1   64 1    
     5    2    3 2    
     6    2    4 am   BACKBONE|DICT|INTERRES
     7    4    5 1    
     8    4   65 1    
     9    5    6 1    
    10    5   25 1    
    11    5   66 1    
    12    6    7 1    
    13    6   67 1    
    14    6   68 1    
    15    7    8 1    
    16    8    9 1    
    17    8   69 1    
    18    8   70 1    
    19    9   10 ar   
    20    9   14 ar   
    21   10   11 ar   
    22   10   71 1    
    23   11   12 ar   
    24   11   61 1    
    25   12   13 ar   
    26   12   72 1    
    27   13   14 ar   
    28   13   15 1    
    29   14   73 1    
    30   15   16 1    
    31   15   74 1    
    32   15   75 1    
    33   16   17 1    
    34   17   18 1    
    35   17   76 1    
    36   17   77 1    
    37   18   19 1    
    38   18   27 1    
    39   18   78 1    
    40   19   20 am   BACKBONE|DICT|INTERRES
    41   19   79 1    
    42   20   21 2    
    43   20   22 1    
    44   22   23 1    
    45   22   24 1    
    46   22   80 1    
    47   23   81 1    
    48   23   82 1    
    49   23   83 1    
    50   24   25 am   BACKBONE|DICT|INTERRES
    51   24   84 1    
    52   25   26 2    
    53   27   28 2    
    54   27   29 am   BACKBONE|DICT|INTERRES
    55   29   30 1    
    56   29   85 1    
    57   30   31 1    
    58   30   32 1    
    59   30   86 1    
    60   31   87 1    
    61   31   88 1    
    62   31   89 1    
    63   32   33 2    
    64   32   34 am   BACKBONE|DICT|INTERRES
    65   34   35 1    
    66   34   90 1    
    67   35   36 1    
    68   35   37 1    
    69   35   91 1    
    70   36   92 1    
    71   36   93 1    
    72   36   94 1    
    73   37   38 2    
    74   37   39 am   BACKBONE|DICT|INTERRES
    75   39   40 1    
    76   39   95 1    
    77   40   41 1    
    78   40   42 1    
    79   40   96 1    
    80   41   97 1    
    81   41   98 1    
    82   41   99 1    
    83   42   43 2    
    84   42   44 am   BACKBONE|DICT|INTERRES
    85   44   45 1    
    86   44  100 1    
    87   45   46 1    
    88   45   47 1    
    89   45  101 1    
    90   46  102 1    
    91   46  103 1    
    92   46  104 1    
    93   47   48 2    
    94   47   49 am   BACKBONE|DICT|INTERRES
    95   49   50 1    
    96   49  105 1    
    97   50   51 1    
    98   50   52 1    
    99   50  106 1    
   100   51  107 1    
   101   51  108 1    
   102   51  109 1    
   103   52   53 2    
   104   52   54 am   BACKBONE|DICT|INTERRES
   105   54   55 1    
   106   54  110 1    
   107   55   56 1    
   108   55   59 1    
   109   55  111 1    
   110   56   57 am   BACKBONE|DICT|INTERRES
   111   56   58 2    
   112   57  112 1    
   113   57  113 1    
   114   59   60 1    
   115   59  114 1    
   116   59  115 1    
   117   60   61 1    
   118   61  116 1    
   119   61  117 1    
@<TRIPOS>SUBSTRUCTURE
     1 UNK         1 GROUP             0       ****    0 ROOT    
