@<TRIPOS>MOLECULE
3R8
117   119    1
SMALL
USER_CHARGES


@<TRIPOS>ATOM
      1 CA         15.9467  -22.0589  -41.8044 C.3       0 UNK        -0.2013 
      2 C          16.3510  -22.7183  -43.1144 C.2       0 UNK         0.4866 
      3 O          16.7048  -22.0231  -44.0673 O.2       0 UNK        -0.5176 
      4 N          16.2926  -24.0539  -43.1731 N.am      1 UNK        -0.4884 
      5 CA         16.7124  -24.8710  -44.3140 C.3       1 UNK         0.0853 
      6 C6         16.1353  -26.3120  -44.2540 C.3       10 UNK        -0.0849 
      7 S7         16.1698  -27.0998  -42.6005 S.3       10 UNK        -0.2776 
      8 C8         15.5745  -28.7813  -42.9754 C.3       10 UNK         0.0316 
      9 C9         16.6828  -29.6358  -43.5695 C.ar      10 UNK        -0.0863 
     10 C10        17.5373  -30.3629  -42.7366 C.ar      10 UNK        -0.1009 
     11 C11        18.5990  -31.0953  -43.2757 C.ar      10 UNK        -0.0712 
     12 C12        18.8036  -31.1004  -44.6593 C.ar      10 UNK        -0.0894 
     13 C13        17.9421  -30.3907  -45.5009 C.ar      10 UNK        -0.0745 
     14 C14        16.8724  -29.6799  -44.9516 C.ar      10 UNK        -0.0972 
     15 C15        18.1541  -30.3728  -47.0048 C.3       10 UNK         0.0209 
     16 S16        18.6312  -28.7123  -47.5818 S.3       10 UNK        -0.2568 
     17 C17        20.4539  -28.7528  -47.4645 C.3       10 UNK        -0.0983 
     18 CA         21.0852  -27.8157  -46.3973 C.3       3 UNK         0.0876 
     19 N          20.4286  -26.5070  -46.3223 N.am      3 UNK        -0.4424 
     20 C          21.0237  -25.3688  -45.9443 C.2       2 UNK         0.4918 
     21 O          22.2108  -25.2898  -45.6286 O.2       2 UNK        -0.4875 
     22 CA         20.1491  -24.1037  -45.9008 C.3       2 UNK         0.0481 
     23 CB         20.2766  -23.3241  -47.2191 C.3       2 UNK        -0.1831 
     24 N          18.7295  -24.3501  -45.6188 N.am      2 UNK        -0.4498 
     25 C          18.2490  -24.8444  -44.4678 C.2       1 UNK         0.5027 
     26 O          18.9657  -25.2520  -43.5520 O.2       1 UNK        -0.4969 
     27 C          21.2949  -28.4922  -45.0236 C.2       3 UNK         0.5005 
     28 O          21.9829  -29.5136  -44.9694 O.2       3 UNK        -0.5279 
     29 N          20.7953  -27.9018  -43.9254 N.am      4 UNK        -0.4463 
     30 CA         21.0682  -28.3257  -42.5460 C.3       4 UNK         0.0283 
     31 CB         19.9342  -27.8309  -41.6304 C.3       4 UNK        -0.1875 
     32 C          22.4549  -27.8541  -42.0576 C.2       4 UNK         0.4949 
     33 O          22.5592  -27.2564  -40.9847 O.2       4 UNK        -0.5039 
     34 N          23.4977  -28.1176  -42.8571 N.am      5 UNK        -0.4663 
     35 CA         24.8903  -27.7178  -42.6371 C.3       5 UNK         0.0242 
     36 CB         25.7392  -28.1808  -43.8329 C.3       5 UNK        -0.1982 
     37 C          25.4380  -28.2766  -41.3147 C.2       5 UNK         0.5017 
     38 O          25.6378  -29.4875  -41.2069 O.2       5 UNK        -0.5012 
     39 N          25.5878  -27.3944  -40.3142 N.am      6 UNK        -0.4439 
     40 CA         25.9585  -27.6870  -38.9201 C.3       6 UNK         0.0297 
     41 CB         27.4322  -28.1398  -38.8410 C.3       6 UNK        -0.2006 
     42 C          25.0054  -28.6785  -38.2133 C.2       6 UNK         0.4892 
     43 O          25.4147  -29.3294  -37.2508 O.2       6 UNK        -0.5089 
     44 N          23.7680  -28.7967  -38.7242 N.am      7 UNK        -0.4243 
     45 CA         22.7430  -29.7882  -38.3764 C.3       7 UNK         0.0196 
     46 CB         22.2207  -29.5587  -36.9427 C.3       7 UNK        -0.2007 
     47 C          23.1696  -31.2535  -38.6221 C.2       7 UNK         0.5020 
     48 O          22.5514  -32.1620  -38.0638 O.2       7 UNK        -0.5147 
     49 N          24.1885  -31.4860  -39.4649 N.am      8 UNK        -0.4734 
     50 CA         24.7354  -32.8094  -39.7864 C.3       8 UNK         0.0238 
     51 CB         26.2067  -32.6538  -40.2147 C.3       8 UNK        -0.1912 
     52 C          23.8811  -33.5351  -40.8435 C.2       8 UNK         0.5038 
     53 O          24.3714  -33.8577  -41.9276 O.2       8 UNK        -0.5046 
     54 N          22.6029  -33.7421  -40.5123 N.am      9 UNK        -0.4200 
     55 CA         21.5953  -34.4029  -41.3492 C.3       9 UNK         0.0839 
     56 C          21.8399  -35.9272  -41.5277 C.2       9 UNK         0.5513 
     57 N          21.2655  -36.5242  -42.5625 N.am      9 UNK        -0.7519 
     58 O          22.5081  -36.5769  -40.7255 O.2       9 UNK        -0.4960 
     59 C59        20.1631  -34.0908  -40.8275 C.3       10 UNK        -0.0876 
     60 S60        19.0335  -33.5864  -42.1643 S.3       10 UNK        -0.2414 
     61 C61        19.5418  -31.8512  -42.3563 C.3       10 UNK         0.0169 
     62 H62        16.7796  -21.4829  -41.4020 H         1 UNK         0.0903 
     63 H63        15.1102  -21.3801  -41.9683 H         1 UNK         0.0903 
     64 H64        15.6473  -22.7913  -41.0548 H         1 UNK         0.0903 
     65 H65        16.0265  -24.5845  -42.3544 H         1 UNK         0.3096 
     66 H66        16.2898  -24.4055  -45.2077 H         1 UNK         0.1121 
     67 H67        15.0925  -26.2878  -44.5745 H         1 UNK         0.0849 
     68 H68        16.6470  -26.9496  -44.9751 H         1 UNK         0.0849 
     69 H69        15.2090  -29.2394  -42.0551 H         1 UNK         0.0865 
     70 H70        14.7187  -28.7328  -43.6505 H         1 UNK         0.0865 
     71 H71        17.3916  -30.3375  -41.6652 H         1 UNK         0.1346 
     72 H72        19.6366  -31.6499  -45.0762 H         1 UNK         0.1412 
     73 H73        16.2074  -29.1323  -45.6051 H         1 UNK         0.1426 
     74 H74        17.2211  -30.6561  -47.4941 H         1 UNK         0.0716 
     75 H75        18.8940  -31.1126  -47.3134 H         1 UNK         0.0716 
     76 H76        20.8207  -28.4473  -48.4456 H         1 UNK         0.0695 
     77 H77        20.8021  -29.7807  -47.3486 H         1 UNK         0.0695 
     78 H78        22.1047  -27.6300  -46.7443 H         1 UNK         0.0983 
     79 H79        19.4505  -26.4921  -46.5734 H         1 UNK         0.3095 
     80 H80        20.5356  -23.4722  -45.0980 H         1 UNK         0.0454 
     81 H81        21.3211  -23.1008  -47.4416 H         1 UNK         0.0851 
     82 H82        19.7490  -22.3713  -47.1708 H         1 UNK         0.0851 
     83 H83        19.8780  -23.8880  -48.0634 H         1 UNK         0.0851 
     84 H84        18.0750  -24.0266  -46.3171 H         1 UNK         0.2976 
     85 H85        20.2666  -27.0439  -44.0296 H         1 UNK         0.3116 
     86 H86        21.0707  -29.4156  -42.5099 H         1 UNK         0.0646 
     87 H87        19.9370  -26.7446  -41.5350 H         1 UNK         0.0847 
     88 H88        18.9576  -28.1230  -42.0114 H         1 UNK         0.0847 
     89 H89        20.0305  -28.2466  -40.6269 H         1 UNK         0.0847 
     90 H90        23.3051  -28.6587  -43.6937 H         1 UNK         0.3040 
     91 H91        24.9218  -26.6268  -42.6023 H         1 UNK         0.1015 
     92 H92        26.7848  -27.8987  -43.7017 H         1 UNK         0.0786 
     93 H93        25.3953  -27.7271  -44.7627 H         1 UNK         0.0786 
     94 H94        25.7066  -29.2643  -43.9565 H         1 UNK         0.0786 
     95 H95        25.3400  -26.4311  -40.4978 H         1 UNK         0.3172 
     96 H96        25.8704  -26.7452  -38.3767 H         1 UNK         0.0595 
     97 H97        27.5805  -29.1151  -39.3062 H         1 UNK         0.0839 
     98 H98        27.7636  -28.2212  -37.8050 H         1 UNK         0.0839 
     99 H99        28.0941  -27.4285  -39.3346 H         1 UNK         0.0839 
    100 H100       23.5263  -28.1916  -39.5046 H         1 UNK         0.2998 
    101 H101       21.9125  -29.6057  -39.0599 H         1 UNK         0.0822 
    102 H102       21.3549  -30.1887  -36.7346 H         1 UNK         0.0787 
    103 H103       21.9087  -28.5249  -36.7951 H         1 UNK         0.0787 
    104 H104       22.9779  -29.7917  -36.1936 H         1 UNK         0.0787 
    105 H105       24.6286  -30.6995  -39.9342 H         1 UNK         0.3055 
    106 H106       24.7210  -33.4257  -38.8844 H         1 UNK         0.1106 
    107 H107       26.7931  -32.1499  -39.4462 H         1 UNK         0.0828 
    108 H108       26.6673  -33.6270  -40.3889 H         1 UNK         0.0828 
    109 H109       26.3012  -32.0797  -41.1371 H         1 UNK         0.0828 
    110 H110       22.3077  -33.4372  -39.5912 H         1 UNK         0.2931 
    111 H111       21.7155  -33.9593  -42.3398 H         1 UNK         0.0412 
    112 H112       21.3958  -37.5152  -42.6955 H         1 UNK         0.3472 
    113 H113       20.6915  -36.0011  -43.2063 H         1 UNK         0.3472 
    114 H114       19.7257  -34.9450  -40.3062 H         1 UNK         0.0970 
    115 H115       20.1742  -33.2909  -40.0849 H         1 UNK         0.0970 
    116 H116       19.5738  -31.3663  -41.3793 H         1 UNK         0.0612 
    117 H117       20.5577  -31.8141  -42.7527 H         1 UNK         0.0612 
@<TRIPOS>BOND
     1    1    2 1    
     2    1   62 1    
     3    1   63 1    
     4    1   64 1    
     5    2    3 2    
     6    2    4 am   BACKBONE|DICT|INTERRES
     7    4    5 1    
     8    4   65 1    
     9    5    6 1    
    10    5   25 1    
    11    5   66 1    
    12    6    7 1    
    13    6   67 1    
    14    6   68 1    
    15    7    8 1    
    16    8    9 1    
    17    8   69 1    
    18    8   70 1    
    19    9   10 ar   
    20    9   14 ar   
    21   10   11 ar   
    22   10   71 1    
    23   11   12 ar   
    24   11   61 1    
    25   12   13 ar   
    26   12   72 1    
    27   13   14 ar   
    28   13   15 1    
    29   14   73 1    
    30   15   16 1    
    31   15   74 1    
    32   15   75 1    
    33   16   17 1    
    34   17   18 1    
    35   17   76 1    
    36   17   77 1    
    37   18   19 1    
    38   18   27 1    
    39   18   78 1    
    40   19   20 am   BACKBONE|DICT|INTERRES
    41   19   79 1    
    42   20   21 2    
    43   20   22 1    
    44   22   23 1    
    45   22   24 1    
    46   22   80 1    
    47   23   81 1    
    48   23   82 1    
    49   23   83 1    
    50   24   25 am   BACKBONE|DICT|INTERRES
    51   24   84 1    
    52   25   26 2    
    53   27   28 2    
    54   27   29 am   BACKBONE|DICT|INTERRES
    55   29   30 1    
    56   29   85 1    
    57   30   31 1    
    58   30   32 1    
    59   30   86 1    
    60   31   87 1    
    61   31   88 1    
    62   31   89 1    
    63   32   33 2    
    64   32   34 am   BACKBONE|DICT|INTERRES
    65   34   35 1    
    66   34   90 1    
    67   35   36 1    
    68   35   37 1    
    69   35   91 1    
    70   36   92 1    
    71   36   93 1    
    72   36   94 1    
    73   37   38 2    
    74   37   39 am   BACKBONE|DICT|INTERRES
    75   39   40 1    
    76   39   95 1    
    77   40   41 1    
    78   40   42 1    
    79   40   96 1    
    80   41   97 1    
    81   41   98 1    
    82   41   99 1    
    83   42   43 2    
    84   42   44 am   BACKBONE|DICT|INTERRES
    85   44   45 1    
    86   44  100 1    
    87   45   46 1    
    88   45   47 1    
    89   45  101 1    
    90   46  102 1    
    91   46  103 1    
    92   46  104 1    
    93   47   48 2    
    94   47   49 am   BACKBONE|DICT|INTERRES
    95   49   50 1    
    96   49  105 1    
    97   50   51 1    
    98   50   52 1    
    99   50  106 1    
   100   51  107 1    
   101   51  108 1    
   102   51  109 1    
   103   52   53 2    
   104   52   54 am   BACKBONE|DICT|INTERRES
   105   54   55 1    
   106   54  110 1    
   107   55   56 1    
   108   55   59 1    
   109   55  111 1    
   110   56   57 am   BACKBONE|DICT|INTERRES
   111   56   58 2    
   112   57  112 1    
   113   57  113 1    
   114   59   60 1    
   115   59  114 1    
   116   59  115 1    
   117   60   61 1    
   118   61  116 1    
   119   61  117 1    
@<TRIPOS>SUBSTRUCTURE
     1 UNK         1 GROUP             0       ****    0 ROOT    
