@<TRIPOS>MOLECULE
3R8
117   119    1
SMALL
USER_CHARGES


@<TRIPOS>ATOM
      1 CA         19.6227  -24.5941  -48.9580 C.3       0 UNK        -0.2013 
      2 C          18.5266  -25.6045  -49.2887 C.2       0 UNK         0.4866 
      3 O          17.8659  -25.4614  -50.3160 O.2       0 UNK        -0.5176 
      4 N          18.3021  -26.6446  -48.4740 N.am      1 UNK        -0.4884 
      5 CA         18.9303  -26.9182  -47.1759 C.3       1 UNK         0.0853 
      6 C6         18.7165  -28.3922  -46.7259 C.3       10 UNK        -0.0849 
      7 S7         17.0125  -29.0425  -46.9021 S.3       10 UNK        -0.2776 
      8 C8         16.2326  -28.6551  -45.2922 C.3       10 UNK         0.0316 
      9 C9         16.6002  -29.5470  -44.1025 C.ar      10 UNK        -0.0863 
     10 C10        17.6437  -30.4825  -44.1270 C.ar      10 UNK        -0.1009 
     11 C11        17.9562  -31.2349  -42.9895 C.ar      10 UNK        -0.0712 
     12 C12        17.1932  -31.0816  -41.8297 C.ar      10 UNK        -0.0894 
     13 C13        16.1436  -30.1609  -41.7906 C.ar      10 UNK        -0.0745 
     14 C14        15.8570  -29.3984  -42.9265 C.ar      10 UNK        -0.0972 
     15 C15        15.3358  -29.9722  -40.5139 C.3       10 UNK         0.0209 
     16 S16        16.2912  -29.1098  -39.2232 S.3       10 UNK        -0.2568 
     17 C17        16.6284  -27.4988  -40.0131 C.3       10 UNK        -0.0983 
     18 CA         18.0173  -27.4633  -40.6997 C.3       3 UNK         0.0876 
     19 N          18.0814  -26.4296  -41.7336 N.am      3 UNK        -0.4424 
     20 C          19.0210  -26.3921  -42.6835 C.2       2 UNK         0.4918 
     21 O          19.9423  -27.2076  -42.7744 O.2       2 UNK        -0.4875 
     22 CA         18.9129  -25.2715  -43.7229 C.3       2 UNK         0.0481 
     23 CB         19.8851  -24.1275  -43.3944 C.3       2 UNK        -0.1831 
     24 N          19.2697  -25.8630  -45.0078 N.am      2 UNK        -0.4498 
     25 C          18.4720  -25.9363  -46.0776 C.2       1 UNK         0.5027 
     26 O          17.4112  -25.3171  -46.1931 O.2       1 UNK        -0.4969 
     27 C          19.1649  -27.3066  -39.6828 C.2       3 UNK         0.5005 
     28 O          19.4663  -26.1822  -39.2735 O.2       3 UNK        -0.5279 
     29 N          19.7622  -28.4431  -39.2926 N.am      4 UNK        -0.4463 
     30 CA         20.8535  -28.5842  -38.3201 C.3       4 UNK         0.0283 
     31 CB         20.3783  -28.1984  -36.9030 C.3       4 UNK        -0.1875 
     32 C          22.1530  -27.8614  -38.7292 C.2       4 UNK         0.4949 
     33 O          22.9126  -27.4260  -37.8613 O.2       4 UNK        -0.5039 
     34 N          22.4109  -27.7680  -40.0417 N.am      5 UNK        -0.4663 
     35 CA         23.6119  -27.1677  -40.6303 C.3       5 UNK         0.0242 
     36 CB         23.3325  -26.8290  -42.1065 C.3       5 UNK        -0.1982 
     37 C          24.8422  -28.0794  -40.4599 C.2       5 UNK         0.5017 
     38 O          25.2983  -28.6876  -41.4290 O.2       5 UNK        -0.5012 
     39 N          25.3184  -28.2015  -39.2117 N.am      6 UNK        -0.4439 
     40 CA         26.4786  -28.9871  -38.7607 C.3       6 UNK         0.0297 
     41 CB         27.7853  -28.3551  -39.2857 C.3       6 UNK        -0.2006 
     42 C          26.3847  -30.4934  -39.0889 C.2       6 UNK         0.4892 
     43 O          27.4150  -31.1440  -39.2698 O.2       6 UNK        -0.5089 
     44 N          25.1470  -31.0053  -39.1889 N.am      7 UNK        -0.4243 
     45 CA         24.7635  -32.3488  -39.6469 C.3       7 UNK         0.0196 
     46 CB         25.2797  -33.4350  -38.6790 C.3       7 UNK        -0.2007 
     47 C          25.1366  -32.6429  -41.1178 C.2       7 UNK         0.5020 
     48 O          25.1301  -33.8064  -41.5211 O.2       7 UNK        -0.5147 
     49 N          25.4235  -31.5963  -41.9040 N.am      8 UNK        -0.4734 
     50 CA         25.7777  -31.6623  -43.3242 C.3       8 UNK         0.0238 
     51 CB         27.0850  -30.8773  -43.5394 C.3       8 UNK        -0.1912 
     52 C          24.6409  -31.1258  -44.2142 C.2       8 UNK         0.5038 
     53 O          24.8864  -30.7914  -45.3744 O.2       8 UNK        -0.5046 
     54 N          23.4228  -31.0452  -43.6620 N.am      9 UNK        -0.4200 
     55 CA         22.2061  -30.5717  -44.3365 C.3       9 UNK         0.0839 
     56 C          21.6622  -31.4906  -45.4692 C.2       9 UNK         0.5513 
     57 N          22.1198  -32.7298  -45.6026 N.am      9 UNK        -0.7519 
     58 O          20.8102  -31.0653  -46.2433 O.2       9 UNK        -0.4960 
     59 C59        21.1039  -30.1911  -43.3137 C.3       10 UNK        -0.0876 
     60 S60        20.6039  -31.5419  -42.1865 S.3       10 UNK        -0.2414 
     61 C61        19.1203  -32.2148  -43.0090 C.3       10 UNK         0.0169 
     62 H62        19.3522  -23.9974  -48.0876 H         1 UNK         0.0903 
     63 H63        20.5755  -25.0872  -48.7697 H         1 UNK         0.0903 
     64 H64        19.7709  -23.9092  -49.7928 H         1 UNK         0.0903 
     65 H65        17.5547  -27.2836  -48.7078 H         1 UNK         0.3096 
     66 H66        20.0064  -26.7772  -47.2946 H         1 UNK         0.1121 
     67 H67        19.0701  -28.5527  -45.7061 H         1 UNK         0.0849 
     68 H68        19.3502  -29.0317  -47.3423 H         1 UNK         0.0849 
     69 H69        16.4339  -27.6177  -45.0279 H         1 UNK         0.0865 
     70 H70        15.1535  -28.7181  -45.4408 H         1 UNK         0.0865 
     71 H71        18.2335  -30.6255  -45.0209 H         1 UNK         0.1346 
     72 H72        17.4300  -31.6638  -40.9493 H         1 UNK         0.1412 
     73 H73        15.0519  -28.6765  -42.8924 H         1 UNK         0.1426 
     74 H74        15.0295  -30.9479  -40.1341 H         1 UNK         0.0716 
     75 H75        14.4160  -29.4194  -40.7116 H         1 UNK         0.0716 
     76 H76        16.5371  -26.7089  -39.2649 H         1 UNK         0.0695 
     77 H77        15.8385  -27.3068  -40.7408 H         1 UNK         0.0695 
     78 H78        18.1663  -28.4115  -41.2204 H         1 UNK         0.0983 
     79 H79        17.3836  -25.7017  -41.6921 H         1 UNK         0.3095 
     80 H80        17.8910  -24.8865  -43.7346 H         1 UNK         0.0454 
     81 H81        19.8278  -23.3350  -44.1405 H         1 UNK         0.0851 
     82 H82        20.9189  -24.4726  -43.3523 H         1 UNK         0.0851 
     83 H83        19.6502  -23.6813  -42.4271 H         1 UNK         0.0851 
     84 H84        20.0925  -26.4507  -44.9683 H         1 UNK         0.2976 
     85 H85        19.4269  -29.3107  -39.6899 H         1 UNK         0.3116 
     86 H86        21.1008  -29.6466  -38.3011 H         1 UNK         0.0646 
     87 H87        20.1770  -27.1299  -36.8203 H         1 UNK         0.0847 
     88 H88        19.4688  -28.7331  -36.6294 H         1 UNK         0.0847 
     89 H89        21.1334  -28.4440  -36.1552 H         1 UNK         0.0847 
     90 H90        21.7278  -28.1360  -40.6883 H         1 UNK         0.3040 
     91 H91        23.8234  -26.2299  -40.1114 H         1 UNK         0.1015 
     92 H92        24.1926  -26.3359  -42.5610 H         1 UNK         0.0786 
     93 H93        22.4834  -26.1526  -42.2039 H         1 UNK         0.0786 
     94 H94        23.1216  -27.7195  -42.6987 H         1 UNK         0.0786 
     95 H95        24.7871  -27.7347  -38.4807 H         1 UNK         0.3172 
     96 H96        26.4897  -28.9161  -37.6721 H         1 UNK         0.0595 
     97 H97        27.8697  -28.4463  -40.3694 H         1 UNK         0.0839 
     98 H98        28.6600  -28.8395  -38.8499 H         1 UNK         0.0839 
     99 H99        27.8452  -27.2968  -39.0323 H         1 UNK         0.0839 
    100 H100       24.3795  -30.3730  -39.0121 H         1 UNK         0.2998 
    101 H101       23.6732  -32.3743  -39.6118 H         1 UNK         0.0822 
    102 H102       24.8597  -34.4110  -38.9253 H         1 UNK         0.0787 
    103 H103       26.3650  -33.5319  -38.7186 H         1 UNK         0.0787 
    104 H104       24.9992  -33.2150  -37.6490 H         1 UNK         0.0787 
    105 H105       25.3923  -30.6581  -41.5126 H         1 UNK         0.3055 
    106 H106       25.9510  -32.6976  -43.6258 H         1 UNK         0.1106 
    107 H107       27.8824  -31.2538  -42.8984 H         1 UNK         0.0828 
    108 H108       27.4322  -30.9630  -44.5698 H         1 UNK         0.0828 
    109 H109       26.9569  -29.8157  -43.3243 H         1 UNK         0.0828 
    110 H110       23.3062  -31.3640  -42.7122 H         1 UNK         0.2931 
    111 H111       22.4858  -29.6438  -44.8396 H         1 UNK         0.0412 
    112 H112       21.7615  -33.3106  -46.3442 H         1 UNK         0.3472 
    113 H113       22.8138  -33.0903  -44.9683 H         1 UNK         0.3472 
    114 H114       20.2346  -29.7730  -43.8197 H         1 UNK         0.0970 
    115 H115       21.4716  -29.3810  -42.6853 H         1 UNK         0.0970 
    116 H116       19.3629  -32.5057  -44.0314 H         1 UNK         0.0612 
    117 H117       18.8266  -33.1327  -42.4979 H         1 UNK         0.0612 
@<TRIPOS>BOND
     1    1    2 1    
     2    1   62 1    
     3    1   63 1    
     4    1   64 1    
     5    2    3 2    
     6    2    4 am   BACKBONE|DICT|INTERRES
     7    4    5 1    
     8    4   65 1    
     9    5    6 1    
    10    5   25 1    
    11    5   66 1    
    12    6    7 1    
    13    6   67 1    
    14    6   68 1    
    15    7    8 1    
    16    8    9 1    
    17    8   69 1    
    18    8   70 1    
    19    9   10 ar   
    20    9   14 ar   
    21   10   11 ar   
    22   10   71 1    
    23   11   12 ar   
    24   11   61 1    
    25   12   13 ar   
    26   12   72 1    
    27   13   14 ar   
    28   13   15 1    
    29   14   73 1    
    30   15   16 1    
    31   15   74 1    
    32   15   75 1    
    33   16   17 1    
    34   17   18 1    
    35   17   76 1    
    36   17   77 1    
    37   18   19 1    
    38   18   27 1    
    39   18   78 1    
    40   19   20 am   BACKBONE|DICT|INTERRES
    41   19   79 1    
    42   20   21 2    
    43   20   22 1    
    44   22   23 1    
    45   22   24 1    
    46   22   80 1    
    47   23   81 1    
    48   23   82 1    
    49   23   83 1    
    50   24   25 am   BACKBONE|DICT|INTERRES
    51   24   84 1    
    52   25   26 2    
    53   27   28 2    
    54   27   29 am   BACKBONE|DICT|INTERRES
    55   29   30 1    
    56   29   85 1    
    57   30   31 1    
    58   30   32 1    
    59   30   86 1    
    60   31   87 1    
    61   31   88 1    
    62   31   89 1    
    63   32   33 2    
    64   32   34 am   BACKBONE|DICT|INTERRES
    65   34   35 1    
    66   34   90 1    
    67   35   36 1    
    68   35   37 1    
    69   35   91 1    
    70   36   92 1    
    71   36   93 1    
    72   36   94 1    
    73   37   38 2    
    74   37   39 am   BACKBONE|DICT|INTERRES
    75   39   40 1    
    76   39   95 1    
    77   40   41 1    
    78   40   42 1    
    79   40   96 1    
    80   41   97 1    
    81   41   98 1    
    82   41   99 1    
    83   42   43 2    
    84   42   44 am   BACKBONE|DICT|INTERRES
    85   44   45 1    
    86   44  100 1    
    87   45   46 1    
    88   45   47 1    
    89   45  101 1    
    90   46  102 1    
    91   46  103 1    
    92   46  104 1    
    93   47   48 2    
    94   47   49 am   BACKBONE|DICT|INTERRES
    95   49   50 1    
    96   49  105 1    
    97   50   51 1    
    98   50   52 1    
    99   50  106 1    
   100   51  107 1    
   101   51  108 1    
   102   51  109 1    
   103   52   53 2    
   104   52   54 am   BACKBONE|DICT|INTERRES
   105   54   55 1    
   106   54  110 1    
   107   55   56 1    
   108   55   59 1    
   109   55  111 1    
   110   56   57 am   BACKBONE|DICT|INTERRES
   111   56   58 2    
   112   57  112 1    
   113   57  113 1    
   114   59   60 1    
   115   59  114 1    
   116   59  115 1    
   117   60   61 1    
   118   61  116 1    
   119   61  117 1    
@<TRIPOS>SUBSTRUCTURE
     1 UNK         1 GROUP             0       ****    0 ROOT    
