@<TRIPOS>MOLECULE
3R8
117   119    1
SMALL
USER_CHARGES


@<TRIPOS>ATOM
      1 CA         21.6467  -21.6375  -48.0229 C.3       0 UNK        -0.2013 
      2 C          21.6720  -22.8076  -47.0506 C.2       0 UNK         0.4866 
      3 O          22.4028  -22.7648  -46.0604 O.2       0 UNK        -0.5176 
      4 N          20.8867  -23.8560  -47.3288 N.am      1 UNK        -0.4884 
      5 CA         20.7340  -25.0315  -46.4664 C.3       1 UNK         0.0853 
      6 C6         20.1423  -26.2269  -47.2582 C.3       10 UNK        -0.0849 
      7 S7         20.4261  -27.8214  -46.4162 S.3       10 UNK        -0.2776 
      8 C8         19.1185  -28.8758  -47.1203 C.3       10 UNK         0.0316 
      9 C9         18.5452  -29.8183  -46.0703 C.ar      10 UNK        -0.0863 
     10 C10        19.2403  -30.9722  -45.6946 C.ar      10 UNK        -0.1009 
     11 C11        18.7175  -31.8366  -44.7257 C.ar      10 UNK        -0.0712 
     12 C12        17.4784  -31.5487  -44.1456 C.ar      10 UNK        -0.0894 
     13 C13        16.7716  -30.4005  -44.5165 C.ar      10 UNK        -0.0745 
     14 C14        17.3101  -29.5405  -45.4788 C.ar      10 UNK        -0.0972 
     15 C15        15.4259  -30.0838  -43.8810 C.3       10 UNK         0.0209 
     16 S16        15.4921  -28.5671  -42.8763 S.3       10 UNK        -0.2568 
     17 C17        16.5452  -29.0861  -41.4788 C.3       10 UNK        -0.0983 
     18 CA         18.0499  -28.7674  -41.6804 C.3       3 UNK         0.0876 
     19 N          18.2797  -27.3754  -42.0763 N.am      3 UNK        -0.4424 
     20 C          19.4619  -26.7967  -42.3222 C.2       2 UNK         0.4918 
     21 O          20.5673  -27.3304  -42.1657 O.2       2 UNK        -0.4875 
     22 CA         19.3992  -25.3734  -42.8771 C.3       2 UNK         0.0481 
     23 CB         19.9685  -24.3496  -41.8811 C.3       2 UNK        -0.1831 
     24 N          20.1726  -25.3800  -44.1112 N.am      2 UNK        -0.4498 
     25 C          19.8838  -24.6938  -45.2208 C.2       1 UNK         0.5027 
     26 O          18.9734  -23.8638  -45.3005 O.2       1 UNK        -0.4969 
     27 C          18.8463  -29.1244  -40.4149 C.2       3 UNK         0.5005 
     28 O          18.6390  -28.4933  -39.3751 O.2       3 UNK        -0.5279 
     29 N          19.7736  -30.0828  -40.5458 N.am      4 UNK        -0.4463 
     30 CA         20.7784  -30.5271  -39.5701 C.3       4 UNK         0.0283 
     31 CB         20.1216  -31.1344  -38.3163 C.3       4 UNK        -0.1875 
     32 C          21.8220  -29.4595  -39.1859 C.2       4 UNK         0.4949 
     33 O          23.0100  -29.7756  -39.1657 O.2       4 UNK        -0.5039 
     34 N          21.3718  -28.2321  -38.8981 N.am      5 UNK        -0.4663 
     35 CA         22.1594  -27.0974  -38.4093 C.3       5 UNK         0.0242 
     36 CB         21.2221  -25.9052  -38.1569 C.3       5 UNK        -0.1982 
     37 C          23.3218  -26.6853  -39.3258 C.2       5 UNK         0.5017 
     38 O          24.4179  -26.4362  -38.8220 O.2       5 UNK        -0.5012 
     39 N          23.0660  -26.6328  -40.6393 N.am      6 UNK        -0.4439 
     40 CA         24.0835  -26.3775  -41.6645 C.3       6 UNK         0.0297 
     41 CB         23.6454  -25.2042  -42.5551 C.3       6 UNK        -0.2006 
     42 C          24.3390  -27.6271  -42.5172 C.2       6 UNK         0.4892 
     43 O          25.4630  -27.8171  -42.9822 O.2       6 UNK        -0.5089 
     44 N          23.2998  -28.4502  -42.7132 N.am      7 UNK        -0.4243 
     45 CA         23.3362  -29.6595  -43.5346 C.3       7 UNK         0.0196 
     46 CB         21.8961  -30.1359  -43.7412 C.3       7 UNK        -0.2007 
     47 C          24.1786  -30.8078  -42.9532 C.2       7 UNK         0.5020 
     48 O          24.6402  -31.6507  -43.7216 O.2       7 UNK        -0.5147 
     49 N          24.3217  -30.8517  -41.6189 N.am      8 UNK        -0.4734 
     50 CA         24.9958  -31.8907  -40.8226 C.3       8 UNK         0.0238 
     51 CB         26.4925  -31.9943  -41.1865 C.3       8 UNK        -0.1912 
     52 C          24.2920  -33.2657  -40.8351 C.2       8 UNK         0.5038 
     53 O          24.8706  -34.2410  -40.3541 O.2       8 UNK        -0.5046 
     54 N          23.0573  -33.3227  -41.3517 N.am      9 UNK        -0.4200 
     55 CA         22.1976  -34.5160  -41.4058 C.3       9 UNK         0.0839 
     56 C          21.4960  -34.8917  -40.0662 C.2       9 UNK         0.5513 
     57 N          21.6980  -34.1611  -38.9763 N.am      9 UNK        -0.7519 
     58 O          20.7690  -35.8802  -40.0095 O.2       9 UNK        -0.4960 
     59 C59        21.2123  -34.4548  -42.6050 C.3       10 UNK        -0.0876 
     60 S60        20.1352  -32.9794  -42.6267 S.3       10 UNK        -0.2414 
     61 C61        19.4780  -33.0924  -44.3219 C.3       10 UNK         0.0169 
     62 H62        20.9696  -21.8150  -48.8583 H         1 UNK         0.0903 
     63 H63        21.3228  -20.7319  -47.5107 H         1 UNK         0.0903 
     64 H64        22.6439  -21.4630  -48.4262 H         1 UNK         0.0903 
     65 H65        20.2811  -23.8207  -48.1367 H         1 UNK         0.3096 
     66 H66        21.7352  -25.3091  -46.1267 H         1 UNK         0.1121 
     67 H67        20.6133  -26.2973  -48.2402 H         1 UNK         0.0849 
     68 H68        19.0765  -26.0780  -47.4429 H         1 UNK         0.0849 
     69 H69        18.3217  -28.2633  -47.5441 H         1 UNK         0.0865 
     70 H70        19.5310  -29.4511  -47.9504 H         1 UNK         0.0865 
     71 H71        20.1944  -31.1900  -46.1546 H         1 UNK         0.1346 
     72 H72        17.0705  -32.2188  -43.4010 H         1 UNK         0.1412 
     73 H73        16.7653  -28.6495  -45.7603 H         1 UNK         0.1426 
     74 H74        15.0734  -30.9131  -43.2657 H         1 UNK         0.0716 
     75 H75        14.6840  -29.9510  -44.6696 H         1 UNK         0.0716 
     76 H76        16.4019  -30.1536  -41.3009 H         1 UNK         0.0695 
     77 H77        16.1647  -28.5797  -40.5892 H         1 UNK         0.0695 
     78 H78        18.4217  -29.3802  -42.5031 H         1 UNK         0.0983 
     79 H79        17.4389  -26.8408  -42.2377 H         1 UNK         0.3095 
     80 H80        18.3598  -25.1176  -43.0949 H         1 UNK         0.0454 
     81 H81        20.9864  -24.5928  -41.5789 H         1 UNK         0.0851 
     82 H82        19.3620  -24.3127  -40.9756 H         1 UNK         0.0851 
     83 H83        19.9772  -23.3462  -42.3067 H         1 UNK         0.0851 
     84 H84        20.8795  -26.1028  -44.1540 H         1 UNK         0.2976 
     85 H85        19.8425  -30.5346  -41.4475 H         1 UNK         0.3116 
     86 H86        21.3262  -31.3289  -40.0661 H         1 UNK         0.0646 
     87 H87        19.5387  -30.4005  -37.7595 H         1 UNK         0.0847 
     88 H88        20.8759  -31.5290  -37.6345 H         1 UNK         0.0847 
     89 H89        19.4599  -31.9600  -38.5786 H         1 UNK         0.0847 
     90 H90        20.3636  -28.0991  -38.9610 H         1 UNK         0.3040 
     91 H91        22.5946  -27.3978  -37.4537 H         1 UNK         0.1015 
     92 H92        20.7050  -25.5986  -39.0667 H         1 UNK         0.0786 
     93 H93        21.7764  -25.0412  -37.7873 H         1 UNK         0.0786 
     94 H94        20.4662  -26.1476  -37.4096 H         1 UNK         0.0786 
     95 H95        22.1297  -26.8585  -40.9587 H         1 UNK         0.3172 
     96 H96        25.0343  -26.1037  -41.2025 H         1 UNK         0.0595 
     97 H97        22.7292  -25.4281  -43.0985 H         1 UNK         0.0839 
     98 H98        24.4113  -24.9716  -43.2962 H         1 UNK         0.0839 
     99 H99        23.4794  -24.3004  -41.9688 H         1 UNK         0.0839 
    100 H100       22.3917  -28.1849  -42.3503 H         1 UNK         0.2998 
    101 H101       23.7580  -29.3972  -44.5073 H         1 UNK         0.0822 
    102 H102       21.2835  -29.3691  -44.2101 H         1 UNK         0.0787 
    103 H103       21.8653  -31.0195  -44.3794 H         1 UNK         0.0787 
    104 H104       21.4257  -30.3922  -42.7946 H         1 UNK         0.0787 
    105 H105       23.8892  -30.1188  -41.0667 H         1 UNK         0.3055 
    106 H106       24.9418  -31.5498  -39.7875 H         1 UNK         0.1106 
    107 H107       27.0239  -32.6321  -40.4790 H         1 UNK         0.0828 
    108 H108       26.6428  -32.4206  -42.1786 H         1 UNK         0.0828 
    109 H109       26.9749  -31.0172  -41.1637 H         1 UNK         0.0828 
    110 H110       22.6587  -32.4789  -41.7325 H         1 UNK         0.2931 
    111 H111       22.8569  -35.3623  -41.6078 H         1 UNK         0.0412 
    112 H112       21.2455  -34.4284  -38.1165 H         1 UNK         0.3472 
    113 H113       22.3236  -33.3738  -38.9966 H         1 UNK         0.3472 
    114 H114       21.7906  -34.4669  -43.5303 H         1 UNK         0.0970 
    115 H115       20.5869  -35.3488  -42.6425 H         1 UNK         0.0970 
    116 H116       20.3009  -33.2721  -45.0155 H         1 UNK         0.0612 
    117 H117       18.8177  -33.9578  -44.3938 H         1 UNK         0.0612 
@<TRIPOS>BOND
     1    1    2 1    
     2    1   62 1    
     3    1   63 1    
     4    1   64 1    
     5    2    3 2    
     6    2    4 am   BACKBONE|DICT|INTERRES
     7    4    5 1    
     8    4   65 1    
     9    5    6 1    
    10    5   25 1    
    11    5   66 1    
    12    6    7 1    
    13    6   67 1    
    14    6   68 1    
    15    7    8 1    
    16    8    9 1    
    17    8   69 1    
    18    8   70 1    
    19    9   10 ar   
    20    9   14 ar   
    21   10   11 ar   
    22   10   71 1    
    23   11   12 ar   
    24   11   61 1    
    25   12   13 ar   
    26   12   72 1    
    27   13   14 ar   
    28   13   15 1    
    29   14   73 1    
    30   15   16 1    
    31   15   74 1    
    32   15   75 1    
    33   16   17 1    
    34   17   18 1    
    35   17   76 1    
    36   17   77 1    
    37   18   19 1    
    38   18   27 1    
    39   18   78 1    
    40   19   20 am   BACKBONE|DICT|INTERRES
    41   19   79 1    
    42   20   21 2    
    43   20   22 1    
    44   22   23 1    
    45   22   24 1    
    46   22   80 1    
    47   23   81 1    
    48   23   82 1    
    49   23   83 1    
    50   24   25 am   BACKBONE|DICT|INTERRES
    51   24   84 1    
    52   25   26 2    
    53   27   28 2    
    54   27   29 am   BACKBONE|DICT|INTERRES
    55   29   30 1    
    56   29   85 1    
    57   30   31 1    
    58   30   32 1    
    59   30   86 1    
    60   31   87 1    
    61   31   88 1    
    62   31   89 1    
    63   32   33 2    
    64   32   34 am   BACKBONE|DICT|INTERRES
    65   34   35 1    
    66   34   90 1    
    67   35   36 1    
    68   35   37 1    
    69   35   91 1    
    70   36   92 1    
    71   36   93 1    
    72   36   94 1    
    73   37   38 2    
    74   37   39 am   BACKBONE|DICT|INTERRES
    75   39   40 1    
    76   39   95 1    
    77   40   41 1    
    78   40   42 1    
    79   40   96 1    
    80   41   97 1    
    81   41   98 1    
    82   41   99 1    
    83   42   43 2    
    84   42   44 am   BACKBONE|DICT|INTERRES
    85   44   45 1    
    86   44  100 1    
    87   45   46 1    
    88   45   47 1    
    89   45  101 1    
    90   46  102 1    
    91   46  103 1    
    92   46  104 1    
    93   47   48 2    
    94   47   49 am   BACKBONE|DICT|INTERRES
    95   49   50 1    
    96   49  105 1    
    97   50   51 1    
    98   50   52 1    
    99   50  106 1    
   100   51  107 1    
   101   51  108 1    
   102   51  109 1    
   103   52   53 2    
   104   52   54 am   BACKBONE|DICT|INTERRES
   105   54   55 1    
   106   54  110 1    
   107   55   56 1    
   108   55   59 1    
   109   55  111 1    
   110   56   57 am   BACKBONE|DICT|INTERRES
   111   56   58 2    
   112   57  112 1    
   113   57  113 1    
   114   59   60 1    
   115   59  114 1    
   116   59  115 1    
   117   60   61 1    
   118   61  116 1    
   119   61  117 1    
@<TRIPOS>SUBSTRUCTURE
     1 UNK         1 GROUP             0       ****    0 ROOT    
