@<TRIPOS>MOLECULE
3R8
117   119    1
SMALL
USER_CHARGES


@<TRIPOS>ATOM
      1 CA         19.9515  -28.8766  -49.7941 C.3       0 UNK        -0.2013 
      2 C          19.0447  -28.1272  -48.8295 C.2       0 UNK         0.4866 
      3 O          18.5674  -27.0422  -49.1620 O.2       0 UNK        -0.5176 
      4 N          18.8123  -28.7001  -47.6399 N.am      1 UNK        -0.4884 
      5 CA         17.9652  -28.1664  -46.5607 C.3       1 UNK         0.0853 
      6 C6         16.4512  -28.1380  -46.9101 C.3       10 UNK        -0.0849 
      7 S7         15.7972  -29.8292  -47.1180 S.3       10 UNK        -0.2776 
      8 C8         14.7890  -30.0396  -45.6083 C.3       10 UNK         0.0316 
      9 C9         15.5588  -29.7770  -44.3159 C.ar      10 UNK        -0.0863 
     10 C10        16.7366  -30.4761  -44.0316 C.ar      10 UNK        -0.1009 
     11 C11        17.4386  -30.2283  -42.8493 C.ar      10 UNK        -0.0712 
     12 C12        16.9294  -29.3143  -41.9237 C.ar      10 UNK        -0.0894 
     13 C13        15.7598  -28.5961  -42.1951 C.ar      10 UNK        -0.0745 
     14 C14        15.0817  -28.8363  -43.3954 C.ar      10 UNK        -0.0972 
     15 C15        15.1868  -27.5865  -41.1991 C.3       10 UNK         0.0209 
     16 S16        16.4308  -26.6767  -40.2134 S.3       10 UNK        -0.2568 
     17 C17        17.2633  -25.6524  -41.4743 C.3       10 UNK        -0.0983 
     18 CA         18.7356  -26.0777  -41.7082 C.3       3 UNK         0.0876 
     19 N          19.1839  -25.7007  -43.0501 N.am      3 UNK        -0.4424 
     20 C          20.3718  -25.9978  -43.5909 C.2       2 UNK         0.4918 
     21 O          21.2833  -26.5622  -42.9881 O.2       2 UNK        -0.4875 
     22 CA         20.5178  -25.6992  -45.0929 C.3       2 UNK         0.0481 
     23 CB         21.9900  -25.6483  -45.5405 C.3       2 UNK        -0.1831 
     24 N          19.8238  -26.7405  -45.8499 N.am      2 UNK        -0.4498 
     25 C          18.4935  -26.8332  -45.9904 C.2       1 UNK         0.5027 
     26 O          17.7132  -25.9410  -45.6488 O.2       1 UNK        -0.4969 
     27 C          19.6793  -25.5702  -40.5937 C.2       3 UNK         0.5005 
     28 O          20.2292  -24.4713  -40.7054 O.2       3 UNK        -0.5279 
     29 N          19.8372  -26.3955  -39.5478 N.am      4 UNK        -0.4463 
     30 CA         20.7222  -26.2297  -38.3861 C.3       4 UNK         0.0283 
     31 CB         20.4625  -24.9027  -37.6405 C.3       4 UNK        -0.1875 
     32 C          22.2188  -26.4616  -38.6836 C.2       4 UNK         0.4949 
     33 O          23.0496  -26.1763  -37.8207 O.2       4 UNK        -0.5039 
     34 N          22.5489  -27.0267  -39.8557 N.am      5 UNK        -0.4663 
     35 CA         23.9112  -27.4372  -40.2271 C.3       5 UNK         0.0242 
     36 CB         24.0291  -27.4750  -41.7591 C.3       5 UNK        -0.1982 
     37 C          24.3475  -28.7821  -39.6093 C.2       5 UNK         0.5017 
     38 O          25.5046  -29.1695  -39.7803 O.2       5 UNK        -0.5012 
     39 N          23.4295  -29.4722  -38.9134 N.am      6 UNK        -0.4439 
     40 CA         23.6159  -30.7516  -38.2191 C.3       6 UNK         0.0297 
     41 CB         24.5318  -30.5715  -36.9863 C.3       6 UNK        -0.2006 
     42 C          24.0677  -31.8569  -39.1916 C.2       6 UNK         0.4892 
     43 O          23.3300  -32.1573  -40.1302 O.2       6 UNK        -0.5089 
     44 N          25.2656  -32.4211  -38.9845 N.am      7 UNK        -0.4243 
     45 CA         25.8656  -33.4573  -39.8321 C.3       7 UNK         0.0196 
     46 CB         27.1807  -33.9333  -39.1946 C.3       7 UNK        -0.2007 
     47 C          26.1031  -33.0189  -41.2897 C.2       7 UNK         0.5020 
     48 O          26.0792  -33.8664  -42.1822 O.2       7 UNK        -0.5147 
     49 N          26.2988  -31.7121  -41.5162 N.am      8 UNK        -0.4734 
     50 CA         26.4544  -31.1230  -42.8489 C.3       8 UNK         0.0238 
     51 CB         27.3086  -29.8482  -42.7417 C.3       8 UNK        -0.1912 
     52 C          25.1132  -30.8517  -43.5600 C.2       8 UNK         0.5038 
     53 O          25.1354  -30.4706  -44.7311 O.2       8 UNK        -0.5046 
     54 N          23.9795  -31.0529  -42.8705 N.am      9 UNK        -0.4200 
     55 CA         22.6263  -30.9475  -43.4409 C.3       9 UNK         0.0839 
     56 C          22.2412  -32.1245  -44.3869 C.2       9 UNK         0.5513 
     57 N          22.9477  -33.2495  -44.3671 N.am      9 UNK        -0.7519 
     58 O          21.2971  -32.0117  -45.1638 O.2       9 UNK        -0.4960 
     59 C59        21.5699  -30.7331  -42.3236 C.3       10 UNK        -0.0876 
     60 S60        20.1350  -29.7562  -42.8743 S.3       10 UNK        -0.2414 
     61 C61        18.7661  -30.9148  -42.5769 C.3       10 UNK         0.0169 
     62 H62        20.8195  -28.2668  -50.0438 H         1 UNK         0.0903 
     63 H63        20.3076  -29.8173  -49.3743 H         1 UNK         0.0903 
     64 H64        19.4149  -29.0992  -50.7161 H         1 UNK         0.0903 
     65 H65        19.2323  -29.5988  -47.4439 H         1 UNK         0.3096 
     66 H66        18.0894  -28.8598  -45.7289 H         1 UNK         0.1121 
     67 H67        15.8722  -27.6373  -46.1321 H         1 UNK         0.0849 
     68 H68        16.2725  -27.5706  -47.8244 H         1 UNK         0.0849 
     69 H69        13.9187  -29.3852  -45.6801 H         1 UNK         0.0865 
     70 H70        14.4008  -31.0586  -45.5847 H         1 UNK         0.0865 
     71 H71        17.1201  -31.1925  -44.7456 H         1 UNK         0.1346 
     72 H72        17.4648  -29.1505  -40.9994 H         1 UNK         0.1412 
     73 H73        14.1699  -28.2947  -43.6084 H         1 UNK         0.1426 
     74 H74        14.5315  -28.1227  -40.5117 H         1 UNK         0.0716 
     75 H75        14.5588  -26.8585  -41.7154 H         1 UNK         0.0716 
     76 H76        17.1965  -24.6020  -41.1842 H         1 UNK         0.0695 
     77 H77        16.6956  -25.7374  -42.4028 H         1 UNK         0.0695 
     78 H78        18.7820  -27.1681  -41.7037 H         1 UNK         0.0983 
     79 H79        18.4872  -25.2874  -43.6559 H         1 UNK         0.3095 
     80 H80        20.0642  -24.7281  -45.3024 H         1 UNK         0.0454 
     81 H81        22.4983  -26.6004  -45.3811 H         1 UNK         0.0851 
     82 H82        22.5390  -24.8900  -44.9809 H         1 UNK         0.0851 
     83 H83        22.0744  -25.3961  -46.5975 H         1 UNK         0.0851 
     84 H84        20.3843  -27.5258  -46.1479 H         1 UNK         0.2976 
     85 H85        19.3032  -27.2543  -39.5503 H         1 UNK         0.3116 
     86 H86        20.4415  -27.0318  -37.7019 H         1 UNK         0.0646 
     87 H87        20.8220  -24.0409  -38.2031 H         1 UNK         0.0847 
     88 H88        20.9737  -24.8904  -36.6772 H         1 UNK         0.0847 
     89 H89        19.4005  -24.7576  -37.4429 H         1 UNK         0.0847 
     90 H90        21.8252  -27.1827  -40.5450 H         1 UNK         0.3040 
     91 H91        24.6131  -26.6854  -39.8595 H         1 UNK         0.1015 
     92 H92        25.0348  -27.7484  -42.0746 H         1 UNK         0.0786 
     93 H93        23.8194  -26.4973  -42.1927 H         1 UNK         0.0786 
     94 H94        23.3399  -28.1932  -42.2031 H         1 UNK         0.0786 
     95 H95        22.5004  -29.0806  -38.8688 H         1 UNK         0.3172 
     96 H96        22.6322  -31.0529  -37.8561 H         1 UNK         0.0595 
     97 H97        24.6209  -31.4994  -36.4197 H         1 UNK         0.0839 
     98 H98        24.1221  -29.8251  -36.3055 H         1 UNK         0.0839 
     99 H99        25.5368  -30.2458  -37.2571 H         1 UNK         0.0839 
    100 H100       25.8167  -32.0973  -38.2029 H         1 UNK         0.2998 
    101 H101       25.1724  -34.3008  -39.8586 H         1 UNK         0.0822 
    102 H102       27.6387  -34.7251  -39.7894 H         1 UNK         0.0787 
    103 H103       27.9073  -33.1235  -39.1157 H         1 UNK         0.0787 
    104 H104       27.0154  -34.3367  -38.1953 H         1 UNK         0.0787 
    105 H105       26.2632  -31.0659  -40.7354 H         1 UNK         0.3055 
    106 H106       26.9980  -31.8271  -43.4834 H         1 UNK         0.1106 
    107 H107       27.4265  -29.3677  -43.7139 H         1 UNK         0.0828 
    108 H108       26.8683  -29.1167  -42.0666 H         1 UNK         0.0828 
    109 H109       28.3090  -30.0765  -42.3738 H         1 UNK         0.0828 
    110 H110       24.0329  -31.4032  -41.9208 H         1 UNK         0.2931 
    111 H111       22.6314  -30.0493  -44.0622 H         1 UNK         0.0412 
    112 H112       23.7285  -33.3565  -43.7381 H         1 UNK         0.3472 
    113 H113       22.6942  -34.0011  -44.9890 H         1 UNK         0.3472 
    114 H114       21.2510  -31.6845  -41.8932 H         1 UNK         0.0970 
    115 H115       22.0081  -30.1751  -41.4956 H         1 UNK         0.0970 
    116 H116       18.7956  -31.2627  -41.5432 H         1 UNK         0.0612 
    117 H117       18.8899  -31.7933  -43.2123 H         1 UNK         0.0612 
@<TRIPOS>BOND
     1    1    2 1    
     2    1   62 1    
     3    1   63 1    
     4    1   64 1    
     5    2    3 2    
     6    2    4 am   BACKBONE|DICT|INTERRES
     7    4    5 1    
     8    4   65 1    
     9    5    6 1    
    10    5   25 1    
    11    5   66 1    
    12    6    7 1    
    13    6   67 1    
    14    6   68 1    
    15    7    8 1    
    16    8    9 1    
    17    8   69 1    
    18    8   70 1    
    19    9   10 ar   
    20    9   14 ar   
    21   10   11 ar   
    22   10   71 1    
    23   11   12 ar   
    24   11   61 1    
    25   12   13 ar   
    26   12   72 1    
    27   13   14 ar   
    28   13   15 1    
    29   14   73 1    
    30   15   16 1    
    31   15   74 1    
    32   15   75 1    
    33   16   17 1    
    34   17   18 1    
    35   17   76 1    
    36   17   77 1    
    37   18   19 1    
    38   18   27 1    
    39   18   78 1    
    40   19   20 am   BACKBONE|DICT|INTERRES
    41   19   79 1    
    42   20   21 2    
    43   20   22 1    
    44   22   23 1    
    45   22   24 1    
    46   22   80 1    
    47   23   81 1    
    48   23   82 1    
    49   23   83 1    
    50   24   25 am   BACKBONE|DICT|INTERRES
    51   24   84 1    
    52   25   26 2    
    53   27   28 2    
    54   27   29 am   BACKBONE|DICT|INTERRES
    55   29   30 1    
    56   29   85 1    
    57   30   31 1    
    58   30   32 1    
    59   30   86 1    
    60   31   87 1    
    61   31   88 1    
    62   31   89 1    
    63   32   33 2    
    64   32   34 am   BACKBONE|DICT|INTERRES
    65   34   35 1    
    66   34   90 1    
    67   35   36 1    
    68   35   37 1    
    69   35   91 1    
    70   36   92 1    
    71   36   93 1    
    72   36   94 1    
    73   37   38 2    
    74   37   39 am   BACKBONE|DICT|INTERRES
    75   39   40 1    
    76   39   95 1    
    77   40   41 1    
    78   40   42 1    
    79   40   96 1    
    80   41   97 1    
    81   41   98 1    
    82   41   99 1    
    83   42   43 2    
    84   42   44 am   BACKBONE|DICT|INTERRES
    85   44   45 1    
    86   44  100 1    
    87   45   46 1    
    88   45   47 1    
    89   45  101 1    
    90   46  102 1    
    91   46  103 1    
    92   46  104 1    
    93   47   48 2    
    94   47   49 am   BACKBONE|DICT|INTERRES
    95   49   50 1    
    96   49  105 1    
    97   50   51 1    
    98   50   52 1    
    99   50  106 1    
   100   51  107 1    
   101   51  108 1    
   102   51  109 1    
   103   52   53 2    
   104   52   54 am   BACKBONE|DICT|INTERRES
   105   54   55 1    
   106   54  110 1    
   107   55   56 1    
   108   55   59 1    
   109   55  111 1    
   110   56   57 am   BACKBONE|DICT|INTERRES
   111   56   58 2    
   112   57  112 1    
   113   57  113 1    
   114   59   60 1    
   115   59  114 1    
   116   59  115 1    
   117   60   61 1    
   118   61  116 1    
   119   61  117 1    
@<TRIPOS>SUBSTRUCTURE
     1 UNK         1 GROUP             0       ****    0 ROOT    
