@<TRIPOS>MOLECULE
3R8
117   119    1
SMALL
USER_CHARGES


@<TRIPOS>ATOM
      1 CA         16.8242  -22.9809  -48.2737 C.3       0 UNK        -0.2013 
      2 C          17.4630  -24.3607  -48.2197 C.2       0 UNK         0.4866 
      3 O          17.5966  -25.0151  -49.2540 O.2       0 UNK        -0.5176 
      4 N          17.8607  -24.8058  -47.0243 N.am      1 UNK        -0.4884 
      5 CA         18.5346  -26.0772  -46.7656 C.3       1 UNK         0.0853 
      6 C6         17.5558  -27.2805  -46.7965 C.3       10 UNK        -0.0849 
      7 S7         18.3992  -28.8648  -47.1418 S.3       10 UNK        -0.2776 
      8 C8         17.4072  -30.0460  -46.1736 C.3       10 UNK         0.0316 
      9 C9         17.6560  -29.9161  -44.6779 C.ar      10 UNK        -0.0863 
     10 C10        18.7407  -30.5668  -44.0825 C.ar      10 UNK        -0.1009 
     11 C11        18.9485  -30.4793  -42.7025 C.ar      10 UNK        -0.0712 
     12 C12        18.0789  -29.7110  -41.9211 C.ar      10 UNK        -0.0894 
     13 C13        17.0116  -29.0267  -42.5105 C.ar      10 UNK        -0.0745 
     14 C14        16.7899  -29.1600  -43.8836 C.ar      10 UNK        -0.0972 
     15 C15        16.0883  -28.1447  -41.6792 C.3       10 UNK         0.0209 
     16 S16        16.1724  -26.3984  -42.2070 S.3       10 UNK        -0.2568 
     17 C17        17.3606  -25.6424  -41.0427 C.3       10 UNK        -0.0983 
     18 CA         18.7610  -26.3004  -41.0020 C.3       3 UNK         0.0876 
     19 N          19.3773  -26.4168  -42.3256 N.am      3 UNK        -0.4424 
     20 C          20.4932  -27.1074  -42.5856 C.2       2 UNK         0.4918 
     21 O          21.0799  -27.7763  -41.7302 O.2       2 UNK        -0.4875 
     22 CA         21.0782  -27.0163  -44.0121 C.3       2 UNK         0.0481 
     23 CB         22.0657  -28.1600  -44.2986 C.3       2 UNK        -0.1831 
     24 N          20.0956  -26.9746  -45.1005 N.am      2 UNK        -0.4498 
     25 C          19.3145  -25.9436  -45.4419 C.2       1 UNK         0.5027 
     26 O          19.2135  -24.9128  -44.7688 O.2       1 UNK        -0.4969 
     27 C          19.7035  -25.5323  -40.0541 C.2       3 UNK         0.5005 
     28 O          20.2984  -24.5343  -40.4691 O.2       3 UNK        -0.5279 
     29 N          19.8691  -26.0410  -38.8245 N.am      4 UNK        -0.4463 
     30 CA         20.8086  -25.6084  -37.7749 C.3       4 UNK         0.0283 
     31 CB         20.5765  -24.1418  -37.3603 C.3       4 UNK        -0.1875 
     32 C          22.2957  -25.8685  -38.0956 C.2       4 UNK         0.4949 
     33 O          23.0519  -26.1882  -37.1785 O.2       4 UNK        -0.5039 
     34 N          22.6905  -25.7570  -39.3715 N.am      5 UNK        -0.4663 
     35 CA         24.0253  -26.0864  -39.8815 C.3       5 UNK         0.0242 
     36 CB         24.1548  -25.5923  -41.3317 C.3       5 UNK        -0.1982 
     37 C          24.3421  -27.5894  -39.7918 C.2       5 UNK         0.5017 
     38 O          25.4806  -27.9478  -39.4907 O.2       5 UNK        -0.5012 
     39 N          23.3247  -28.4277  -40.0428 N.am      6 UNK        -0.4439 
     40 CA         23.3192  -29.8911  -39.9322 C.3       6 UNK         0.0297 
     41 CB         23.5765  -30.3425  -38.4793 C.3       6 UNK        -0.2006 
     42 C          24.2207  -30.6217  -40.9463 C.2       6 UNK         0.4892 
     43 O          24.5284  -31.7975  -40.7404 O.2       6 UNK        -0.5089 
     44 N          24.5958  -29.9471  -42.0429 N.am      7 UNK        -0.4243 
     45 CA         25.2991  -30.5470  -43.1799 C.3       7 UNK         0.0196 
     46 CB         25.7277  -29.4494  -44.1665 C.3       7 UNK        -0.2007 
     47 C          24.4098  -31.5940  -43.8703 C.2       7 UNK         0.5020 
     48 O          23.2072  -31.3689  -44.0095 O.2       7 UNK        -0.5147 
     49 N          25.0027  -32.7367  -44.2362 N.am      8 UNK        -0.4734 
     50 CA         24.3704  -33.9639  -44.7512 C.3       8 UNK         0.0238 
     51 CB         23.5596  -33.7068  -46.0378 C.3       8 UNK        -0.1912 
     52 C          23.5361  -34.7359  -43.7077 C.2       8 UNK         0.5038 
     53 O          23.5609  -35.9673  -43.7310 O.2       8 UNK        -0.5046 
     54 N          22.8410  -34.0271  -42.8082 N.am      9 UNK        -0.4200 
     55 CA         22.1332  -34.5952  -41.6503 C.3       9 UNK         0.0839 
     56 C          23.0888  -35.2499  -40.6150 C.2       9 UNK         0.5513 
     57 N          24.2093  -34.6220  -40.2810 N.am      9 UNK        -0.7519 
     58 O          22.8098  -36.3359  -40.1137 O.2       9 UNK        -0.4960 
     59 C59        21.2141  -33.5595  -40.9537 C.3       10 UNK        -0.0876 
     60 S60        19.8421  -33.0008  -42.0173 S.3       10 UNK        -0.2414 
     61 C61        20.1185  -31.2039  -42.0562 C.3       10 UNK         0.0169 
     62 H62        17.4035  -22.3240  -48.9220 H         1 UNK         0.0903 
     63 H63        15.8134  -23.0510  -48.6749 H         1 UNK         0.0903 
     64 H64        16.7661  -22.5196  -47.2879 H         1 UNK         0.0903 
     65 H65        17.7960  -24.2145  -46.2030 H         1 UNK         0.3096 
     66 H66        19.2824  -26.2081  -47.5518 H         1 UNK         0.1121 
     67 H67        16.9806  -27.3260  -45.8732 H         1 UNK         0.0849 
     68 H68        16.8191  -27.1479  -47.5902 H         1 UNK         0.0849 
     69 H69        16.3491  -29.9086  -46.4028 H         1 UNK         0.0865 
     70 H70        17.6549  -31.0586  -46.4955 H         1 UNK         0.0865 
     71 H71        19.4166  -31.1554  -44.6882 H         1 UNK         0.1346 
     72 H72        18.2438  -29.6369  -40.8555 H         1 UNK         0.1412 
     73 H73        15.9455  -28.6559  -44.3331 H         1 UNK         0.1426 
     74 H74        16.3088  -28.2251  -40.6138 H         1 UNK         0.0716 
     75 H75        15.0636  -28.4970  -41.8054 H         1 UNK         0.0716 
     76 H76        16.9087  -25.6570  -40.0491 H         1 UNK         0.0695 
     77 H77        17.4491  -24.5891  -41.3168 H         1 UNK         0.0695 
     78 H78        18.6510  -27.3107  -40.6089 H         1 UNK         0.0983 
     79 H79        18.9958  -25.8339  -43.0621 H         1 UNK         0.3095 
     80 H80        21.6430  -26.0828  -44.0462 H         1 UNK         0.0454 
     81 H81        21.5738  -29.1328  -44.2623 H         1 UNK         0.0851 
     82 H82        22.8702  -28.1758  -43.5647 H         1 UNK         0.0851 
     83 H83        22.5292  -28.0543  -45.2792 H         1 UNK         0.0851 
     84 H84        20.0345  -27.8081  -45.6713 H         1 UNK         0.2976 
     85 H85        19.3499  -26.8775  -38.5934 H         1 UNK         0.3116 
     86 H86        20.5725  -26.2275  -36.9077 H         1 UNK         0.0646 
     87 H87        19.5362  -23.9653  -37.0874 H         1 UNK         0.0847 
     88 H88        21.1867  -23.8845  -36.4937 H         1 UNK         0.0847 
     89 H89        20.8392  -23.4427  -38.1546 H         1 UNK         0.0847 
     90 H90        22.0015  -25.4258  -40.0399 H         1 UNK         0.3040 
     91 H91        24.7593  -25.5578  -39.2691 H         1 UNK         0.1015 
     92 H92        23.4269  -26.0678  -41.9894 H         1 UNK         0.0786 
     93 H93        25.1468  -25.8089  -41.7309 H         1 UNK         0.0786 
     94 H94        24.0091  -24.5138  -41.3966 H         1 UNK         0.0786 
     95 H95        22.4534  -28.0231  -40.3786 H         1 UNK         0.3172 
     96 H96        22.3024  -30.1894  -40.1830 H         1 UNK         0.0595 
     97 H97        24.6033  -30.1455  -38.1703 H         1 UNK         0.0839 
     98 H98        23.4046  -31.4136  -38.3647 H         1 UNK         0.0839 
     99 H99        22.9120  -29.8330  -37.7814 H         1 UNK         0.0839 
    100 H100       24.2790  -28.9959  -42.1459 H         1 UNK         0.2998 
    101 H101       26.1958  -31.0367  -42.7940 H         1 UNK         0.0822 
    102 H102       26.3257  -29.8699  -44.9761 H         1 UNK         0.0787 
    103 H103       24.8716  -28.9543  -44.6240 H         1 UNK         0.0787 
    104 H104       26.3361  -28.6886  -43.6770 H         1 UNK         0.0787 
    105 H105       25.9941  -32.8224  -44.0543 H         1 UNK         0.3055 
    106 H106       25.1981  -34.6225  -45.0210 H         1 UNK         0.1106 
    107 H107       24.1575  -33.1895  -46.7880 H         1 UNK         0.0828 
    108 H108       23.2286  -34.6477  -46.4792 H         1 UNK         0.0828 
    109 H109       22.6660  -33.1111  -45.8501 H         1 UNK         0.0828 
    110 H110       22.8466  -33.0178  -42.8970 H         1 UNK         0.2931 
    111 H111       21.4929  -35.3931  -42.0324 H         1 UNK         0.0412 
    112 H112       24.8326  -35.0467  -39.6134 H         1 UNK         0.3472 
    113 H113       24.3981  -33.6817  -40.6193 H         1 UNK         0.3472 
    114 H114       20.7635  -33.9926  -40.0583 H         1 UNK         0.0970 
    115 H115       21.7984  -32.7048  -40.6095 H         1 UNK         0.0970 
    116 H116       21.0371  -30.9811  -42.5984 H         1 UNK         0.0612 
    117 H117       20.2605  -30.8439  -41.0370 H         1 UNK         0.0612 
@<TRIPOS>BOND
     1    1    2 1    
     2    1   62 1    
     3    1   63 1    
     4    1   64 1    
     5    2    3 2    
     6    2    4 am   BACKBONE|DICT|INTERRES
     7    4    5 1    
     8    4   65 1    
     9    5    6 1    
    10    5   25 1    
    11    5   66 1    
    12    6    7 1    
    13    6   67 1    
    14    6   68 1    
    15    7    8 1    
    16    8    9 1    
    17    8   69 1    
    18    8   70 1    
    19    9   10 ar   
    20    9   14 ar   
    21   10   11 ar   
    22   10   71 1    
    23   11   12 ar   
    24   11   61 1    
    25   12   13 ar   
    26   12   72 1    
    27   13   14 ar   
    28   13   15 1    
    29   14   73 1    
    30   15   16 1    
    31   15   74 1    
    32   15   75 1    
    33   16   17 1    
    34   17   18 1    
    35   17   76 1    
    36   17   77 1    
    37   18   19 1    
    38   18   27 1    
    39   18   78 1    
    40   19   20 am   BACKBONE|DICT|INTERRES
    41   19   79 1    
    42   20   21 2    
    43   20   22 1    
    44   22   23 1    
    45   22   24 1    
    46   22   80 1    
    47   23   81 1    
    48   23   82 1    
    49   23   83 1    
    50   24   25 am   BACKBONE|DICT|INTERRES
    51   24   84 1    
    52   25   26 2    
    53   27   28 2    
    54   27   29 am   BACKBONE|DICT|INTERRES
    55   29   30 1    
    56   29   85 1    
    57   30   31 1    
    58   30   32 1    
    59   30   86 1    
    60   31   87 1    
    61   31   88 1    
    62   31   89 1    
    63   32   33 2    
    64   32   34 am   BACKBONE|DICT|INTERRES
    65   34   35 1    
    66   34   90 1    
    67   35   36 1    
    68   35   37 1    
    69   35   91 1    
    70   36   92 1    
    71   36   93 1    
    72   36   94 1    
    73   37   38 2    
    74   37   39 am   BACKBONE|DICT|INTERRES
    75   39   40 1    
    76   39   95 1    
    77   40   41 1    
    78   40   42 1    
    79   40   96 1    
    80   41   97 1    
    81   41   98 1    
    82   41   99 1    
    83   42   43 2    
    84   42   44 am   BACKBONE|DICT|INTERRES
    85   44   45 1    
    86   44  100 1    
    87   45   46 1    
    88   45   47 1    
    89   45  101 1    
    90   46  102 1    
    91   46  103 1    
    92   46  104 1    
    93   47   48 2    
    94   47   49 am   BACKBONE|DICT|INTERRES
    95   49   50 1    
    96   49  105 1    
    97   50   51 1    
    98   50   52 1    
    99   50  106 1    
   100   51  107 1    
   101   51  108 1    
   102   51  109 1    
   103   52   53 2    
   104   52   54 am   BACKBONE|DICT|INTERRES
   105   54   55 1    
   106   54  110 1    
   107   55   56 1    
   108   55   59 1    
   109   55  111 1    
   110   56   57 am   BACKBONE|DICT|INTERRES
   111   56   58 2    
   112   57  112 1    
   113   57  113 1    
   114   59   60 1    
   115   59  114 1    
   116   59  115 1    
   117   60   61 1    
   118   61  116 1    
   119   61  117 1    
@<TRIPOS>SUBSTRUCTURE
     1 UNK         1 GROUP             0       ****    0 ROOT    
