@<TRIPOS>MOLECULE
3R8
117   119    1
SMALL
USER_CHARGES


@<TRIPOS>ATOM
      1 CA         19.4129  -24.4495  -39.5729 C.3       0 UNK        -0.2013 
      2 C          18.9711  -24.3212  -41.0234 C.2       0 UNK         0.4866 
      3 O          19.1439  -23.2607  -41.6259 O.2       0 UNK        -0.5176 
      4 N          18.3956  -25.3912  -41.5858 N.am      1 UNK        -0.4884 
      5 CA         18.0124  -25.5082  -42.9976 C.3       1 UNK         0.0853 
      6 C6         17.0762  -26.7209  -43.2578 C.3       10 UNK        -0.0849 
      7 S7         17.5270  -28.2446  -42.3531 S.3       10 UNK        -0.2776 
      8 C8         16.2993  -29.4224  -43.0024 C.3       10 UNK         0.0316 
      9 C9         16.9298  -30.3222  -44.0508 C.ar      10 UNK        -0.0863 
     10 C10        17.6206  -31.4681  -43.6491 C.ar      10 UNK        -0.1009 
     11 C11        18.2690  -32.2741  -44.5876 C.ar      10 UNK        -0.0712 
     12 C12        18.2022  -31.9390  -45.9433 C.ar      10 UNK        -0.0894 
     13 C13        17.5100  -30.7943  -46.3584 C.ar      10 UNK        -0.0745 
     14 C14        16.8640  -29.9960  -45.4086 C.ar      10 UNK        -0.0972 
     15 C15        17.5367  -30.3748  -47.8240 C.3       10 UNK         0.0209 
     16 S16        18.5688  -28.8905  -48.1093 S.3       10 UNK        -0.2568 
     17 C17        20.0912  -29.3153  -47.1937 C.3       10 UNK        -0.0983 
     18 CA         21.0984  -28.1539  -46.9925 C.3       3 UNK         0.0876 
     19 N          20.4468  -26.8992  -46.6007 N.am      3 UNK        -0.4424 
     20 C          21.0655  -25.7146  -46.5181 C.2       2 UNK         0.4918 
     21 O          22.2424  -25.5335  -46.8317 O.2       2 UNK        -0.4875 
     22 CA         20.2447  -24.5252  -45.9888 C.3       2 UNK         0.0481 
     23 CB         19.6911  -23.7019  -47.1626 C.3       2 UNK        -0.1831 
     24 N          19.1444  -24.8581  -45.0733 N.am      2 UNK        -0.4498 
     25 C          19.2567  -25.5179  -43.9103 C.2       1 UNK         0.5027 
     26 O          20.2786  -26.1066  -43.5480 O.2       1 UNK        -0.4969 
     27 C          22.1382  -28.6053  -45.9445 C.2       3 UNK         0.5005 
     28 O          23.1794  -29.1559  -46.3070 O.2       3 UNK        -0.5279 
     29 N          21.7905  -28.4097  -44.6655 N.am      4 UNK        -0.4463 
     30 CA         22.5041  -28.9287  -43.5057 C.3       4 UNK         0.0283 
     31 CB         21.4674  -29.3810  -42.4636 C.3       4 UNK        -0.1875 
     32 C          23.4396  -27.8729  -42.9084 C.2       4 UNK         0.4949 
     33 O          24.5796  -28.1989  -42.5770 O.2       4 UNK        -0.5039 
     34 N          22.9415  -26.6344  -42.7741 N.am      5 UNK        -0.4663 
     35 CA         23.5824  -25.4853  -42.1288 C.3       5 UNK         0.0242 
     36 CB         24.7648  -24.9668  -42.9783 C.3       5 UNK        -0.1982 
     37 C          23.9492  -25.7969  -40.6645 C.2       5 UNK         0.5017 
     38 O          23.0806  -25.7047  -39.7965 O.2       5 UNK        -0.5012 
     39 N          25.2128  -26.1696  -40.4229 N.am      6 UNK        -0.4439 
     40 CA         25.7314  -26.5860  -39.1185 C.3       6 UNK         0.0297 
     41 CB         27.2476  -26.3280  -39.0821 C.3       6 UNK        -0.2006 
     42 C          25.4308  -28.0594  -38.7771 C.2       6 UNK         0.4892 
     43 O          25.5179  -28.4200  -37.6019 O.2       6 UNK        -0.5089 
     44 N          25.1164  -28.8904  -39.7830 N.am      7 UNK        -0.4243 
     45 CA         24.7890  -30.3102  -39.6132 C.3       7 UNK         0.0196 
     46 CB         25.0076  -31.0420  -40.9504 C.3       7 UNK        -0.2007 
     47 C          23.3516  -30.5179  -39.1002 C.2       7 UNK         0.5020 
     48 O          22.5531  -29.5786  -39.0724 O.2       7 UNK        -0.5147 
     49 N          23.0407  -31.7648  -38.7287 N.am      8 UNK        -0.4734 
     50 CA         21.7312  -32.1892  -38.2321 C.3       8 UNK         0.0238 
     51 CB         21.7600  -32.2475  -36.6906 C.3       8 UNK        -0.1912 
     52 C          21.3510  -33.5287  -38.8803 C.2       8 UNK         0.5038 
     53 O          21.2207  -34.5382  -38.1832 O.2       8 UNK        -0.5046 
     54 N          21.2074  -33.5184  -40.2131 N.am      9 UNK        -0.4200 
     55 CA         20.7699  -34.6730  -41.0192 C.3       9 UNK         0.0839 
     56 C          19.2746  -35.0755  -40.8435 C.2       9 UNK         0.5513 
     57 N          18.4276  -34.2559  -40.2284 N.am      9 UNK        -0.7519 
     58 O          18.8796  -36.1578  -41.2703 O.2       9 UNK        -0.4960 
     59 C59        21.1601  -34.5229  -42.5177 C.3       10 UNK        -0.0876 
     60 S60        20.5972  -32.9620  -43.2840 S.3       10 UNK        -0.2414 
     61 C61        19.0643  -33.4829  -44.1186 C.3       10 UNK         0.0169 
     62 H62        19.1466  -25.4187  -39.1494 H         1 UNK         0.0903 
     63 H63        20.4946  -24.3356  -39.5014 H         1 UNK         0.0903 
     64 H64        18.9455  -23.6734  -38.9660 H         1 UNK         0.0903 
     65 H65        18.3046  -26.2488  -41.0579 H         1 UNK         0.3096 
     66 H66        17.4480  -24.6047  -43.2416 H         1 UNK         0.1121 
     67 H67        17.0013  -26.9428  -44.3246 H         1 UNK         0.0849 
     68 H68        16.0654  -26.4527  -42.9459 H         1 UNK         0.0849 
     69 H69        15.9199  -30.0276  -42.1773 H         1 UNK         0.0865 
     70 H70        15.4360  -28.8955  -43.4119 H         1 UNK         0.0865 
     71 H71        17.6875  -31.7152  -42.5979 H         1 UNK         0.1346 
     72 H72        18.7218  -32.5474  -46.6710 H         1 UNK         0.1412 
     73 H73        16.3499  -29.0985  -45.7244 H         1 UNK         0.1426 
     74 H74        17.9110  -31.1874  -48.4487 H         1 UNK         0.0716 
     75 H75        16.5199  -30.1721  -48.1627 H         1 UNK         0.0716 
     76 H76        20.5746  -30.1516  -47.7024 H         1 UNK         0.0695 
     77 H77        19.7929  -29.6901  -46.2144 H         1 UNK         0.0695 
     78 H78        21.6210  -27.9786  -47.9357 H         1 UNK         0.0983 
     79 H79        19.4673  -26.9568  -46.3646 H         1 UNK         0.3095 
     80 H80        20.9356  -23.8906  -45.4303 H         1 UNK         0.0454 
     81 H81        18.9567  -24.2652  -47.7395 H         1 UNK         0.0851 
     82 H82        20.4887  -23.4113  -47.8479 H         1 UNK         0.0851 
     83 H83        19.2166  -22.7832  -46.8171 H         1 UNK         0.0851 
     84 H84        18.2549  -24.4330  -45.2937 H         1 UNK         0.2976 
     85 H85        20.9601  -27.8626  -44.4692 H         1 UNK         0.3116 
     86 H86        23.0983  -29.7975  -43.7973 H         1 UNK         0.0646 
     87 H87        20.7273  -30.0500  -42.9021 H         1 UNK         0.0847 
     88 H88        20.9266  -28.5391  -42.0279 H         1 UNK         0.0847 
     89 H89        21.9459  -29.9192  -41.6475 H         1 UNK         0.0847 
     90 H90        21.9746  -26.4806  -43.0580 H         1 UNK         0.3040 
     91 H91        22.8312  -24.6940  -42.0939 H         1 UNK         0.1015 
     92 H92        25.5267  -25.7273  -43.1500 H         1 UNK         0.0786 
     93 H93        25.2487  -24.1149  -42.4983 H         1 UNK         0.0786 
     94 H94        24.4184  -24.6290  -43.9555 H         1 UNK         0.0786 
     95 H95        25.8357  -26.2597  -41.2135 H         1 UNK         0.3172 
     96 H96        25.2668  -25.9709  -38.3442 H         1 UNK         0.0595 
     97 H97        27.7766  -26.9153  -39.8344 H         1 UNK         0.0839 
     98 H98        27.6654  -26.5930  -38.1096 H         1 UNK         0.0839 
     99 H99        27.4764  -25.2759  -39.2538 H         1 UNK         0.0839 
    100 H100       25.0145  -28.5144  -40.7216 H         1 UNK         0.2998 
    101 H101       25.4738  -30.7345  -38.8749 H         1 UNK         0.0822 
    102 H102       26.0059  -30.8539  -41.3478 H         1 UNK         0.0787 
    103 H103       24.9085  -32.1221  -40.8330 H         1 UNK         0.0787 
    104 H104       24.2857  -30.7323  -41.7058 H         1 UNK         0.0787 
    105 H105       23.7380  -32.4933  -38.8140 H         1 UNK         0.3055 
    106 H106       20.9604  -31.4718  -38.5279 H         1 UNK         0.1106 
    107 H107       22.5149  -32.9467  -36.3259 H         1 UNK         0.0828 
    108 H108       20.7959  -32.5678  -36.2914 H         1 UNK         0.0828 
    109 H109       21.9763  -31.2679  -36.2631 H         1 UNK         0.0828 
    110 H110       21.3365  -32.6537  -40.7201 H         1 UNK         0.2931 
    111 H111       21.3325  -35.5335  -40.6484 H         1 UNK         0.0412 
    112 H112       18.7377  -33.3638  -39.8795 H         1 UNK         0.3472 
    113 H113       17.4649  -34.5342  -40.1171 H         1 UNK         0.3472 
    114 H114       20.8081  -35.3734  -43.1056 H         1 UNK         0.0970 
    115 H115       22.2476  -34.5496  -42.6042 H         1 UNK         0.0970 
    116 H116       18.4484  -34.0699  -43.4371 H         1 UNK         0.0612 
    117 H117       19.3139  -34.1359  -44.9562 H         1 UNK         0.0612 
@<TRIPOS>BOND
     1    1    2 1    
     2    1   62 1    
     3    1   63 1    
     4    1   64 1    
     5    2    3 2    
     6    2    4 am   BACKBONE|DICT|INTERRES
     7    4    5 1    
     8    4   65 1    
     9    5    6 1    
    10    5   25 1    
    11    5   66 1    
    12    6    7 1    
    13    6   67 1    
    14    6   68 1    
    15    7    8 1    
    16    8    9 1    
    17    8   69 1    
    18    8   70 1    
    19    9   10 ar   
    20    9   14 ar   
    21   10   11 ar   
    22   10   71 1    
    23   11   12 ar   
    24   11   61 1    
    25   12   13 ar   
    26   12   72 1    
    27   13   14 ar   
    28   13   15 1    
    29   14   73 1    
    30   15   16 1    
    31   15   74 1    
    32   15   75 1    
    33   16   17 1    
    34   17   18 1    
    35   17   76 1    
    36   17   77 1    
    37   18   19 1    
    38   18   27 1    
    39   18   78 1    
    40   19   20 am   BACKBONE|DICT|INTERRES
    41   19   79 1    
    42   20   21 2    
    43   20   22 1    
    44   22   23 1    
    45   22   24 1    
    46   22   80 1    
    47   23   81 1    
    48   23   82 1    
    49   23   83 1    
    50   24   25 am   BACKBONE|DICT|INTERRES
    51   24   84 1    
    52   25   26 2    
    53   27   28 2    
    54   27   29 am   BACKBONE|DICT|INTERRES
    55   29   30 1    
    56   29   85 1    
    57   30   31 1    
    58   30   32 1    
    59   30   86 1    
    60   31   87 1    
    61   31   88 1    
    62   31   89 1    
    63   32   33 2    
    64   32   34 am   BACKBONE|DICT|INTERRES
    65   34   35 1    
    66   34   90 1    
    67   35   36 1    
    68   35   37 1    
    69   35   91 1    
    70   36   92 1    
    71   36   93 1    
    72   36   94 1    
    73   37   38 2    
    74   37   39 am   BACKBONE|DICT|INTERRES
    75   39   40 1    
    76   39   95 1    
    77   40   41 1    
    78   40   42 1    
    79   40   96 1    
    80   41   97 1    
    81   41   98 1    
    82   41   99 1    
    83   42   43 2    
    84   42   44 am   BACKBONE|DICT|INTERRES
    85   44   45 1    
    86   44  100 1    
    87   45   46 1    
    88   45   47 1    
    89   45  101 1    
    90   46  102 1    
    91   46  103 1    
    92   46  104 1    
    93   47   48 2    
    94   47   49 am   BACKBONE|DICT|INTERRES
    95   49   50 1    
    96   49  105 1    
    97   50   51 1    
    98   50   52 1    
    99   50  106 1    
   100   51  107 1    
   101   51  108 1    
   102   51  109 1    
   103   52   53 2    
   104   52   54 am   BACKBONE|DICT|INTERRES
   105   54   55 1    
   106   54  110 1    
   107   55   56 1    
   108   55   59 1    
   109   55  111 1    
   110   56   57 am   BACKBONE|DICT|INTERRES
   111   56   58 2    
   112   57  112 1    
   113   57  113 1    
   114   59   60 1    
   115   59  114 1    
   116   59  115 1    
   117   60   61 1    
   118   61  116 1    
   119   61  117 1    
@<TRIPOS>SUBSTRUCTURE
     1 UNK         1 GROUP             0       ****    0 ROOT    
