@<TRIPOS>MOLECULE
3R8
117   119    1
SMALL
USER_CHARGES


@<TRIPOS>ATOM
      1 CA         17.2601  -23.0078  -41.2650 C.3       0 UNK        -0.2013 
      2 C          17.6631  -24.0446  -42.3021 C.2       0 UNK         0.4866 
      3 O          17.2442  -23.9550  -43.4563 O.2       0 UNK        -0.5176 
      4 N          18.4907  -25.0211  -41.9110 N.am      1 UNK        -0.4884 
      5 CA         18.9575  -26.1470  -42.7342 C.3       1 UNK         0.0853 
      6 C6         19.4086  -27.3409  -41.8526 C.3       10 UNK        -0.0849 
      7 S7         18.1464  -27.9554  -40.6793 S.3       10 UNK        -0.2776 
      8 C8         16.9685  -28.8795  -41.7290 C.3       10 UNK         0.0316 
      9 C9         17.6488  -29.7118  -42.8073 C.ar      10 UNK        -0.0863 
     10 C10        18.4047  -30.8375  -42.4694 C.ar      10 UNK        -0.1009 
     11 C11        19.0810  -31.5554  -43.4599 C.ar      10 UNK        -0.0712 
     12 C12        18.9867  -31.1474  -44.7941 C.ar      10 UNK        -0.0894 
     13 C13        18.2457  -30.0156  -45.1479 C.ar      10 UNK        -0.0745 
     14 C14        17.5554  -29.3218  -44.1459 C.ar      10 UNK        -0.0972 
     15 C15        18.2273  -29.5637  -46.6100 C.3       10 UNK         0.0209 
     16 S16        17.9870  -27.7650  -46.8203 S.3       10 UNK        -0.2568 
     17 C17        18.9991  -27.3804  -48.2942 C.3       10 UNK        -0.0983 
     18 CA         20.3838  -26.7536  -47.9644 C.3       3 UNK         0.0876 
     19 N          20.2728  -25.7468  -46.9089 N.am      3 UNK        -0.4424 
     20 C          21.1727  -24.8124  -46.5888 C.2       2 UNK         0.4918 
     21 O          22.2036  -24.6057  -47.2289 O.2       2 UNK        -0.4875 
     22 CA         20.8732  -23.9718  -45.3306 C.3       2 UNK         0.0481 
     23 CB         20.3734  -22.5737  -45.7273 C.3       2 UNK        -0.1831 
     24 N          19.9091  -24.5757  -44.3972 N.am      2 UNK        -0.4498 
     25 C          20.0597  -25.7397  -43.7477 C.2       1 UNK         0.5027 
     26 O          21.0250  -26.4789  -43.9380 O.2       1 UNK        -0.4969 
     27 C          21.4506  -27.8389  -47.6868 C.2       3 UNK         0.5005 
     28 O          21.8341  -28.5326  -48.6311 O.2       3 UNK        -0.5279 
     29 N          21.9139  -27.9892  -46.4370 N.am      4 UNK        -0.4463 
     30 CA         22.9167  -28.9785  -46.0400 C.3       4 UNK         0.0283 
     31 CB         22.2442  -30.3493  -45.8144 C.3       4 UNK        -0.1875 
     32 C          23.7060  -28.4602  -44.8262 C.2       4 UNK         0.4949 
     33 O          24.0598  -27.2799  -44.7928 O.2       4 UNK        -0.5039 
     34 N          23.9950  -29.3480  -43.8659 N.am      5 UNK        -0.4663 
     35 CA         24.5924  -29.0160  -42.5725 C.3       5 UNK         0.0242 
     36 CB         25.2030  -30.2917  -41.9671 C.3       5 UNK        -0.1982 
     37 C          23.5340  -28.4290  -41.6257 C.2       5 UNK         0.5017 
     38 O          22.3426  -28.6844  -41.8074 O.2       5 UNK        -0.5012 
     39 N          23.9862  -27.6911  -40.6032 N.am      6 UNK        -0.4439 
     40 CA         23.1538  -27.0414  -39.5841 C.3       6 UNK         0.0297 
     41 CB         24.0013  -25.9860  -38.8494 C.3       6 UNK        -0.2006 
     42 C          22.5037  -28.0507  -38.6145 C.2       6 UNK         0.4892 
     43 O          22.8915  -28.1232  -37.4481 O.2       6 UNK        -0.5089 
     44 N          21.5565  -28.8388  -39.1401 N.am      7 UNK        -0.4243 
     45 CA         20.7497  -29.8878  -38.5003 C.3       7 UNK         0.0196 
     46 CB         19.9381  -29.3274  -37.3152 C.3       7 UNK        -0.2007 
     47 C          21.5232  -31.1610  -38.1057 C.2       7 UNK         0.5020 
     48 O          20.8881  -32.1540  -37.7498 O.2       7 UNK        -0.5147 
     49 N          22.8600  -31.1501  -38.2093 N.am      8 UNK        -0.4734 
     50 CA         23.7515  -32.2757  -37.8984 C.3       8 UNK         0.0238 
     51 CB         25.2102  -31.7983  -37.9805 C.3       8 UNK        -0.1912 
     52 C          23.5375  -33.5115  -38.7923 C.2       8 UNK         0.5038 
     53 O          23.8480  -34.6253  -38.3686 O.2       8 UNK        -0.5046 
     54 N          22.9968  -33.2906  -39.9958 N.am      9 UNK        -0.4200 
     55 CA         22.5238  -34.3235  -40.9254 C.3       9 UNK         0.0839 
     56 C          21.1930  -35.0178  -40.5079 C.2       9 UNK         0.5513 
     57 N          20.4818  -34.5600  -39.4835 N.am      9 UNK        -0.7519 
     58 O          20.8025  -36.0049  -41.1256 O.2       9 UNK        -0.4960 
     59 C59        22.4757  -33.7923  -42.3837 C.3       10 UNK        -0.0876 
     60 S60        21.6007  -32.1988  -42.5706 S.3       10 UNK        -0.2414 
     61 C61        19.9455  -32.7479  -43.0859 C.3       10 UNK         0.0169 
     62 H62        16.1768  -22.9980  -41.1473 H         1 UNK         0.0903 
     63 H63        17.7049  -23.2106  -40.2910 H         1 UNK         0.0903 
     64 H64        17.5774  -22.0153  -41.5836 H         1 UNK         0.0903 
     65 H65        18.8095  -25.0362  -40.9524 H         1 UNK         0.3096 
     66 H66        18.1152  -26.4887  -43.3386 H         1 UNK         0.1121 
     67 H67        20.2753  -27.0443  -41.2613 H         1 UNK         0.0849 
     68 H68        19.7547  -28.1744  -42.4663 H         1 UNK         0.0849 
     69 H69        16.2717  -28.1685  -42.1755 H         1 UNK         0.0865 
     70 H70        16.3667  -29.5320  -41.0950 H         1 UNK         0.0865 
     71 H71        18.4945  -31.1338  -41.4332 H         1 UNK         0.1346 
     72 H72        19.5206  -31.6979  -45.5565 H         1 UNK         0.1412 
     73 H73        16.9640  -28.4535  -44.3985 H         1 UNK         0.1426 
     74 H74        17.4345  -30.0929  -47.1398 H         1 UNK         0.0716 
     75 H75        19.1667  -29.8500  -47.0851 H         1 UNK         0.0716 
     76 H76        18.4259  -26.6642  -48.8849 H         1 UNK         0.0695 
     77 H77        19.0906  -28.2629  -48.9308 H         1 UNK         0.0695 
     78 H78        20.7276  -26.2347  -48.8621 H         1 UNK         0.0983 
     79 H79        19.4537  -25.8353  -46.3249 H         1 UNK         0.3095 
     80 H80        21.8161  -23.8565  -44.7924 H         1 UNK         0.0454 
     81 H81        19.4134  -22.6205  -46.2430 H         1 UNK         0.0851 
     82 H82        21.0796  -22.0803  -46.3967 H         1 UNK         0.0851 
     83 H83        20.2553  -21.9311  -44.8547 H         1 UNK         0.0851 
     84 H84        19.0552  -24.0574  -44.2119 H         1 UNK         0.2976 
     85 H85        21.6029  -27.3633  -45.6977 H         1 UNK         0.3116 
     86 H86        23.6455  -29.0833  -46.8463 H         1 UNK         0.0646 
     87 H87        21.6575  -30.6551  -46.6803 H         1 UNK         0.0847 
     88 H88        21.5775  -30.3169  -44.9531 H         1 UNK         0.0847 
     89 H89        22.9794  -31.1359  -45.6416 H         1 UNK         0.0847 
     90 H90        23.6085  -30.2771  -43.9483 H         1 UNK         0.3040 
     91 H91        25.3818  -28.2764  -42.7247 H         1 UNK         0.1015 
     92 H92        25.9395  -30.7355  -42.6373 H         1 UNK         0.0786 
     93 H93        25.7138  -30.0741  -41.0286 H         1 UNK         0.0786 
     94 H94        24.4430  -31.0459  -41.7589 H         1 UNK         0.0786 
     95 H95        24.9837  -27.5645  -40.5068 H         1 UNK         0.3172 
     96 H96        22.3446  -26.5129  -40.0922 H         1 UNK         0.0595 
     97 H97        24.8561  -26.4335  -38.3406 H         1 UNK         0.0839 
     98 H98        23.4089  -25.4673  -38.0942 H         1 UNK         0.0839 
     99 H99        24.3779  -25.2287  -39.5373 H         1 UNK         0.0839 
    100 H100       21.4327  -28.7607  -40.1479 H         1 UNK         0.2998 
    101 H101       20.0357  -30.2032  -39.2630 H         1 UNK         0.0822 
    102 H102       19.3485  -28.4608  -37.6149 H         1 UNK         0.0787 
    103 H103       19.2417  -30.0746  -36.9325 H         1 UNK         0.0787 
    104 H104       20.5794  -29.0293  -36.4855 H         1 UNK         0.0787 
    105 H105       23.2980  -30.2770  -38.4655 H         1 UNK         0.3055 
    106 H106       23.5459  -32.5849  -36.8711 H         1 UNK         0.1106 
    107 H107       25.8987  -32.6008  -37.7117 H         1 UNK         0.0828 
    108 H108       25.3977  -30.9711  -37.2956 H         1 UNK         0.0828 
    109 H109       25.4720  -31.4695  -38.9864 H         1 UNK         0.0828 
    110 H110       22.7576  -32.3428  -40.2464 H         1 UNK         0.2931 
    111 H111       23.2700  -35.1204  -40.9133 H         1 UNK         0.0412 
    112 H112       20.7771  -33.7477  -38.9528 H         1 UNK         0.3472 
    113 H113       19.6287  -35.0331  -39.2318 H         1 UNK         0.3472 
    114 H114       23.4971  -33.6358  -42.7334 H         1 UNK         0.0970 
    115 H115       22.0547  -34.5348  -43.0644 H         1 UNK         0.0970 
    116 H116       19.4764  -33.3086  -42.2764 H         1 UNK         0.0612 
    117 H117       20.0328  -33.4314  -43.9318 H         1 UNK         0.0612 
@<TRIPOS>BOND
     1    1    2 1    
     2    1   62 1    
     3    1   63 1    
     4    1   64 1    
     5    2    3 2    
     6    2    4 am   BACKBONE|DICT|INTERRES
     7    4    5 1    
     8    4   65 1    
     9    5    6 1    
    10    5   25 1    
    11    5   66 1    
    12    6    7 1    
    13    6   67 1    
    14    6   68 1    
    15    7    8 1    
    16    8    9 1    
    17    8   69 1    
    18    8   70 1    
    19    9   10 ar   
    20    9   14 ar   
    21   10   11 ar   
    22   10   71 1    
    23   11   12 ar   
    24   11   61 1    
    25   12   13 ar   
    26   12   72 1    
    27   13   14 ar   
    28   13   15 1    
    29   14   73 1    
    30   15   16 1    
    31   15   74 1    
    32   15   75 1    
    33   16   17 1    
    34   17   18 1    
    35   17   76 1    
    36   17   77 1    
    37   18   19 1    
    38   18   27 1    
    39   18   78 1    
    40   19   20 am   BACKBONE|DICT|INTERRES
    41   19   79 1    
    42   20   21 2    
    43   20   22 1    
    44   22   23 1    
    45   22   24 1    
    46   22   80 1    
    47   23   81 1    
    48   23   82 1    
    49   23   83 1    
    50   24   25 am   BACKBONE|DICT|INTERRES
    51   24   84 1    
    52   25   26 2    
    53   27   28 2    
    54   27   29 am   BACKBONE|DICT|INTERRES
    55   29   30 1    
    56   29   85 1    
    57   30   31 1    
    58   30   32 1    
    59   30   86 1    
    60   31   87 1    
    61   31   88 1    
    62   31   89 1    
    63   32   33 2    
    64   32   34 am   BACKBONE|DICT|INTERRES
    65   34   35 1    
    66   34   90 1    
    67   35   36 1    
    68   35   37 1    
    69   35   91 1    
    70   36   92 1    
    71   36   93 1    
    72   36   94 1    
    73   37   38 2    
    74   37   39 am   BACKBONE|DICT|INTERRES
    75   39   40 1    
    76   39   95 1    
    77   40   41 1    
    78   40   42 1    
    79   40   96 1    
    80   41   97 1    
    81   41   98 1    
    82   41   99 1    
    83   42   43 2    
    84   42   44 am   BACKBONE|DICT|INTERRES
    85   44   45 1    
    86   44  100 1    
    87   45   46 1    
    88   45   47 1    
    89   45  101 1    
    90   46  102 1    
    91   46  103 1    
    92   46  104 1    
    93   47   48 2    
    94   47   49 am   BACKBONE|DICT|INTERRES
    95   49   50 1    
    96   49  105 1    
    97   50   51 1    
    98   50   52 1    
    99   50  106 1    
   100   51  107 1    
   101   51  108 1    
   102   51  109 1    
   103   52   53 2    
   104   52   54 am   BACKBONE|DICT|INTERRES
   105   54   55 1    
   106   54  110 1    
   107   55   56 1    
   108   55   59 1    
   109   55  111 1    
   110   56   57 am   BACKBONE|DICT|INTERRES
   111   56   58 2    
   112   57  112 1    
   113   57  113 1    
   114   59   60 1    
   115   59  114 1    
   116   59  115 1    
   117   60   61 1    
   118   61  116 1    
   119   61  117 1    
@<TRIPOS>SUBSTRUCTURE
     1 UNK         1 GROUP             0       ****    0 ROOT    
