@<TRIPOS>MOLECULE
3R8
117   119    1
SMALL
USER_CHARGES


@<TRIPOS>ATOM
      1 CA         20.5048  -28.1990  -40.9860 C.3       0 UNK        -0.2013 
      2 C          19.4996  -27.5702  -41.9340 C.2       0 UNK         0.4866 
      3 O          19.8398  -27.2705  -43.0796 O.2       0 UNK        -0.5176 
      4 N          18.2686  -27.3612  -41.4500 N.am      1 UNK        -0.4884 
      5 CA         17.1251  -26.8003  -42.1844 C.3       1 UNK         0.0853 
      6 C6         16.5562  -27.7742  -43.2591 C.3       10 UNK        -0.0849 
      7 S7         16.1509  -29.4176  -42.5657 S.3       10 UNK        -0.2776 
      8 C8         16.5546  -30.5511  -43.9391 C.3       10 UNK         0.0316 
      9 C9         18.0008  -30.4350  -44.4047 C.ar      10 UNK        -0.0863 
     10 C10        19.0517  -30.7956  -43.5551 C.ar      10 UNK        -0.1009 
     11 C11        20.3797  -30.6646  -43.9739 C.ar      10 UNK        -0.0712 
     12 C12        20.6500  -30.1890  -45.2595 C.ar      10 UNK        -0.0894 
     13 C13        19.6094  -29.8184  -46.1157 C.ar      10 UNK        -0.0745 
     14 C14        18.2867  -29.9522  -45.6862 C.ar      10 UNK        -0.0972 
     15 C15        19.9153  -29.2573  -47.4981 C.3       10 UNK         0.0209 
     16 S16        19.7219  -27.4450  -47.5638 S.3       10 UNK        -0.2568 
     17 C17        21.0569  -26.8965  -46.4477 C.3       10 UNK        -0.0983 
     18 CA         20.9000  -25.4308  -45.9721 C.3       3 UNK         0.0876 
     19 N          19.5909  -25.1772  -45.3642 N.am      3 UNK        -0.4424 
     20 C          19.0191  -23.9694  -45.2615 C.2       2 UNK         0.4918 
     21 O          19.5658  -22.9255  -45.6191 O.2       2 UNK        -0.4875 
     22 CA         17.5824  -23.9020  -44.7059 C.3       2 UNK         0.0481 
     23 CB         16.5859  -23.6365  -45.8464 C.3       2 UNK        -0.1831 
     24 N          17.1833  -25.1250  -44.0054 N.am      2 UNK        -0.4498 
     25 C          17.4630  -25.3875  -42.7212 C.2       1 UNK         0.5027 
     26 O          17.9880  -24.5683  -41.9626 O.2       1 UNK        -0.4969 
     27 C          22.0451  -25.0761  -45.0065 C.2       3 UNK         0.5005 
     28 O          23.0227  -24.4552  -45.4262 O.2       3 UNK        -0.5279 
     29 N          21.9066  -25.5113  -43.7432 N.am      4 UNK        -0.4463 
     30 CA         22.8943  -25.4413  -42.6576 C.3       4 UNK         0.0283 
     31 CB         23.1692  -23.9784  -42.2505 C.3       4 UNK        -0.1875 
     32 C          24.1822  -26.2360  -42.9640 C.2       4 UNK         0.4949 
     33 O          25.2671  -25.8444  -42.5319 O.2       4 UNK        -0.5039 
     34 N          24.0403  -27.3410  -43.7115 N.am      5 UNK        -0.4663 
     35 CA         25.1455  -28.1946  -44.1648 C.3       5 UNK         0.0242 
     36 CB         24.6598  -29.0520  -45.3449 C.3       5 UNK        -0.1982 
     37 C          25.7302  -29.0950  -43.0611 C.2       5 UNK         0.5017 
     38 O          26.8603  -29.5639  -43.2015 O.2       5 UNK        -0.5012 
     39 N          24.9549  -29.3250  -41.9981 N.am      6 UNK        -0.4439 
     40 CA         25.2867  -30.1136  -40.8172 C.3       6 UNK         0.0297 
     41 CB         25.2160  -31.6217  -41.1335 C.3       6 UNK        -0.2006 
     42 C          24.3036  -29.7149  -39.7082 C.2       6 UNK         0.4892 
     43 O          23.4685  -28.8319  -39.9211 O.2       6 UNK        -0.5089 
     44 N          24.4100  -30.3728  -38.5472 N.am      7 UNK        -0.4243 
     45 CA         23.5622  -30.1236  -37.3775 C.3       7 UNK         0.0196 
     46 CB         24.1631  -30.8404  -36.1569 C.3       7 UNK        -0.2007 
     47 C          22.0881  -30.5317  -37.5630 C.2       7 UNK         0.5020 
     48 O          21.2240  -29.9362  -36.9184 O.2       7 UNK        -0.5147 
     49 N          21.8211  -31.5336  -38.4136 N.am      8 UNK        -0.4734 
     50 CA         20.4730  -32.0624  -38.6566 C.3       8 UNK         0.0238 
     51 CB         20.0088  -32.9278  -37.4667 C.3       8 UNK        -0.1912 
     52 C          20.3463  -32.8568  -39.9645 C.2       8 UNK         0.5038 
     53 O          19.2566  -32.8661  -40.5358 O.2       8 UNK        -0.5046 
     54 N          21.4281  -33.5206  -40.4040 N.am      9 UNK        -0.4200 
     55 CA         21.4542  -34.4541  -41.5519 C.3       9 UNK         0.0839 
     56 C          20.6488  -35.7728  -41.3220 C.2       9 UNK         0.5513 
     57 N          20.3074  -36.1353  -40.0907 N.am      9 UNK        -0.7519 
     58 O          20.3570  -36.5025  -42.2663 O.2       9 UNK        -0.4960 
     59 C59        21.1229  -33.7850  -42.9215 C.3       10 UNK        -0.0876 
     60 S60        22.3580  -32.5445  -43.4304 S.3       10 UNK        -0.2414 
     61 C61        21.5264  -30.9809  -43.0255 C.3       10 UNK         0.0169 
     62 H62        21.4187  -28.4499  -41.5203 H         1 UNK         0.0903 
     63 H63        20.7632  -27.5088  -40.1838 H         1 UNK         0.0903 
     64 H64        20.1082  -29.1132  -40.5461 H         1 UNK         0.0903 
     65 H65        18.0753  -27.6058  -40.4891 H         1 UNK         0.3096 
     66 H66        16.3402  -26.6427  -41.4428 H         1 UNK         0.1121 
     67 H67        15.6408  -27.3744  -43.6988 H         1 UNK         0.0849 
     68 H68        17.2710  -27.8889  -44.0741 H         1 UNK         0.0849 
     69 H69        16.3682  -31.5760  -43.6154 H         1 UNK         0.0865 
     70 H70        15.8651  -30.3635  -44.7637 H         1 UNK         0.0865 
     71 H71        18.8324  -31.1525  -42.5581 H         1 UNK         0.1346 
     72 H72        21.6742  -30.0844  -45.5861 H         1 UNK         0.1412 
     73 H73        17.4820  -29.6598  -46.3470 H         1 UNK         0.1426 
     74 H74        19.2441  -29.7103  -48.2290 H         1 UNK         0.0716 
     75 H75        20.9274  -29.5223  -47.8083 H         1 UNK         0.0716 
     76 H76        21.0822  -27.5594  -45.5833 H         1 UNK         0.0695 
     77 H77        22.0077  -27.0312  -46.9672 H         1 UNK         0.0695 
     78 H78        20.9982  -24.7848  -46.8477 H         1 UNK         0.0983 
     79 H79        19.1066  -25.9873  -45.0040 H         1 UNK         0.3095 
     80 H80        17.5347  -23.0574  -44.0153 H         1 UNK         0.0454 
     81 H81        16.8299  -22.7114  -46.3706 H         1 UNK         0.0851 
     82 H82        16.5914  -24.4391  -46.5850 H         1 UNK         0.0851 
     83 H83        15.5684  -23.5327  -45.4691 H         1 UNK         0.0851 
     84 H84        16.7376  -25.8382  -44.5639 H         1 UNK         0.2976 
     85 H85        21.0648  -26.0477  -43.5268 H         1 UNK         0.3116 
     86 H86        22.4351  -25.9361  -41.8008 H         1 UNK         0.0646 
     87 H87        23.7852  -23.9320  -41.3517 H         1 UNK         0.0847 
     88 H88        22.2428  -23.4463  -42.0348 H         1 UNK         0.0847 
     89 H89        23.6966  -23.4316  -43.0326 H         1 UNK         0.0847 
     90 H90        23.1133  -27.5856  -44.0267 H         1 UNK         0.3040 
     91 H91        25.9520  -27.5484  -44.5190 H         1 UNK         0.1015 
     92 H92        24.2413  -28.4381  -46.1427 H         1 UNK         0.0786 
     93 H93        23.9023  -29.7712  -45.0339 H         1 UNK         0.0786 
     94 H94        25.4851  -29.6213  -45.7750 H         1 UNK         0.0786 
     95 H95        24.0760  -28.8288  -41.9149 H         1 UNK         0.3172 
     96 H96        26.2951  -29.8508  -40.4915 H         1 UNK         0.0595 
     97 H97        24.1911  -31.9462  -41.3070 H         1 UNK         0.0839 
     98 H98        25.6115  -32.2183  -40.3113 H         1 UNK         0.0839 
     99 H99        25.7999  -31.8785  -42.0174 H         1 UNK         0.0839 
    100 H100       25.1311  -31.0727  -38.4450 H         1 UNK         0.2998 
    101 H101       23.5757  -29.0491  -37.1801 H         1 UNK         0.0822 
    102 H102       25.1757  -30.4930  -35.9501 H         1 UNK         0.0787 
    103 H103       23.5692  -30.6506  -35.2615 H         1 UNK         0.0787 
    104 H104       24.1996  -31.9213  -36.2998 H         1 UNK         0.0787 
    105 H105       22.5848  -31.9280  -38.9409 H         1 UNK         0.3055 
    106 H106       19.7894  -31.2146  -38.7506 H         1 UNK         0.1106 
    107 H107       20.6999  -33.7484  -37.2707 H         1 UNK         0.0828 
    108 H108       19.9216  -32.3403  -36.5527 H         1 UNK         0.0828 
    109 H109       19.0269  -33.3642  -37.6570 H         1 UNK         0.0828 
    110 H110       22.2661  -33.5170  -39.8447 H         1 UNK         0.2931 
    111 H111       22.4895  -34.7921  -41.6120 H         1 UNK         0.0412 
    112 H112       19.7988  -36.9952  -39.9554 H         1 UNK         0.3472 
    113 H113       20.5520  -35.5648  -39.2984 H         1 UNK         0.3472 
    114 H114       20.1226  -33.3531  -42.9205 H         1 UNK         0.0970 
    115 H115       21.1113  -34.5316  -43.7172 H         1 UNK         0.0970 
    116 H116       22.2625  -30.1784  -43.0782 H         1 UNK         0.0612 
    117 H117       21.1823  -31.0048  -41.9924 H         1 UNK         0.0612 
@<TRIPOS>BOND
     1    1    2 1    
     2    1   62 1    
     3    1   63 1    
     4    1   64 1    
     5    2    3 2    
     6    2    4 am   BACKBONE|DICT|INTERRES
     7    4    5 1    
     8    4   65 1    
     9    5    6 1    
    10    5   25 1    
    11    5   66 1    
    12    6    7 1    
    13    6   67 1    
    14    6   68 1    
    15    7    8 1    
    16    8    9 1    
    17    8   69 1    
    18    8   70 1    
    19    9   10 ar   
    20    9   14 ar   
    21   10   11 ar   
    22   10   71 1    
    23   11   12 ar   
    24   11   61 1    
    25   12   13 ar   
    26   12   72 1    
    27   13   14 ar   
    28   13   15 1    
    29   14   73 1    
    30   15   16 1    
    31   15   74 1    
    32   15   75 1    
    33   16   17 1    
    34   17   18 1    
    35   17   76 1    
    36   17   77 1    
    37   18   19 1    
    38   18   27 1    
    39   18   78 1    
    40   19   20 am   BACKBONE|DICT|INTERRES
    41   19   79 1    
    42   20   21 2    
    43   20   22 1    
    44   22   23 1    
    45   22   24 1    
    46   22   80 1    
    47   23   81 1    
    48   23   82 1    
    49   23   83 1    
    50   24   25 am   BACKBONE|DICT|INTERRES
    51   24   84 1    
    52   25   26 2    
    53   27   28 2    
    54   27   29 am   BACKBONE|DICT|INTERRES
    55   29   30 1    
    56   29   85 1    
    57   30   31 1    
    58   30   32 1    
    59   30   86 1    
    60   31   87 1    
    61   31   88 1    
    62   31   89 1    
    63   32   33 2    
    64   32   34 am   BACKBONE|DICT|INTERRES
    65   34   35 1    
    66   34   90 1    
    67   35   36 1    
    68   35   37 1    
    69   35   91 1    
    70   36   92 1    
    71   36   93 1    
    72   36   94 1    
    73   37   38 2    
    74   37   39 am   BACKBONE|DICT|INTERRES
    75   39   40 1    
    76   39   95 1    
    77   40   41 1    
    78   40   42 1    
    79   40   96 1    
    80   41   97 1    
    81   41   98 1    
    82   41   99 1    
    83   42   43 2    
    84   42   44 am   BACKBONE|DICT|INTERRES
    85   44   45 1    
    86   44  100 1    
    87   45   46 1    
    88   45   47 1    
    89   45  101 1    
    90   46  102 1    
    91   46  103 1    
    92   46  104 1    
    93   47   48 2    
    94   47   49 am   BACKBONE|DICT|INTERRES
    95   49   50 1    
    96   49  105 1    
    97   50   51 1    
    98   50   52 1    
    99   50  106 1    
   100   51  107 1    
   101   51  108 1    
   102   51  109 1    
   103   52   53 2    
   104   52   54 am   BACKBONE|DICT|INTERRES
   105   54   55 1    
   106   54  110 1    
   107   55   56 1    
   108   55   59 1    
   109   55  111 1    
   110   56   57 am   BACKBONE|DICT|INTERRES
   111   56   58 2    
   112   57  112 1    
   113   57  113 1    
   114   59   60 1    
   115   59  114 1    
   116   59  115 1    
   117   60   61 1    
   118   61  116 1    
   119   61  117 1    
@<TRIPOS>SUBSTRUCTURE
     1 UNK         1 GROUP             0       ****    0 ROOT    
