@<TRIPOS>MOLECULE
3R8
117   119    1
SMALL
USER_CHARGES


@<TRIPOS>ATOM
      1 CA         15.6653  -24.3699  -39.2897 C.3       0 UNK        -0.2013 
      2 C          16.2667  -24.6668  -40.6554 C.2       0 UNK         0.4866 
      3 O          17.2406  -24.0237  -41.0482 O.2       0 UNK        -0.5176 
      4 N          15.6900  -25.6298  -41.3855 N.am      1 UNK        -0.4884 
      5 CA         16.1818  -26.0973  -42.6852 C.3       1 UNK         0.0853 
      6 C6         15.0779  -26.8715  -43.4476 C.3       10 UNK        -0.0849 
      7 S7         15.3288  -26.8645  -45.2555 S.3       10 UNK        -0.2776 
      8 C8         15.1790  -28.6322  -45.6701 C.3       10 UNK         0.0316 
      9 C9         16.5105  -29.3585  -45.5505 C.ar      10 UNK        -0.0863 
     10 C10        16.9002  -29.9367  -44.3399 C.ar      10 UNK        -0.1009 
     11 C11        18.1232  -30.6051  -44.2328 C.ar      10 UNK        -0.0712 
     12 C12        18.9533  -30.7127  -45.3540 C.ar      10 UNK        -0.0894 
     13 C13        18.5645  -30.1533  -46.5755 C.ar      10 UNK        -0.0745 
     14 C14        17.3473  -29.4713  -46.6640 C.ar      10 UNK        -0.0972 
     15 C15        19.4298  -30.3089  -47.8168 C.3       10 UNK         0.0209 
     16 S16        20.3817  -28.8007  -48.1809 S.3       10 UNK        -0.2568 
     17 C17        21.9302  -29.0856  -47.2632 C.3       10 UNK        -0.0983 
     18 CA         22.2256  -27.9692  -46.2322 C.3       3 UNK         0.0876 
     19 N          21.3676  -28.0579  -45.0540 N.am      3 UNK        -0.4424 
     20 C          20.4061  -27.1911  -44.7284 C.2       2 UNK         0.4918 
     21 O          20.0615  -26.2359  -45.4301 O.2       2 UNK        -0.4875 
     22 CA         19.7470  -27.4026  -43.3608 C.3       2 UNK         0.0481 
     23 CB         20.6444  -26.8714  -42.2270 C.3       2 UNK        -0.1831 
     24 N          18.4595  -26.7165  -43.3517 N.am      2 UNK        -0.4498 
     25 C          17.4583  -26.9432  -42.4965 C.2       1 UNK         0.5027 
     26 O          17.5020  -27.7803  -41.5907 O.2       1 UNK        -0.4969 
     27 C          23.6693  -28.0880  -45.7255 C.2       3 UNK         0.5005 
     28 O          23.9329  -28.9294  -44.8643 O.2       3 UNK        -0.5279 
     29 N          24.5740  -27.2631  -46.2706 N.am      4 UNK        -0.4463 
     30 CA         26.0153  -27.1690  -45.9876 C.3       4 UNK         0.0283 
     31 CB         26.7467  -28.4909  -46.2962 C.3       4 UNK        -0.1875 
     32 C          26.3698  -26.6561  -44.5783 C.2       4 UNK         0.4949 
     33 O          27.1825  -25.7377  -44.4673 O.2       4 UNK        -0.5039 
     34 N          25.7682  -27.2358  -43.5354 N.am      5 UNK        -0.4663 
     35 CA         25.9694  -26.8833  -42.1326 C.3       5 UNK         0.0242 
     36 CB         27.2422  -27.5685  -41.5994 C.3       5 UNK        -0.1982 
     37 C          24.7453  -27.3115  -41.3176 C.2       5 UNK         0.5017 
     38 O          24.0308  -28.2322  -41.7181 O.2       5 UNK        -0.5012 
     39 N          24.5588  -26.6789  -40.1514 N.am      6 UNK        -0.4439 
     40 CA         23.4661  -26.9432  -39.2039 C.3       6 UNK         0.0297 
     41 CB         23.4812  -25.8615  -38.1108 C.3       6 UNK        -0.2006 
     42 C          23.4794  -28.3511  -38.5712 C.2       6 UNK         0.4892 
     43 O          22.4819  -28.7454  -37.9676 O.2       6 UNK        -0.5089 
     44 N          24.5936  -29.0813  -38.7198 N.am      7 UNK        -0.4243 
     45 CA         24.7511  -30.4804  -38.3184 C.3       7 UNK         0.0196 
     46 CB         26.2506  -30.8212  -38.2940 C.3       7 UNK        -0.2007 
     47 C          23.9882  -31.4729  -39.2192 C.2       7 UNK         0.5020 
     48 O          23.8209  -32.6269  -38.8200 O.2       7 UNK        -0.5147 
     49 N          23.5542  -31.0373  -40.4128 N.am      8 UNK        -0.4734 
     50 CA         22.7577  -31.8364  -41.3482 C.3       8 UNK         0.0238 
     51 CB         22.5856  -31.0566  -42.6598 C.3       8 UNK        -0.1912 
     52 C          21.3855  -32.2205  -40.7672 C.2       8 UNK         0.5038 
     53 O          20.7876  -31.4292  -40.0349 O.2       8 UNK        -0.5046 
     54 N          20.9154  -33.4216  -41.1264 N.am      9 UNK        -0.4200 
     55 CA         19.6740  -34.0538  -40.6415 C.3       9 UNK         0.0839 
     56 C          19.7048  -34.4817  -39.1406 C.2       9 UNK         0.5513 
     57 N          20.8379  -34.4307  -38.4494 N.am      9 UNK        -0.7519 
     58 O          18.6876  -34.9062  -38.5981 O.2       9 UNK        -0.4960 
     59 C59        18.3833  -33.2579  -40.9976 C.3       10 UNK        -0.0876 
     60 S60        18.1741  -32.9611  -42.7878 S.3       10 UNK        -0.2414 
     61 C61        18.5507  -31.1858  -42.8953 C.3       10 UNK         0.0169 
     62 H62        15.3445  -23.3297  -39.2390 H         1 UNK         0.0903 
     63 H63        14.8027  -25.0012  -39.0771 H         1 UNK         0.0903 
     64 H64        16.4075  -24.5362  -38.5094 H         1 UNK         0.0903 
     65 H65        14.9165  -26.1499  -40.9957 H         1 UNK         0.3096 
     66 H66        16.4396  -25.2077  -43.2655 H         1 UNK         0.1121 
     67 H67        14.1097  -26.3974  -43.2773 H         1 UNK         0.0849 
     68 H68        14.9730  -27.8889  -43.0674 H         1 UNK         0.0849 
     69 H69        14.4236  -29.1076  -45.0424 H         1 UNK         0.0865 
     70 H70        14.8073  -28.7165  -46.6926 H         1 UNK         0.0865 
     71 H71        16.2583  -29.8575  -43.4736 H         1 UNK         0.1346 
     72 H72        19.8953  -31.2378  -45.2762 H         1 UNK         0.1412 
     73 H73        17.0488  -29.0329  -47.6069 H         1 UNK         0.1426 
     74 H74        18.7874  -30.5236  -48.6722 H         1 UNK         0.0716 
     75 H75        20.0962  -31.1679  -47.7254 H         1 UNK         0.0716 
     76 H76        22.7262  -29.1402  -48.0087 H         1 UNK         0.0695 
     77 H77        21.9093  -30.0617  -46.7749 H         1 UNK         0.0695 
     78 H78        22.1108  -26.9951  -46.7132 H         1 UNK         0.0983 
     79 H79        21.6559  -28.7620  -44.3888 H         1 UNK         0.3095 
     80 H80        19.5836  -28.4709  -43.2186 H         1 UNK         0.0454 
     81 H81        21.6179  -27.3602  -42.2378 H         1 UNK         0.0851 
     82 H82        20.2053  -27.0589  -41.2472 H         1 UNK         0.0851 
     83 H83        20.8160  -25.7983  -42.3181 H         1 UNK         0.0851 
     84 H84        18.3427  -26.0562  -44.1113 H         1 UNK         0.2976 
     85 H85        24.2414  -26.5956  -46.9538 H         1 UNK         0.3116 
     86 H86        26.3958  -26.4248  -46.6895 H         1 UNK         0.0646 
     87 H87        26.4419  -29.2956  -45.6266 H         1 UNK         0.0847 
     88 H88        26.5616  -28.8178  -47.3192 H         1 UNK         0.0847 
     89 H89        27.8252  -28.3719  -46.1843 H         1 UNK         0.0847 
     90 H90        25.0734  -27.9622  -43.7119 H         1 UNK         0.3040 
     91 H91        26.0731  -25.7989  -42.0504 H         1 UNK         0.1015 
     92 H92        27.4169  -27.3213  -40.5515 H         1 UNK         0.0786 
     93 H93        28.1262  -27.2522  -42.1536 H         1 UNK         0.0786 
     94 H94        27.1738  -28.6547  -41.6739 H         1 UNK         0.0786 
     95 H95        25.2086  -25.9506  -39.8893 H         1 UNK         0.3172 
     96 H96        22.5274  -26.8547  -39.7544 H         1 UNK         0.0595 
     97 H97        24.4059  -25.8840  -37.5328 H         1 UNK         0.0839 
     98 H98        22.6568  -26.0017  -37.4099 H         1 UNK         0.0839 
     99 H99        23.3724  -24.8635  -38.5359 H         1 UNK         0.0839 
    100 H100       25.3627  -28.6664  -39.2238 H         1 UNK         0.2998 
    101 H101       24.3560  -30.5924  -37.3064 H         1 UNK         0.0822 
    102 H102       26.4125  -31.8487  -37.9647 H         1 UNK         0.0787 
    103 H103       26.7945  -30.1737  -37.6059 H         1 UNK         0.0787 
    104 H104       26.7035  -30.7206  -39.2814 H         1 UNK         0.0787 
    105 H105       23.7163  -30.0704  -40.6720 H         1 UNK         0.3055 
    106 H106       23.3176  -32.7506  -41.5573 H         1 UNK         0.1106 
    107 H107       23.5532  -30.8318  -43.1080 H         1 UNK         0.0828 
    108 H108       22.0162  -31.6305  -43.3919 H         1 UNK         0.0828 
    109 H109       22.0639  -30.1123  -42.4998 H         1 UNK         0.0828 
    110 H110       21.4748  -33.9989  -41.7373 H         1 UNK         0.2931 
    111 H111       19.6185  -34.9978  -41.1847 H         1 UNK         0.0412 
    112 H112       21.6830  -34.0659  -38.8635 H         1 UNK         0.3472 
    113 H113       20.8385  -34.7252  -37.4855 H         1 UNK         0.3472 
    114 H114       17.5009  -33.8122  -40.6728 H         1 UNK         0.0970 
    115 H115       18.3483  -32.3146  -40.4510 H         1 UNK         0.0970 
    116 H116       19.6189  -31.0301  -42.7515 H         1 UNK         0.0612 
    117 H117       18.0516  -30.6525  -42.0845 H         1 UNK         0.0612 
@<TRIPOS>BOND
     1    1    2 1    
     2    1   62 1    
     3    1   63 1    
     4    1   64 1    
     5    2    3 2    
     6    2    4 am   BACKBONE|DICT|INTERRES
     7    4    5 1    
     8    4   65 1    
     9    5    6 1    
    10    5   25 1    
    11    5   66 1    
    12    6    7 1    
    13    6   67 1    
    14    6   68 1    
    15    7    8 1    
    16    8    9 1    
    17    8   69 1    
    18    8   70 1    
    19    9   10 ar   
    20    9   14 ar   
    21   10   11 ar   
    22   10   71 1    
    23   11   12 ar   
    24   11   61 1    
    25   12   13 ar   
    26   12   72 1    
    27   13   14 ar   
    28   13   15 1    
    29   14   73 1    
    30   15   16 1    
    31   15   74 1    
    32   15   75 1    
    33   16   17 1    
    34   17   18 1    
    35   17   76 1    
    36   17   77 1    
    37   18   19 1    
    38   18   27 1    
    39   18   78 1    
    40   19   20 am   BACKBONE|DICT|INTERRES
    41   19   79 1    
    42   20   21 2    
    43   20   22 1    
    44   22   23 1    
    45   22   24 1    
    46   22   80 1    
    47   23   81 1    
    48   23   82 1    
    49   23   83 1    
    50   24   25 am   BACKBONE|DICT|INTERRES
    51   24   84 1    
    52   25   26 2    
    53   27   28 2    
    54   27   29 am   BACKBONE|DICT|INTERRES
    55   29   30 1    
    56   29   85 1    
    57   30   31 1    
    58   30   32 1    
    59   30   86 1    
    60   31   87 1    
    61   31   88 1    
    62   31   89 1    
    63   32   33 2    
    64   32   34 am   BACKBONE|DICT|INTERRES
    65   34   35 1    
    66   34   90 1    
    67   35   36 1    
    68   35   37 1    
    69   35   91 1    
    70   36   92 1    
    71   36   93 1    
    72   36   94 1    
    73   37   38 2    
    74   37   39 am   BACKBONE|DICT|INTERRES
    75   39   40 1    
    76   39   95 1    
    77   40   41 1    
    78   40   42 1    
    79   40   96 1    
    80   41   97 1    
    81   41   98 1    
    82   41   99 1    
    83   42   43 2    
    84   42   44 am   BACKBONE|DICT|INTERRES
    85   44   45 1    
    86   44  100 1    
    87   45   46 1    
    88   45   47 1    
    89   45  101 1    
    90   46  102 1    
    91   46  103 1    
    92   46  104 1    
    93   47   48 2    
    94   47   49 am   BACKBONE|DICT|INTERRES
    95   49   50 1    
    96   49  105 1    
    97   50   51 1    
    98   50   52 1    
    99   50  106 1    
   100   51  107 1    
   101   51  108 1    
   102   51  109 1    
   103   52   53 2    
   104   52   54 am   BACKBONE|DICT|INTERRES
   105   54   55 1    
   106   54  110 1    
   107   55   56 1    
   108   55   59 1    
   109   55  111 1    
   110   56   57 am   BACKBONE|DICT|INTERRES
   111   56   58 2    
   112   57  112 1    
   113   57  113 1    
   114   59   60 1    
   115   59  114 1    
   116   59  115 1    
   117   60   61 1    
   118   61  116 1    
   119   61  117 1    
@<TRIPOS>SUBSTRUCTURE
     1 UNK         1 GROUP             0       ****    0 ROOT    
