@<TRIPOS>MOLECULE
3R8
117   119    1
SMALL
USER_CHARGES


@<TRIPOS>ATOM
      1 CA         15.7053  -24.9321  -41.8030 C.3       0 UNK        -0.2013 
      2 C          15.0286  -24.1570  -42.9310 C.2       0 UNK         0.4866 
      3 O          14.1707  -23.3274  -42.6350 O.2       0 UNK        -0.5176 
      4 N          15.3423  -24.3499  -44.2233 N.am      1 UNK        -0.4884 
      5 CA         16.3251  -25.2267  -44.8816 C.3       1 UNK         0.0853 
      6 C6         15.7385  -26.5815  -45.3718 C.3       10 UNK        -0.0849 
      7 S7         15.1778  -27.7518  -44.0866 S.3       10 UNK        -0.2776 
      8 C8         15.6306  -29.3538  -44.8256 C.3       10 UNK         0.0316 
      9 C9         17.1262  -29.6295  -44.7424 C.ar      10 UNK        -0.0863 
     10 C10        17.6795  -30.1319  -43.5621 C.ar      10 UNK        -0.1009 
     11 C11        19.0398  -30.4488  -43.4905 C.ar      10 UNK        -0.0712 
     12 C12        19.8582  -30.2327  -44.6049 C.ar      10 UNK        -0.0894 
     13 C13        19.3159  -29.7287  -45.7929 C.ar      10 UNK        -0.0745 
     14 C14        17.9497  -29.4353  -45.8552 C.ar      10 UNK        -0.0972 
     15 C15        20.1788  -29.5673  -47.0376 C.3       10 UNK         0.0209 
     16 S16        20.3598  -27.8268  -47.5480 S.3       10 UNK        -0.2568 
     17 C17        21.8770  -27.3180  -46.6709 C.3       10 UNK        -0.0983 
     18 CA         21.7041  -25.9698  -45.9165 C.3       3 UNK         0.0876 
     19 N          20.6405  -26.0287  -44.9012 N.am      3 UNK        -0.4424 
     20 C          20.6243  -26.7709  -43.7857 C.2       2 UNK         0.4918 
     21 O          21.5891  -27.4264  -43.3933 O.2       2 UNK        -0.4875 
     22 CA         19.3339  -26.7807  -42.9463 C.3       2 UNK         0.0481 
     23 CB         19.4924  -25.9126  -41.6834 C.3       2 UNK        -0.1831 
     24 N          18.0993  -26.4557  -43.6793 N.am      2 UNK        -0.4498 
     25 C          17.7079  -25.2826  -44.1968 C.2       1 UNK         0.5027 
     26 O          18.3996  -24.2640  -44.1731 O.2       1 UNK        -0.4969 
     27 C          23.0517  -25.4355  -45.3704 C.2       3 UNK         0.5005 
     28 O          24.0929  -25.6650  -45.9886 O.2       3 UNK        -0.5279 
     29 N          23.0138  -24.7549  -44.2116 N.am      4 UNK        -0.4463 
     30 CA         24.1535  -24.3396  -43.3815 C.3       4 UNK         0.0283 
     31 CB         24.9874  -23.2512  -44.0904 C.3       4 UNK        -0.1875 
     32 C          25.0155  -25.5251  -42.8897 C.2       4 UNK         0.4949 
     33 O          26.1999  -25.3409  -42.6052 O.2       4 UNK        -0.5039 
     34 N          24.4132  -26.7181  -42.7934 N.am      5 UNK        -0.4663 
     35 CA         25.0706  -27.9735  -42.4401 C.3       5 UNK         0.0242 
     36 CB         25.6449  -28.6331  -43.7100 C.3       5 UNK        -0.1982 
     37 C          24.0792  -28.8744  -41.6922 C.2       5 UNK         0.5017 
     38 O          23.9368  -30.0500  -42.0308 O.2       5 UNK        -0.5012 
     39 N          23.4105  -28.3048  -40.6768 N.am      6 UNK        -0.4439 
     40 CA         22.3709  -28.9509  -39.8623 C.3       6 UNK         0.0297 
     41 CB         21.8710  -27.9639  -38.7954 C.3       6 UNK        -0.2006 
     42 C          22.8068  -30.2686  -39.1949 C.2       6 UNK         0.4892 
     43 O          21.9728  -31.1537  -39.0066 O.2       6 UNK        -0.5089 
     44 N          24.1089  -30.3909  -38.8966 N.am      7 UNK        -0.4243 
     45 CA         24.7581  -31.5922  -38.3661 C.3       7 UNK         0.0196 
     46 CB         26.2357  -31.2806  -38.0799 C.3       7 UNK        -0.2007 
     47 C          24.6378  -32.8306  -39.2742 C.2       7 UNK         0.5020 
     48 O          24.6834  -33.9481  -38.7597 O.2       7 UNK        -0.5147 
     49 N          24.4411  -32.6339  -40.5883 N.am      8 UNK        -0.4734 
     50 CA         24.1731  -33.7095  -41.5513 C.3       8 UNK         0.0238 
     51 CB         24.2375  -33.1485  -42.9811 C.3       8 UNK        -0.1912 
     52 C          22.8246  -34.4154  -41.3143 C.2       8 UNK         0.5038 
     53 O          22.6782  -35.5730  -41.7087 O.2       8 UNK        -0.5046 
     54 N          21.8849  -33.7192  -40.6622 N.am      9 UNK        -0.4200 
     55 CA         20.5988  -34.2551  -40.1998 C.3       9 UNK         0.0839 
     56 C          20.6587  -34.8358  -38.7555 C.2       9 UNK         0.5513 
     57 N          21.8069  -34.8790  -38.0880 N.am      9 UNK        -0.7519 
     58 O          19.6401  -35.2792  -38.2312 O.2       9 UNK        -0.4960 
     59 C59        19.4663  -33.2072  -40.3576 C.3       10 UNK        -0.0876 
     60 S60        19.1372  -32.8141  -42.1086 S.3       10 UNK        -0.2414 
     61 C61        19.6017  -31.0576  -42.2145 C.3       10 UNK         0.0169 
     62 H62        16.6613  -24.4746  -41.5510 H         1 UNK         0.0903 
     63 H63        15.0838  -24.9124  -40.9080 H         1 UNK         0.0903 
     64 H64        15.8690  -25.9764  -42.0526 H         1 UNK         0.0903 
     65 H65        14.8420  -23.7668  -44.8799 H         1 UNK         0.3096 
     66 H66        16.5474  -24.6850  -45.8034 H         1 UNK         0.1121 
     67 H67        14.8787  -26.3821  -46.0135 H         1 UNK         0.0849 
     68 H68        16.4622  -27.0705  -46.0242 H         1 UNK         0.0849 
     69 H69        15.0897  -30.1443  -44.3030 H         1 UNK         0.0865 
     70 H70        15.2859  -29.3909  -45.8604 H         1 UNK         0.0865 
     71 H71        17.0445  -30.3053  -42.7036 H         1 UNK         0.1346 
     72 H72        20.9101  -30.4788  -44.5530 H         1 UNK         0.1412 
     73 H73        17.5284  -29.0711  -46.7823 H         1 UNK         0.1426 
     74 H74        19.7099  -30.1162  -47.8555 H         1 UNK         0.0716 
     75 H75        21.1615  -30.0209  -46.9001 H         1 UNK         0.0716 
     76 H76        22.1926  -28.1023  -45.9806 H         1 UNK         0.0695 
     77 H77        22.6624  -27.2452  -47.4252 H         1 UNK         0.0695 
     78 H78        21.3814  -25.2246  -46.6452 H         1 UNK         0.0983 
     79 H79        19.8259  -25.4550  -45.0808 H         1 UNK         0.3095 
     80 H80        19.2074  -27.8082  -42.6070 H         1 UNK         0.0454 
     81 H81        20.3781  -26.2083  -41.1217 H         1 UNK         0.0851 
     82 H82        18.6375  -26.0236  -41.0171 H         1 UNK         0.0851 
     83 H83        19.6029  -24.8541  -41.9183 H         1 UNK         0.0851 
     84 H84        17.4609  -27.2351  -43.7938 H         1 UNK         0.2976 
     85 H85        22.1020  -24.6094  -43.8008 H         1 UNK         0.3116 
     86 H86        23.7248  -23.8911  -42.4842 H         1 UNK         0.0646 
     87 H87        25.5165  -23.6461  -44.9580 H         1 UNK         0.0847 
     88 H88        24.3606  -22.4254  -44.4264 H         1 UNK         0.0847 
     89 H89        25.7375  -22.8328  -43.4181 H         1 UNK         0.0847 
     90 H90        23.4276  -26.8016  -43.0331 H         1 UNK         0.3040 
     91 H91        25.8940  -27.7769  -41.7498 H         1 UNK         0.1015 
     92 H92        26.1552  -29.5674  -43.4721 H         1 UNK         0.0786 
     93 H93        26.3702  -27.9843  -44.2012 H         1 UNK         0.0786 
     94 H94        24.8588  -28.8614  -44.4310 H         1 UNK         0.0786 
     95 H95        23.5977  -27.3319  -40.4807 H         1 UNK         0.3172 
     96 H96        21.5398  -29.1827  -40.5314 H         1 UNK         0.0595 
     97 H97        22.6623  -27.6899  -38.0964 H         1 UNK         0.0839 
     98 H98        21.0592  -28.4007  -38.2117 H         1 UNK         0.0839 
     99 H99        21.4876  -27.0472  -39.2410 H         1 UNK         0.0839 
    100 H100       24.7097  -29.6046  -39.0952 H         1 UNK         0.2998 
    101 H101       24.2679  -31.8372  -37.4215 H         1 UNK         0.0822 
    102 H102       26.7426  -32.1487  -37.6559 H         1 UNK         0.0787 
    103 H103       26.3392  -30.4662  -37.3625 H         1 UNK         0.0787 
    104 H104       26.7723  -31.0013  -38.9876 H         1 UNK         0.0787 
    105 H105       24.3807  -31.6842  -40.9455 H         1 UNK         0.3055 
    106 H106       24.9579  -34.4612  -41.4408 H         1 UNK         0.1106 
    107 H107       25.1897  -32.6541  -43.1741 H         1 UNK         0.0828 
    108 H108       24.1301  -33.9461  -43.7174 H         1 UNK         0.0828 
    109 H109       23.4410  -32.4268  -43.1669 H         1 UNK         0.0828 
    110 H110       22.1071  -32.7872  -40.3326 H         1 UNK         0.2931 
    111 H111       20.3328  -35.1057  -40.8302 H         1 UNK         0.0412 
    112 H112       21.8164  -35.2676  -37.1582 H         1 UNK         0.3472 
    113 H113       22.6686  -34.5428  -38.4987 H         1 UNK         0.3472 
    114 H114       18.5313  -33.5846  -39.9394 H         1 UNK         0.0970 
    115 H115       19.6981  -32.2995  -39.7987 H         1 UNK         0.0970 
    116 H116       20.6888  -30.9655  -42.1802 H         1 UNK         0.0612 
    117 H117       19.2111  -30.5155  -41.3520 H         1 UNK         0.0612 
@<TRIPOS>BOND
     1    1    2 1    
     2    1   62 1    
     3    1   63 1    
     4    1   64 1    
     5    2    3 2    
     6    2    4 am   BACKBONE|DICT|INTERRES
     7    4    5 1    
     8    4   65 1    
     9    5    6 1    
    10    5   25 1    
    11    5   66 1    
    12    6    7 1    
    13    6   67 1    
    14    6   68 1    
    15    7    8 1    
    16    8    9 1    
    17    8   69 1    
    18    8   70 1    
    19    9   10 ar   
    20    9   14 ar   
    21   10   11 ar   
    22   10   71 1    
    23   11   12 ar   
    24   11   61 1    
    25   12   13 ar   
    26   12   72 1    
    27   13   14 ar   
    28   13   15 1    
    29   14   73 1    
    30   15   16 1    
    31   15   74 1    
    32   15   75 1    
    33   16   17 1    
    34   17   18 1    
    35   17   76 1    
    36   17   77 1    
    37   18   19 1    
    38   18   27 1    
    39   18   78 1    
    40   19   20 am   BACKBONE|DICT|INTERRES
    41   19   79 1    
    42   20   21 2    
    43   20   22 1    
    44   22   23 1    
    45   22   24 1    
    46   22   80 1    
    47   23   81 1    
    48   23   82 1    
    49   23   83 1    
    50   24   25 am   BACKBONE|DICT|INTERRES
    51   24   84 1    
    52   25   26 2    
    53   27   28 2    
    54   27   29 am   BACKBONE|DICT|INTERRES
    55   29   30 1    
    56   29   85 1    
    57   30   31 1    
    58   30   32 1    
    59   30   86 1    
    60   31   87 1    
    61   31   88 1    
    62   31   89 1    
    63   32   33 2    
    64   32   34 am   BACKBONE|DICT|INTERRES
    65   34   35 1    
    66   34   90 1    
    67   35   36 1    
    68   35   37 1    
    69   35   91 1    
    70   36   92 1    
    71   36   93 1    
    72   36   94 1    
    73   37   38 2    
    74   37   39 am   BACKBONE|DICT|INTERRES
    75   39   40 1    
    76   39   95 1    
    77   40   41 1    
    78   40   42 1    
    79   40   96 1    
    80   41   97 1    
    81   41   98 1    
    82   41   99 1    
    83   42   43 2    
    84   42   44 am   BACKBONE|DICT|INTERRES
    85   44   45 1    
    86   44  100 1    
    87   45   46 1    
    88   45   47 1    
    89   45  101 1    
    90   46  102 1    
    91   46  103 1    
    92   46  104 1    
    93   47   48 2    
    94   47   49 am   BACKBONE|DICT|INTERRES
    95   49   50 1    
    96   49  105 1    
    97   50   51 1    
    98   50   52 1    
    99   50  106 1    
   100   51  107 1    
   101   51  108 1    
   102   51  109 1    
   103   52   53 2    
   104   52   54 am   BACKBONE|DICT|INTERRES
   105   54   55 1    
   106   54  110 1    
   107   55   56 1    
   108   55   59 1    
   109   55  111 1    
   110   56   57 am   BACKBONE|DICT|INTERRES
   111   56   58 2    
   112   57  112 1    
   113   57  113 1    
   114   59   60 1    
   115   59  114 1    
   116   59  115 1    
   117   60   61 1    
   118   61  116 1    
   119   61  117 1    
@<TRIPOS>SUBSTRUCTURE
     1 UNK         1 GROUP             0       ****    0 ROOT    
