@<TRIPOS>MOLECULE
3R8
117   119    1
SMALL
USER_CHARGES


@<TRIPOS>ATOM
      1 CA         18.5243  -22.9425  -40.0666 C.3       0 UNK        -0.2013 
      2 C          18.0827  -24.3750  -40.3268 C.2       0 UNK         0.4866 
      3 O          17.5541  -25.0275  -39.4262 O.2       0 UNK        -0.5176 
      4 N          18.2891  -24.8638  -41.5522 N.am      1 UNK        -0.4884 
      5 CA         17.9349  -26.2049  -42.0159 C.3       1 UNK         0.0853 
      6 C6         18.8330  -27.3172  -41.4095 C.3       10 UNK        -0.0849 
      7 S7         20.5882  -27.2088  -41.8988 S.3       10 UNK        -0.2776 
      8 C8         21.1338  -28.9225  -41.6441 C.3       10 UNK         0.0316 
      9 C9         20.7077  -29.8188  -42.7934 C.ar      10 UNK        -0.0863 
     10 C10        19.5796  -30.6330  -42.6790 C.ar      10 UNK        -0.1009 
     11 C11        19.2129  -31.4926  -43.7187 C.ar      10 UNK        -0.0712 
     12 C12        19.9830  -31.5232  -44.8864 C.ar      10 UNK        -0.0894 
     13 C13        21.1122  -30.7070  -45.0146 C.ar      10 UNK        -0.0745 
     14 C14        21.4699  -29.8606  -43.9615 C.ar      10 UNK        -0.0972 
     15 C15        21.9658  -30.7686  -46.2734 C.3       10 UNK         0.0209 
     16 S16        21.4505  -29.5450  -47.5212 S.3       10 UNK        -0.2568 
     17 C17        22.1411  -27.9950  -46.8428 C.3       10 UNK        -0.0983 
     18 CA         21.0999  -26.8519  -46.7074 C.3       3 UNK         0.0876 
     19 N          19.8725  -27.2699  -46.0135 N.am      3 UNK        -0.4424 
     20 C          18.6369  -27.0591  -46.4875 C.2       2 UNK         0.4918 
     21 O          18.3950  -26.4961  -47.5559 O.2       2 UNK        -0.4875 
     22 CA         17.4565  -27.5328  -45.6185 C.3       2 UNK         0.0481 
     23 CB         17.1406  -29.0077  -45.9121 C.3       2 UNK        -0.1831 
     24 N          17.6251  -27.3480  -44.1716 N.am      2 UNK        -0.4498 
     25 C          17.9240  -26.1935  -43.5571 C.2       1 UNK         0.5027 
     26 O          18.2021  -25.1498  -44.1565 O.2       1 UNK        -0.4969 
     27 C          21.7376  -25.6047  -46.0534 C.2       3 UNK         0.5005 
     28 O          22.8085  -25.1887  -46.4992 O.2       3 UNK        -0.5279 
     29 N          21.0931  -25.0331  -45.0200 N.am      4 UNK        -0.4463 
     30 CA         21.5418  -23.8897  -44.2108 C.3       4 UNK         0.0283 
     31 CB         21.4788  -22.5855  -45.0329 C.3       4 UNK        -0.1875 
     32 C          22.9182  -24.1232  -43.5519 C.2       4 UNK         0.4949 
     33 O          23.8185  -23.2904  -43.6746 O.2       4 UNK        -0.5039 
     34 N          23.0502  -25.2701  -42.8781 N.am      5 UNK        -0.4663 
     35 CA         24.2527  -25.7234  -42.1823 C.3       5 UNK         0.0242 
     36 CB         24.9035  -26.8562  -43.0059 C.3       5 UNK        -0.1982 
     37 C          23.8671  -26.1205  -40.7460 C.2       5 UNK         0.5017 
     38 O          23.1950  -25.3409  -40.0679 O.2       5 UNK        -0.5012 
     39 N          24.2769  -27.3149  -40.3071 N.am      6 UNK        -0.4439 
     40 CA         23.9100  -27.9422  -39.0415 C.3       6 UNK         0.0297 
     41 CB         24.8064  -27.4154  -37.9061 C.3       6 UNK        -0.2006 
     42 C          24.0595  -29.4592  -39.2086 C.2       6 UNK         0.4892 
     43 O          24.8327  -29.8933  -40.0676 O.2       6 UNK        -0.5089 
     44 N          23.3281  -30.2238  -38.3839 N.am      7 UNK        -0.4243 
     45 CA         23.2575  -31.6919  -38.3740 C.3       7 UNK         0.0196 
     46 CB         24.5888  -32.2976  -37.8699 C.3       7 UNK        -0.2007 
     47 C          22.7780  -32.2408  -39.7335 C.2       7 UNK         0.5020 
     48 O          21.6870  -31.8694  -40.1641 O.2       7 UNK        -0.5147 
     49 N          23.5856  -33.0993  -40.3735 N.am      8 UNK        -0.4734 
     50 CA         23.4711  -33.6554  -41.7333 C.3       8 UNK         0.0238 
     51 CB         23.5093  -32.5347  -42.7855 C.3       8 UNK        -0.1912 
     52 C          22.2859  -34.6047  -41.9966 C.2       8 UNK         0.5038 
     53 O          22.4525  -35.5418  -42.7791 O.2       8 UNK        -0.5046 
     54 N          21.1386  -34.3824  -41.3510 N.am      9 UNK        -0.4200 
     55 CA         19.9530  -35.2449  -41.3995 C.3       9 UNK         0.0839 
     56 C          19.3377  -35.4528  -39.9880 C.2       9 UNK         0.5513 
     57 N          18.3535  -36.3336  -39.8650 N.am      9 UNK        -0.7519 
     58 O          19.7445  -34.8399  -39.0019 O.2       9 UNK        -0.4960 
     59 C59        18.9406  -34.7937  -42.4935 C.3       10 UNK        -0.0876 
     60 S60        17.9202  -33.3385  -42.0623 S.3       10 UNK        -0.2414 
     61 C61        17.9614  -32.3523  -43.5957 C.3       10 UNK         0.0169 
     62 H62        18.9685  -22.4856  -40.9509 H         1 UNK         0.0903 
     63 H63        17.6718  -22.3356  -39.7628 H         1 UNK         0.0903 
     64 H64        19.2632  -22.9185  -39.2661 H         1 UNK         0.0903 
     65 H65        18.6590  -24.2769  -42.2903 H         1 UNK         0.3096 
     66 H66        16.9037  -26.3925  -41.7079 H         1 UNK         0.1121 
     67 H67        18.7861  -27.2830  -40.3203 H         1 UNK         0.0849 
     68 H68        18.4387  -28.2965  -41.6775 H         1 UNK         0.0849 
     69 H69        22.2206  -28.9419  -41.5618 H         1 UNK         0.0865 
     70 H70        20.7531  -29.2984  -40.6930 H         1 UNK         0.0865 
     71 H71        18.9940  -30.6132  -41.7705 H         1 UNK         0.1346 
     72 H72        19.7032  -32.1794  -45.6990 H         1 UNK         0.1412 
     73 H73        22.3596  -29.2526  -44.0292 H         1 UNK         0.1426 
     74 H74        23.0190  -30.6239  -46.0271 H         1 UNK         0.0716 
     75 H75        21.8965  -31.7639  -46.7148 H         1 UNK         0.0716 
     76 H76        22.6294  -28.1861  -45.8894 H         1 UNK         0.0695 
     77 H77        22.9429  -27.6857  -47.5158 H         1 UNK         0.0695 
     78 H78        20.8519  -26.5435  -47.7252 H         1 UNK         0.0983 
     79 H79        19.9871  -27.7700  -45.1431 H         1 UNK         0.3095 
     80 H80        16.5862  -26.9411  -45.9092 H         1 UNK         0.0454 
     81 H81        17.9647  -29.6590  -45.6230 H         1 UNK         0.0851 
     82 H82        16.2463  -29.3398  -45.3851 H         1 UNK         0.0851 
     83 H83        16.9638  -29.1645  -46.9771 H         1 UNK         0.0851 
     84 H84        17.4396  -28.1605  -43.6018 H         1 UNK         0.2976 
     85 H85        20.1830  -25.4039  -44.7709 H         1 UNK         0.3116 
     86 H86        20.8261  -23.7949  -43.3928 H         1 UNK         0.0646 
     87 H87        22.1885  -22.5932  -45.8608 H         1 UNK         0.0847 
     88 H88        20.4829  -22.4257  -45.4459 H         1 UNK         0.0847 
     89 H89        21.7140  -21.7206  -44.4116 H         1 UNK         0.0847 
     90 H90        22.2330  -25.8579  -42.7619 H         1 UNK         0.3040 
     91 H91        24.9701  -24.9048  -42.0921 H         1 UNK         0.1015 
     92 H92        24.2508  -27.7260  -43.0920 H         1 UNK         0.0786 
     93 H93        25.8460  -27.1817  -42.5637 H         1 UNK         0.0786 
     94 H94        25.1309  -26.5184  -44.0175 H         1 UNK         0.0786 
     95 H95        24.8048  -27.9248  -40.9208 H         1 UNK         0.3172 
     96 H96        22.8636  -27.7183  -38.8217 H         1 UNK         0.0595 
     97 H97        24.5525  -27.8845  -36.9547 H         1 UNK         0.0839 
     98 H98        24.6919  -26.3392  -37.7752 H         1 UNK         0.0839 
     99 H99        25.8604  -27.6186  -38.0998 H         1 UNK         0.0839 
    100 H100       22.7083  -29.7601  -37.7341 H         1 UNK         0.2998 
    101 H101       22.4822  -31.9593  -37.6541 H         1 UNK         0.0822 
    102 H102       24.8452  -31.9052  -36.8857 H         1 UNK         0.0787 
    103 H103       24.5178  -33.3813  -37.7679 H         1 UNK         0.0787 
    104 H104       25.4239  -32.0766  -38.5359 H         1 UNK         0.0787 
    105 H105       24.4377  -33.3503  -39.8912 H         1 UNK         0.3055 
    106 H106       24.3703  -34.2580  -41.8739 H         1 UNK         0.1106 
    107 H107       24.3931  -31.9068  -42.6724 H         1 UNK         0.0828 
    108 H108       23.5197  -32.9407  -43.7979 H         1 UNK         0.0828 
    109 H109       22.6320  -31.8980  -42.7010 H         1 UNK         0.0828 
    110 H110       21.0777  -33.5735  -40.7379 H         1 UNK         0.2931 
    111 H111       20.2950  -36.2425  -41.6819 H         1 UNK         0.0412 
    112 H112       17.9426  -36.4843  -38.9567 H         1 UNK         0.3472 
    113 H113       18.0087  -36.8470  -40.6611 H         1 UNK         0.3472 
    114 H114       19.4746  -34.5999  -43.4250 H         1 UNK         0.0970 
    115 H115       18.2578  -35.6137  -42.7202 H         1 UNK         0.0970 
    116 H116       17.0933  -31.6922  -43.6033 H         1 UNK         0.0612 
    117 H117       17.8492  -33.0152  -44.4550 H         1 UNK         0.0612 
@<TRIPOS>BOND
     1    1    2 1    
     2    1   62 1    
     3    1   63 1    
     4    1   64 1    
     5    2    3 2    
     6    2    4 am   BACKBONE|DICT|INTERRES
     7    4    5 1    
     8    4   65 1    
     9    5    6 1    
    10    5   25 1    
    11    5   66 1    
    12    6    7 1    
    13    6   67 1    
    14    6   68 1    
    15    7    8 1    
    16    8    9 1    
    17    8   69 1    
    18    8   70 1    
    19    9   10 ar   
    20    9   14 ar   
    21   10   11 ar   
    22   10   71 1    
    23   11   12 ar   
    24   11   61 1    
    25   12   13 ar   
    26   12   72 1    
    27   13   14 ar   
    28   13   15 1    
    29   14   73 1    
    30   15   16 1    
    31   15   74 1    
    32   15   75 1    
    33   16   17 1    
    34   17   18 1    
    35   17   76 1    
    36   17   77 1    
    37   18   19 1    
    38   18   27 1    
    39   18   78 1    
    40   19   20 am   BACKBONE|DICT|INTERRES
    41   19   79 1    
    42   20   21 2    
    43   20   22 1    
    44   22   23 1    
    45   22   24 1    
    46   22   80 1    
    47   23   81 1    
    48   23   82 1    
    49   23   83 1    
    50   24   25 am   BACKBONE|DICT|INTERRES
    51   24   84 1    
    52   25   26 2    
    53   27   28 2    
    54   27   29 am   BACKBONE|DICT|INTERRES
    55   29   30 1    
    56   29   85 1    
    57   30   31 1    
    58   30   32 1    
    59   30   86 1    
    60   31   87 1    
    61   31   88 1    
    62   31   89 1    
    63   32   33 2    
    64   32   34 am   BACKBONE|DICT|INTERRES
    65   34   35 1    
    66   34   90 1    
    67   35   36 1    
    68   35   37 1    
    69   35   91 1    
    70   36   92 1    
    71   36   93 1    
    72   36   94 1    
    73   37   38 2    
    74   37   39 am   BACKBONE|DICT|INTERRES
    75   39   40 1    
    76   39   95 1    
    77   40   41 1    
    78   40   42 1    
    79   40   96 1    
    80   41   97 1    
    81   41   98 1    
    82   41   99 1    
    83   42   43 2    
    84   42   44 am   BACKBONE|DICT|INTERRES
    85   44   45 1    
    86   44  100 1    
    87   45   46 1    
    88   45   47 1    
    89   45  101 1    
    90   46  102 1    
    91   46  103 1    
    92   46  104 1    
    93   47   48 2    
    94   47   49 am   BACKBONE|DICT|INTERRES
    95   49   50 1    
    96   49  105 1    
    97   50   51 1    
    98   50   52 1    
    99   50  106 1    
   100   51  107 1    
   101   51  108 1    
   102   51  109 1    
   103   52   53 2    
   104   52   54 am   BACKBONE|DICT|INTERRES
   105   54   55 1    
   106   54  110 1    
   107   55   56 1    
   108   55   59 1    
   109   55  111 1    
   110   56   57 am   BACKBONE|DICT|INTERRES
   111   56   58 2    
   112   57  112 1    
   113   57  113 1    
   114   59   60 1    
   115   59  114 1    
   116   59  115 1    
   117   60   61 1    
   118   61  116 1    
   119   61  117 1    
@<TRIPOS>SUBSTRUCTURE
     1 UNK         1 GROUP             0       ****    0 ROOT    
