@<TRIPOS>MOLECULE
3R8
117   119    1
SMALL
USER_CHARGES


@<TRIPOS>ATOM
      1 CA         14.3894  -22.5808  -45.2434 C.3       0 UNK        -0.2013 
      2 C          15.4276  -23.6918  -45.2746 C.2       0 UNK         0.4866 
      3 O          15.7442  -24.2069  -46.3473 O.2       0 UNK        -0.5176 
      4 N          15.9787  -24.0564  -44.1101 N.am      1 UNK        -0.4884 
      5 CA         16.9603  -25.1341  -43.9124 C.3       1 UNK         0.0853 
      6 C6         16.9263  -25.6661  -42.4548 C.3       10 UNK        -0.0849 
      7 S7         15.3451  -26.5010  -42.0869 S.3       10 UNK        -0.2776 
      8 C8         15.8972  -28.1146  -41.4249 C.3       10 UNK         0.0316 
      9 C9         16.7830  -28.9323  -42.3663 C.ar      10 UNK        -0.0863 
     10 C10        17.8316  -29.6892  -41.8339 C.ar      10 UNK        -0.1009 
     11 C11        18.6570  -30.4661  -42.6539 C.ar      10 UNK        -0.0712 
     12 C12        18.4265  -30.4666  -44.0376 C.ar      10 UNK        -0.0894 
     13 C13        17.3727  -29.7292  -44.5850 C.ar      10 UNK        -0.0745 
     14 C14        16.5501  -28.9735  -43.7446 C.ar      10 UNK        -0.0972 
     15 C15        17.0832  -29.7826  -46.0777 C.3       10 UNK         0.0209 
     16 S16        17.4443  -28.1987  -46.8982 S.3       10 UNK        -0.2568 
     17 C17        19.0929  -28.4712  -47.6517 C.3       10 UNK        -0.0983 
     18 CA         20.2358  -27.5988  -47.0605 C.3       3 UNK         0.0876 
     19 N          19.7782  -26.2338  -46.8083 N.am      3 UNK        -0.4424 
     20 C          20.5258  -25.1332  -46.6740 C.2       2 UNK         0.4918 
     21 O          21.7426  -25.0994  -46.8513 O.2       2 UNK        -0.4875 
     22 CA         19.7738  -23.8565  -46.2456 C.3       2 UNK         0.0481 
     23 CB         19.5031  -22.9562  -47.4608 C.3       2 UNK        -0.1831 
     24 N          18.5029  -24.1464  -45.5671 N.am      2 UNK        -0.4498 
     25 C          18.3849  -24.7383  -44.3700 C.2       1 UNK         0.5027 
     26 O          19.3590  -25.0095  -43.6680 O.2       1 UNK        -0.4969 
     27 C          20.9059  -28.2697  -45.8394 C.2       3 UNK         0.5005 
     28 O          21.5139  -29.3276  -46.0152 O.2       3 UNK        -0.5279 
     29 N          20.8054  -27.6747  -44.6398 N.am      4 UNK        -0.4463 
     30 CA         21.4651  -28.1672  -43.4290 C.3       4 UNK         0.0283 
     31 CB         20.8393  -27.5028  -42.1929 C.3       4 UNK        -0.1875 
     32 C          22.9811  -27.9161  -43.4553 C.2       4 UNK         0.4949 
     33 O          23.4478  -26.9694  -44.0924 O.2       4 UNK        -0.5039 
     34 N          23.7130  -28.7488  -42.7130 N.am      5 UNK        -0.4663 
     35 CA         25.1559  -28.6648  -42.5150 C.3       5 UNK         0.0242 
     36 CB         25.8923  -29.4190  -43.6379 C.3       5 UNK        -0.1982 
     37 C          25.4370  -29.2109  -41.1129 C.2       5 UNK         0.5017 
     38 O          25.8448  -30.3658  -40.9677 O.2       5 UNK        -0.5012 
     39 N          25.1130  -28.3804  -40.1103 N.am      6 UNK        -0.4439 
     40 CA         25.0514  -28.6848  -38.6747 C.3       6 UNK         0.0297 
     41 CB         26.4240  -29.1600  -38.1456 C.3       6 UNK        -0.2006 
     42 C          23.9160  -29.6723  -38.3361 C.2       6 UNK         0.4892 
     43 O          23.1542  -30.0766  -39.2187 O.2       6 UNK        -0.5089 
     44 N          23.8222  -30.0525  -37.0539 N.am      7 UNK        -0.4243 
     45 CA         22.8473  -31.0228  -36.5374 C.3       7 UNK         0.0196 
     46 CB         22.9330  -31.0598  -35.0029 C.3       7 UNK        -0.2007 
     47 C          23.0148  -32.4390  -37.1207 C.2       7 UNK         0.5020 
     48 O          22.0439  -33.1941  -37.1668 O.2       7 UNK        -0.5147 
     49 N          24.2333  -32.7642  -37.5746 N.am      8 UNK        -0.4734 
     50 CA         24.5584  -33.9965  -38.2950 C.3       8 UNK         0.0238 
     51 CB         26.0857  -34.1742  -38.3135 C.3       8 UNK        -0.1912 
     52 C          24.0010  -34.0329  -39.7307 C.2       8 UNK         0.5038 
     53 O          23.8598  -35.1266  -40.2794 O.2       8 UNK        -0.5046 
     54 N          23.7003  -32.8598  -40.3099 N.am      9 UNK        -0.4200 
     55 CA         23.2230  -32.6805  -41.6889 C.3       9 UNK         0.0839 
     56 C          24.2557  -33.1501  -42.7590 C.2       9 UNK         0.5513 
     57 N          25.5348  -32.8511  -42.5702 N.am      9 UNK        -0.7519 
     58 O          23.9146  -33.7882  -43.7518 O.2       9 UNK        -0.4960 
     59 C59        21.7865  -33.2461  -41.8836 C.3       10 UNK        -0.0876 
     60 S60        20.8132  -32.2855  -43.0921 S.3       10 UNK        -0.2414 
     61 C61        19.7553  -31.2950  -41.9798 C.3       10 UNK         0.0169 
     62 H62        13.4428  -22.9422  -45.6443 H         1 UNK         0.0903 
     63 H63        14.2120  -22.2162  -44.2318 H         1 UNK         0.0903 
     64 H64        14.7199  -21.7411  -45.8542 H         1 UNK         0.0903 
     65 H65        15.6893  -23.5838  -43.2652 H         1 UNK         0.3096 
     66 H66        16.6777  -25.9650  -44.5636 H         1 UNK         0.1121 
     67 H67        17.7372  -26.3733  -42.2773 H         1 UNK         0.0849 
     68 H68        17.0772  -24.8541  -41.7414 H         1 UNK         0.0849 
     69 H69        16.4157  -27.9320  -40.4822 H         1 UNK         0.0865 
     70 H70        15.0162  -28.7085  -41.1784 H         1 UNK         0.0865 
     71 H71        18.0046  -29.6824  -40.7661 H         1 UNK         0.1346 
     72 H72        19.0484  -31.0514  -44.6995 H         1 UNK         0.1412 
     73 H73        15.7267  -28.4163  -44.1701 H         1 UNK         0.1426 
     74 H74        16.0253  -30.0085  -46.2193 H         1 UNK         0.0716 
     75 H75        17.6273  -30.5968  -46.5581 H         1 UNK         0.0716 
     76 H76        18.9864  -28.2254  -48.7093 H         1 UNK         0.0695 
     77 H77        19.3500  -29.5319  -47.6382 H         1 UNK         0.0695 
     78 H78        21.0215  -27.5376  -47.8170 H         1 UNK         0.0983 
     79 H79        18.7811  -26.1483  -46.6722 H         1 UNK         0.3095 
     80 H80        20.4149  -23.3120  -45.5494 H         1 UNK         0.0454 
     81 H81        20.4320  -22.7033  -47.9739 H         1 UNK         0.0851 
     82 H82        19.0336  -22.0185  -47.1633 H         1 UNK         0.0851 
     83 H83        18.8510  -23.4428  -48.1873 H         1 UNK         0.0851 
     84 H84        17.6444  -23.9806  -46.0864 H         1 UNK         0.2976 
     85 H85        20.3352  -26.7817  -44.5656 H         1 UNK         0.3116 
     86 H86        21.2935  -29.2430  -43.3680 H         1 UNK         0.0646 
     87 H87        21.0491  -26.4331  -42.1598 H         1 UNK         0.0847 
     88 H88        19.7585  -27.6322  -42.1778 H         1 UNK         0.0847 
     89 H89        21.2298  -27.9396  -41.2728 H         1 UNK         0.0847 
     90 H90        23.2445  -29.4617  -42.1695 H         1 UNK         0.3040 
     91 H91        25.4791  -27.6212  -42.5352 H         1 UNK         0.1015 
     92 H92        26.9617  -29.4830  -43.4332 H         1 UNK         0.0786 
     93 H93        25.7740  -28.9094  -44.5942 H         1 UNK         0.0786 
     94 H94        25.5167  -30.4338  -43.7589 H         1 UNK         0.0786 
     95 H95        24.7367  -27.4778  -40.3660 H         1 UNK         0.3172 
     96 H96        24.8059  -27.7448  -38.1785 H         1 UNK         0.0595 
     97 H97        26.6674  -30.1681  -38.4831 H         1 UNK         0.0839 
     98 H98        26.4520  -29.1679  -37.0558 H         1 UNK         0.0839 
     99 H99        27.2246  -28.4982  -38.4760 H         1 UNK         0.0839 
    100 H100       24.4697  -29.6638  -36.3833 H         1 UNK         0.2998 
    101 H101       21.8510  -30.6740  -36.8180 H         1 UNK         0.0822 
    102 H102       22.2003  -31.7537  -34.5880 H         1 UNK         0.0787 
    103 H103       22.7294  -30.0805  -34.5694 H         1 UNK         0.0787 
    104 H104       23.9171  -31.3826  -34.6606 H         1 UNK         0.0787 
    105 H105       24.9728  -32.0840  -37.4781 H         1 UNK         0.3055 
    106 H106       24.1183  -34.8376  -37.7542 H         1 UNK         0.1106 
    107 H107       26.4934  -34.2224  -37.3037 H         1 UNK         0.0828 
    108 H108       26.3643  -35.1009  -38.8175 H         1 UNK         0.0828 
    109 H109       26.5813  -33.3570  -38.8396 H         1 UNK         0.0828 
    110 H110       23.8295  -32.0036  -39.7843 H         1 UNK         0.2931 
    111 H111       23.1658  -31.5983  -41.8083 H         1 UNK         0.0412 
    112 H112       25.8018  -32.2347  -41.8106 H         1 UNK         0.3472 
    113 H113       26.2208  -33.1538  -43.2427 H         1 UNK         0.3472 
    114 H114       21.8136  -34.2925  -42.1929 H         1 UNK         0.0970 
    115 H115       21.2494  -33.2451  -40.9339 H         1 UNK         0.0970 
    116 H116       19.2766  -31.9708  -41.2696 H         1 UNK         0.0612 
    117 H117       20.3961  -30.6316  -41.3966 H         1 UNK         0.0612 
@<TRIPOS>BOND
     1    1    2 1    
     2    1   62 1    
     3    1   63 1    
     4    1   64 1    
     5    2    3 2    
     6    2    4 am   BACKBONE|DICT|INTERRES
     7    4    5 1    
     8    4   65 1    
     9    5    6 1    
    10    5   25 1    
    11    5   66 1    
    12    6    7 1    
    13    6   67 1    
    14    6   68 1    
    15    7    8 1    
    16    8    9 1    
    17    8   69 1    
    18    8   70 1    
    19    9   10 ar   
    20    9   14 ar   
    21   10   11 ar   
    22   10   71 1    
    23   11   12 ar   
    24   11   61 1    
    25   12   13 ar   
    26   12   72 1    
    27   13   14 ar   
    28   13   15 1    
    29   14   73 1    
    30   15   16 1    
    31   15   74 1    
    32   15   75 1    
    33   16   17 1    
    34   17   18 1    
    35   17   76 1    
    36   17   77 1    
    37   18   19 1    
    38   18   27 1    
    39   18   78 1    
    40   19   20 am   BACKBONE|DICT|INTERRES
    41   19   79 1    
    42   20   21 2    
    43   20   22 1    
    44   22   23 1    
    45   22   24 1    
    46   22   80 1    
    47   23   81 1    
    48   23   82 1    
    49   23   83 1    
    50   24   25 am   BACKBONE|DICT|INTERRES
    51   24   84 1    
    52   25   26 2    
    53   27   28 2    
    54   27   29 am   BACKBONE|DICT|INTERRES
    55   29   30 1    
    56   29   85 1    
    57   30   31 1    
    58   30   32 1    
    59   30   86 1    
    60   31   87 1    
    61   31   88 1    
    62   31   89 1    
    63   32   33 2    
    64   32   34 am   BACKBONE|DICT|INTERRES
    65   34   35 1    
    66   34   90 1    
    67   35   36 1    
    68   35   37 1    
    69   35   91 1    
    70   36   92 1    
    71   36   93 1    
    72   36   94 1    
    73   37   38 2    
    74   37   39 am   BACKBONE|DICT|INTERRES
    75   39   40 1    
    76   39   95 1    
    77   40   41 1    
    78   40   42 1    
    79   40   96 1    
    80   41   97 1    
    81   41   98 1    
    82   41   99 1    
    83   42   43 2    
    84   42   44 am   BACKBONE|DICT|INTERRES
    85   44   45 1    
    86   44  100 1    
    87   45   46 1    
    88   45   47 1    
    89   45  101 1    
    90   46  102 1    
    91   46  103 1    
    92   46  104 1    
    93   47   48 2    
    94   47   49 am   BACKBONE|DICT|INTERRES
    95   49   50 1    
    96   49  105 1    
    97   50   51 1    
    98   50   52 1    
    99   50  106 1    
   100   51  107 1    
   101   51  108 1    
   102   51  109 1    
   103   52   53 2    
   104   52   54 am   BACKBONE|DICT|INTERRES
   105   54   55 1    
   106   54  110 1    
   107   55   56 1    
   108   55   59 1    
   109   55  111 1    
   110   56   57 am   BACKBONE|DICT|INTERRES
   111   56   58 2    
   112   57  112 1    
   113   57  113 1    
   114   59   60 1    
   115   59  114 1    
   116   59  115 1    
   117   60   61 1    
   118   61  116 1    
   119   61  117 1    
@<TRIPOS>SUBSTRUCTURE
     1 UNK         1 GROUP             0       ****    0 ROOT    
