@<TRIPOS>MOLECULE
3R8
117   119    1
SMALL
USER_CHARGES


@<TRIPOS>ATOM
      1 CA         15.4489  -29.3264  -40.9612 C.3       0 UNK        -0.2013 
      2 C          15.6975  -27.8983  -41.4222 C.2       0 UNK         0.4866 
      3 O          15.6275  -26.9748  -40.6114 O.2       0 UNK        -0.5176 
      4 N          15.9890  -27.7080  -42.7160 N.am      1 UNK        -0.4884 
      5 CA         16.1979  -26.3950  -43.3469 C.3       1 UNK         0.0853 
      6 C6         15.6607  -26.3257  -44.8053 C.3       10 UNK        -0.0849 
      7 S7         14.0459  -27.1790  -45.0390 S.3       10 UNK        -0.2776 
      8 C8         14.3687  -28.5931  -46.1650 C.3       10 UNK         0.0316 
      9 C9         15.7734  -29.1624  -46.0321 C.ar      10 UNK        -0.0863 
     10 C10        16.1138  -30.0037  -44.9679 C.ar      10 UNK        -0.1009 
     11 C11        17.4470  -30.3811  -44.7692 C.ar      10 UNK        -0.0712 
     12 C12        18.4291  -29.9313  -45.6564 C.ar      10 UNK        -0.0894 
     13 C13        18.0935  -29.1065  -46.7302 C.ar      10 UNK        -0.0745 
     14 C14        16.7576  -28.7638  -46.9394 C.ar      10 UNK        -0.0972 
     15 C15        19.1730  -28.4825  -47.5970 C.3       10 UNK         0.0209 
     16 S16        19.2871  -26.7092  -47.2006 S.3       10 UNK        -0.2568 
     17 C17        21.0720  -26.4470  -46.9440 C.3       10 UNK        -0.0983 
     18 CA         21.6397  -26.8512  -45.5499 C.3       3 UNK         0.0876 
     19 N          20.6645  -26.7438  -44.4522 N.am      3 UNK        -0.4424 
     20 C          20.9952  -26.5067  -43.1765 C.2       2 UNK         0.4918 
     21 O          22.1588  -26.3533  -42.8070 O.2       2 UNK        -0.4875 
     22 CA         19.8845  -26.4704  -42.1109 C.3       2 UNK         0.0481 
     23 CB         19.9538  -25.1879  -41.2557 C.3       2 UNK        -0.1831 
     24 N          18.5166  -26.7331  -42.5766 N.am      2 UNK        -0.4498 
     25 C          17.6717  -25.9274  -43.2405 C.2       1 UNK         0.5027 
     26 O          18.0025  -24.8499  -43.7353 O.2       1 UNK        -0.4969 
     27 C          22.3881  -28.2033  -45.5923 C.2       3 UNK         0.5005 
     28 O          23.3883  -28.3017  -46.3073 O.2       3 UNK        -0.5279 
     29 N          21.9323  -29.2185  -44.8420 N.am      4 UNK        -0.4463 
     30 CA         22.5998  -30.5198  -44.7357 C.3       4 UNK         0.0283 
     31 CB         21.5950  -31.6140  -44.3409 C.3       4 UNK        -0.1875 
     32 C          23.7950  -30.4531  -43.7705 C.2       4 UNK         0.4949 
     33 O          23.6738  -30.8595  -42.6112 O.2       4 UNK        -0.5039 
     34 N          24.9173  -29.9447  -44.2994 N.am      5 UNK        -0.4663 
     35 CA         26.2576  -29.8648  -43.7048 C.3       5 UNK         0.0242 
     36 CB         26.7994  -31.2905  -43.4496 C.3       5 UNK        -0.1982 
     37 C          26.3397  -28.9808  -42.4448 C.2       5 UNK         0.5017 
     38 O          25.3634  -28.3348  -42.0599 O.2       5 UNK        -0.5012 
     39 N          27.5161  -28.9876  -41.7998 N.am      6 UNK        -0.4439 
     40 CA         27.7781  -28.3314  -40.5113 C.3       6 UNK         0.0297 
     41 CB         29.2833  -28.3979  -40.2055 C.3       6 UNK        -0.2006 
     42 C          26.9630  -28.9222  -39.3430 C.2       6 UNK         0.4892 
     43 O          26.7894  -28.2502  -38.3262 O.2       6 UNK        -0.5089 
     44 N          26.4583  -30.1518  -39.5224 N.am      7 UNK        -0.4243 
     45 CA         25.4977  -30.8154  -38.6416 C.3       7 UNK         0.0196 
     46 CB         25.3902  -32.2939  -39.0508 C.3       7 UNK        -0.2007 
     47 C          24.1025  -30.1627  -38.6533 C.2       7 UNK         0.5020 
     48 O          23.3389  -30.3981  -37.7173 O.2       7 UNK        -0.5147 
     49 N          23.7843  -29.3847  -39.7022 N.am      8 UNK        -0.4734 
     50 CA         22.5313  -28.6528  -39.9233 C.3       8 UNK         0.0238 
     51 CB         22.4447  -27.4425  -38.9703 C.3       8 UNK        -0.1912 
     52 C          21.2928  -29.5648  -39.8522 C.2       8 UNK         0.5038 
     53 O          20.3637  -29.2861  -39.0924 O.2       8 UNK        -0.5046 
     54 N          21.3361  -30.6582  -40.6245 N.am      9 UNK        -0.4200 
     55 CA         20.3481  -31.7544  -40.6466 C.3       9 UNK         0.0839 
     56 C          20.4222  -32.7196  -39.4251 C.2       9 UNK         0.5513 
     57 N          21.3167  -32.5333  -38.4616 N.am      9 UNK        -0.7519 
     58 O          19.6674  -33.6869  -39.3653 O.2       9 UNK        -0.4960 
     59 C59        18.8800  -31.3020  -40.9215 C.3       10 UNK        -0.0876 
     60 S60        18.6870  -30.1604  -42.3328 S.3       10 UNK        -0.2414 
     61 C61        17.8476  -31.2098  -43.5595 C.3       10 UNK         0.0169 
     62 H62        14.4580  -29.4092  -40.5158 H         1 UNK         0.0903 
     63 H63        15.5099  -30.0386  -41.7827 H         1 UNK         0.0903 
     64 H64        16.1850  -29.6104  -40.2099 H         1 UNK         0.0903 
     65 H65        16.0380  -28.4958  -43.3480 H         1 UNK         0.3096 
     66 H66        15.6224  -25.6608  -42.7783 H         1 UNK         0.1121 
     67 H67        16.4056  -26.6841  -45.5100 H         1 UNK         0.0849 
     68 H68        15.5142  -25.2797  -45.0803 H         1 UNK         0.0849 
     69 H69        13.6350  -29.3765  -45.9697 H         1 UNK         0.0865 
     70 H70        14.1905  -28.2677  -47.1912 H         1 UNK         0.0865 
     71 H71        15.3496  -30.3210  -44.2713 H         1 UNK         0.1346 
     72 H72        19.4620  -30.1831  -45.4820 H         1 UNK         0.1412 
     73 H73        16.5032  -28.0946  -47.7505 H         1 UNK         0.1426 
     74 H74        18.9235  -28.6053  -48.6518 H         1 UNK         0.0716 
     75 H75        20.1326  -28.9770  -47.4417 H         1 UNK         0.0716 
     76 H76        21.2300  -25.3754  -47.0752 H         1 UNK         0.0695 
     77 H77        21.6213  -26.9070  -47.7682 H         1 UNK         0.0695 
     78 H78        22.4311  -26.1280  -45.3374 H         1 UNK         0.0983 
     79 H79        19.6906  -26.8309  -44.7073 H         1 UNK         0.3095 
     80 H80        20.1071  -27.3030  -41.4436 H         1 UNK         0.0454 
     81 H81        19.7762  -24.2914  -41.8499 H         1 UNK         0.0851 
     82 H82        20.9356  -25.0741  -40.7949 H         1 UNK         0.0851 
     83 H83        19.2211  -25.2088  -40.4491 H         1 UNK         0.0851 
     84 H84        18.1294  -27.6153  -42.2667 H         1 UNK         0.2976 
     85 H85        21.1419  -29.0535  -44.2365 H         1 UNK         0.3116 
     86 H86        22.9908  -30.8010  -45.7164 H         1 UNK         0.0646 
     87 H87        20.9100  -31.8419  -45.1560 H         1 UNK         0.0847 
     88 H88        21.0116  -31.3227  -43.4730 H         1 UNK         0.0847 
     89 H89        22.1046  -32.5463  -44.0932 H         1 UNK         0.0847 
     90 H90        24.8295  -29.5412  -45.2258 H         1 UNK         0.3040 
     91 H91        26.8913  -29.3887  -44.4550 H         1 UNK         0.1015 
     92 H92        26.2708  -31.7857  -42.6339 H         1 UNK         0.0786 
     93 H93        27.8601  -31.2843  -43.1979 H         1 UNK         0.0786 
     94 H94        26.6940  -31.9154  -44.3368 H         1 UNK         0.0786 
     95 H95        28.2775  -29.5230  -42.1927 H         1 UNK         0.3172 
     96 H96        27.4935  -27.2815  -40.6075 H         1 UNK         0.0595 
     97 H97        29.6329  -29.4268  -40.1116 H         1 UNK         0.0839 
     98 H98        29.5131  -27.8902  -39.2674 H         1 UNK         0.0839 
     99 H99        29.8702  -27.9116  -40.9849 H         1 UNK         0.0839 
    100 H100       26.6752  -30.6255  -40.3862 H         1 UNK         0.2998 
    101 H101       25.8785  -30.7620  -37.6194 H         1 UNK         0.0822 
    102 H102       26.3562  -32.7957  -38.9898 H         1 UNK         0.0787 
    103 H103       24.7054  -32.8322  -38.3937 H         1 UNK         0.0787 
    104 H104       25.0157  -32.4037  -40.0699 H         1 UNK         0.0787 
    105 H105       24.4683  -29.2754  -40.4448 H         1 UNK         0.3055 
    106 H106       22.5760  -28.2709  -40.9445 H         1 UNK         0.1106 
    107 H107       22.4114  -27.7521  -37.9252 H         1 UNK         0.0828 
    108 H108       21.5468  -26.8552  -39.1634 H         1 UNK         0.0828 
    109 H109       23.2999  -26.7788  -39.0974 H         1 UNK         0.0828 
    110 H110       22.1623  -30.8042  -41.1966 H         1 UNK         0.2931 
    111 H111       20.6497  -32.3758  -41.4891 H         1 UNK         0.0412 
    112 H112       21.3453  -33.1836  -37.6926 H         1 UNK         0.3472 
    113 H113       21.9221  -31.7214  -38.4513 H         1 UNK         0.3472 
    114 H114       18.4676  -30.8078  -40.0408 H         1 UNK         0.0970 
    115 H115       18.2450  -32.1743  -41.0853 H         1 UNK         0.0970 
    116 H116       16.9706  -31.6748  -43.1068 H         1 UNK         0.0612 
    117 H117       18.5112  -32.0198  -43.8650 H         1 UNK         0.0612 
@<TRIPOS>BOND
     1    1    2 1    
     2    1   62 1    
     3    1   63 1    
     4    1   64 1    
     5    2    3 2    
     6    2    4 am   BACKBONE|DICT|INTERRES
     7    4    5 1    
     8    4   65 1    
     9    5    6 1    
    10    5   25 1    
    11    5   66 1    
    12    6    7 1    
    13    6   67 1    
    14    6   68 1    
    15    7    8 1    
    16    8    9 1    
    17    8   69 1    
    18    8   70 1    
    19    9   10 ar   
    20    9   14 ar   
    21   10   11 ar   
    22   10   71 1    
    23   11   12 ar   
    24   11   61 1    
    25   12   13 ar   
    26   12   72 1    
    27   13   14 ar   
    28   13   15 1    
    29   14   73 1    
    30   15   16 1    
    31   15   74 1    
    32   15   75 1    
    33   16   17 1    
    34   17   18 1    
    35   17   76 1    
    36   17   77 1    
    37   18   19 1    
    38   18   27 1    
    39   18   78 1    
    40   19   20 am   BACKBONE|DICT|INTERRES
    41   19   79 1    
    42   20   21 2    
    43   20   22 1    
    44   22   23 1    
    45   22   24 1    
    46   22   80 1    
    47   23   81 1    
    48   23   82 1    
    49   23   83 1    
    50   24   25 am   BACKBONE|DICT|INTERRES
    51   24   84 1    
    52   25   26 2    
    53   27   28 2    
    54   27   29 am   BACKBONE|DICT|INTERRES
    55   29   30 1    
    56   29   85 1    
    57   30   31 1    
    58   30   32 1    
    59   30   86 1    
    60   31   87 1    
    61   31   88 1    
    62   31   89 1    
    63   32   33 2    
    64   32   34 am   BACKBONE|DICT|INTERRES
    65   34   35 1    
    66   34   90 1    
    67   35   36 1    
    68   35   37 1    
    69   35   91 1    
    70   36   92 1    
    71   36   93 1    
    72   36   94 1    
    73   37   38 2    
    74   37   39 am   BACKBONE|DICT|INTERRES
    75   39   40 1    
    76   39   95 1    
    77   40   41 1    
    78   40   42 1    
    79   40   96 1    
    80   41   97 1    
    81   41   98 1    
    82   41   99 1    
    83   42   43 2    
    84   42   44 am   BACKBONE|DICT|INTERRES
    85   44   45 1    
    86   44  100 1    
    87   45   46 1    
    88   45   47 1    
    89   45  101 1    
    90   46  102 1    
    91   46  103 1    
    92   46  104 1    
    93   47   48 2    
    94   47   49 am   BACKBONE|DICT|INTERRES
    95   49   50 1    
    96   49  105 1    
    97   50   51 1    
    98   50   52 1    
    99   50  106 1    
   100   51  107 1    
   101   51  108 1    
   102   51  109 1    
   103   52   53 2    
   104   52   54 am   BACKBONE|DICT|INTERRES
   105   54   55 1    
   106   54  110 1    
   107   55   56 1    
   108   55   59 1    
   109   55  111 1    
   110   56   57 am   BACKBONE|DICT|INTERRES
   111   56   58 2    
   112   57  112 1    
   113   57  113 1    
   114   59   60 1    
   115   59  114 1    
   116   59  115 1    
   117   60   61 1    
   118   61  116 1    
   119   61  117 1    
@<TRIPOS>SUBSTRUCTURE
     1 UNK         1 GROUP             0       ****    0 ROOT    
