@<TRIPOS>MOLECULE
3R8
117   119    1
SMALL
USER_CHARGES


@<TRIPOS>ATOM
      1 CA         18.6450  -23.6317  -48.5581 C.3       0 UNK        -0.2013 
      2 C          19.1215  -25.0217  -48.1637 C.2       0 UNK         0.4866 
      3 O          20.3114  -25.3175  -48.2793 O.2       0 UNK        -0.5176 
      4 N          18.2007  -25.8799  -47.7091 N.am      1 UNK        -0.4884 
      5 CA         18.4783  -27.2299  -47.2083 C.3       1 UNK         0.0853 
      6 C6         17.2137  -28.1286  -47.2118 C.3       10 UNK        -0.0849 
      7 S7         15.7062  -27.3328  -46.5532 S.3       10 UNK        -0.2776 
      8 C8         14.7186  -28.7850  -46.0766 C.3       10 UNK         0.0316 
      9 C9         15.1686  -29.3367  -44.7341 C.ar      10 UNK        -0.0863 
     10 C10        15.9352  -30.5024  -44.6578 C.ar      10 UNK        -0.1009 
     11 C11        16.3641  -30.9880  -43.4187 C.ar      10 UNK        -0.0712 
     12 C12        16.0036  -30.3098  -42.2490 C.ar      10 UNK        -0.0894 
     13 C13        15.2366  -29.1414  -42.3160 C.ar      10 UNK        -0.0745 
     14 C14        14.8190  -28.6654  -43.5610 C.ar      10 UNK        -0.0972 
     15 C15        14.8556  -28.3739  -41.0559 C.3       10 UNK         0.0209 
     16 S16        16.2873  -27.8186  -40.0713 S.3       10 UNK        -0.2568 
     17 C17        17.4308  -27.1061  -41.3091 C.3       10 UNK        -0.0983 
     18 CA         18.7473  -27.9235  -41.3877 C.3       3 UNK         0.0876 
     19 N          19.3913  -27.8193  -42.7037 N.am      3 UNK        -0.4424 
     20 C          20.4031  -28.5971  -43.1114 C.2       2 UNK         0.4918 
     21 O          20.8782  -29.4978  -42.4187 O.2       2 UNK        -0.4875 
     22 CA         21.0033  -28.3076  -44.5039 C.3       2 UNK         0.0481 
     23 CB         22.0639  -29.3478  -44.9095 C.3       2 UNK        -0.1831 
     24 N          20.0254  -28.2164  -45.5923 N.am      2 UNK        -0.4498 
     25 C          19.1943  -27.1955  -45.8390 C.2       1 UNK         0.5027 
     26 O          19.0105  -26.2579  -45.0565 O.2       1 UNK        -0.4969 
     27 C          19.7051  -27.5621  -40.2281 C.2       3 UNK         0.5005 
     28 O          19.5935  -28.1361  -39.1428 O.2       3 UNK        -0.5279 
     29 N          20.6355  -26.6277  -40.4781 N.am      4 UNK        -0.4463 
     30 CA         21.6976  -26.2406  -39.5502 C.3       4 UNK         0.0283 
     31 CB         22.4228  -24.9985  -40.0930 C.3       4 UNK        -0.1875 
     32 C          22.6917  -27.3932  -39.3488 C.2       4 UNK         0.4949 
     33 O          23.2040  -27.9264  -40.3349 O.2       4 UNK        -0.5039 
     34 N          22.9768  -27.7271  -38.0832 N.am      5 UNK        -0.4663 
     35 CA         23.8473  -28.8387  -37.6739 C.3       5 UNK         0.0242 
     36 CB         23.7645  -29.0059  -36.1480 C.3       5 UNK        -0.1982 
     37 C          25.3146  -28.7070  -38.1218 C.2       5 UNK         0.5017 
     38 O          26.0131  -29.7178  -38.1953 O.2       5 UNK        -0.5012 
     39 N          25.7471  -27.4769  -38.4333 N.am      6 UNK        -0.4439 
     40 CA         27.0428  -27.1722  -39.0444 C.3       6 UNK         0.0297 
     41 CB         27.2754  -25.6531  -39.0042 C.3       6 UNK        -0.2006 
     42 C          27.1723  -27.6981  -40.4877 C.2       6 UNK         0.4892 
     43 O          28.2936  -27.9540  -40.9282 O.2       6 UNK        -0.5089 
     44 N          26.0393  -27.8495  -41.1882 N.am      7 UNK        -0.4243 
     45 CA         25.9529  -28.4507  -42.5166 C.3       7 UNK         0.0196 
     46 CB         24.9950  -27.6250  -43.3947 C.3       7 UNK        -0.2007 
     47 C          25.4995  -29.9122  -42.3885 C.2       7 UNK         0.5020 
     48 O          26.2464  -30.8030  -42.7923 O.2       7 UNK        -0.5147 
     49 N          24.3140  -30.1076  -41.7883 N.am      8 UNK        -0.4734 
     50 CA         23.5908  -31.3580  -41.5183 C.3       8 UNK         0.0238 
     51 CB         24.4023  -32.2805  -40.5884 C.3       8 UNK        -0.1912 
     52 C          23.1264  -32.1158  -42.7795 C.2       8 UNK         0.5038 
     53 O          23.9067  -32.3312  -43.7087 O.2       8 UNK        -0.5046 
     54 N          21.8585  -32.5458  -42.7728 N.am      9 UNK        -0.4200 
     55 CA         21.2615  -33.4133  -43.8006 C.3       9 UNK         0.0839 
     56 C          21.8793  -34.8383  -43.7968 C.2       9 UNK         0.5513 
     57 N          22.0129  -35.4590  -44.9608 N.am      9 UNK        -0.7519 
     58 O          22.1926  -35.4004  -42.7490 O.2       9 UNK        -0.4960 
     59 C59        19.7193  -33.4934  -43.6593 C.3       10 UNK        -0.0876 
     60 S60        18.9214  -31.8757  -43.9077 S.3       10 UNK        -0.2414 
     61 C61        17.2291  -32.2366  -43.3530 C.3       10 UNK         0.0169 
     62 H62        18.8772  -23.4379  -49.6050 H         1 UNK         0.0903 
     63 H63        17.5698  -23.5155  -48.4222 H         1 UNK         0.0903 
     64 H64        19.1467  -22.8777  -47.9520 H         1 UNK         0.0903 
     65 H65        17.2412  -25.5804  -47.6012 H         1 UNK         0.3096 
     66 H66        19.1852  -27.6802  -47.9098 H         1 UNK         0.1121 
     67 H67        16.9933  -28.4240  -48.2388 H         1 UNK         0.0849 
     68 H68        17.4035  -29.0618  -46.6788 H         1 UNK         0.0849 
     69 H69        13.6690  -28.4936  -46.0133 H         1 UNK         0.0865 
     70 H70        14.7756  -29.5469  -46.8558 H         1 UNK         0.0865 
     71 H71        16.2164  -31.0252  -45.5619 H         1 UNK         0.1346 
     72 H72        16.3345  -30.6768  -41.2871 H         1 UNK         0.1412 
     73 H73        14.2317  -27.7591  -43.6238 H         1 UNK         0.1426 
     74 H74        14.2247  -29.0080  -40.4318 H         1 UNK         0.0716 
     75 H75        14.2547  -27.4978  -41.3047 H         1 UNK         0.0716 
     76 H76        17.6225  -26.0607  -41.0593 H         1 UNK         0.0695 
     77 H77        16.9379  -27.0828  -42.2814 H         1 UNK         0.0695 
     78 H78        18.4987  -28.9808  -41.2680 H         1 UNK         0.0983 
     79 H79        19.0521  -27.1071  -43.3445 H         1 UNK         0.3095 
     80 H80        21.5077  -27.3425  -44.4255 H         1 UNK         0.0454 
     81 H81        21.6274  -30.3401  -45.0289 H         1 UNK         0.0851 
     82 H82        22.8451  -29.4308  -44.1556 H         1 UNK         0.0851 
     83 H83        22.5528  -29.0784  -45.8456 H         1 UNK         0.0851 
     84 H84        20.0634  -28.9690  -46.2645 H         1 UNK         0.2976 
     85 H85        20.6759  -26.2344  -41.4065 H         1 UNK         0.3116 
     86 H86        21.2383  -25.9849  -38.5929 H         1 UNK         0.0646 
     87 H87        23.2050  -24.6715  -39.4067 H         1 UNK         0.0847 
     88 H88        21.7365  -24.1612  -40.2204 H         1 UNK         0.0847 
     89 H89        22.8968  -25.1939  -41.0561 H         1 UNK         0.0847 
     90 H90        22.5112  -27.2275  -37.3383 H         1 UNK         0.3040 
     91 H91        23.4577  -29.7465  -38.1404 H         1 UNK         0.1015 
     92 H92        22.7426  -29.2058  -35.8248 H         1 UNK         0.0786 
     93 H93        24.1163  -28.1160  -35.6245 H         1 UNK         0.0786 
     94 H94        24.3767  -29.8445  -35.8126 H         1 UNK         0.0786 
     95 H95        25.1026  -26.7092  -38.3148 H         1 UNK         0.3172 
     96 H96        27.8193  -27.6540  -38.4463 H         1 UNK         0.0595 
     97 H97        26.5199  -25.1121  -39.5755 H         1 UNK         0.0839 
     98 H98        28.2478  -25.3971  -39.4276 H         1 UNK         0.0839 
     99 H99        27.2607  -25.2748  -37.9818 H         1 UNK         0.0839 
    100 H100       25.1545  -27.6696  -40.7259 H         1 UNK         0.2998 
    101 H101       26.9327  -28.4440  -42.9996 H         1 UNK         0.0822 
    102 H102       23.9945  -27.5576  -42.9661 H         1 UNK         0.0787 
    103 H103       25.3652  -26.6084  -43.5275 H         1 UNK         0.0787 
    104 H104       24.9015  -28.0656  -44.3879 H         1 UNK         0.0787 
    105 H105       23.8195  -29.2768  -41.4684 H         1 UNK         0.3055 
    106 H106       22.6973  -31.0482  -40.9729 H         1 UNK         0.1106 
    107 H107       25.3112  -32.6433  -41.0692 H         1 UNK         0.0828 
    108 H108       24.6903  -31.7669  -39.6712 H         1 UNK         0.0828 
    109 H109       23.8180  -33.1559  -40.3022 H         1 UNK         0.0828 
    110 H110       21.2609  -32.3089  -41.9953 H         1 UNK         0.2931 
    111 H111       21.4842  -32.9598  -44.7690 H         1 UNK         0.0412 
    112 H112       21.7501  -35.0097  -45.8246 H         1 UNK         0.3472 
    113 H113       22.3963  -36.3915  -44.9785 H         1 UNK         0.3472 
    114 H114       19.3007  -34.1836  -44.3946 H         1 UNK         0.0970 
    115 H115       19.4446  -33.8857  -42.6782 H         1 UNK         0.0970 
    116 H116       17.2574  -32.6315  -42.3363 H         1 UNK         0.0612 
    117 H117       16.7984  -33.0170  -43.9821 H         1 UNK         0.0612 
@<TRIPOS>BOND
     1    1    2 1    
     2    1   62 1    
     3    1   63 1    
     4    1   64 1    
     5    2    3 2    
     6    2    4 am   BACKBONE|DICT|INTERRES
     7    4    5 1    
     8    4   65 1    
     9    5    6 1    
    10    5   25 1    
    11    5   66 1    
    12    6    7 1    
    13    6   67 1    
    14    6   68 1    
    15    7    8 1    
    16    8    9 1    
    17    8   69 1    
    18    8   70 1    
    19    9   10 ar   
    20    9   14 ar   
    21   10   11 ar   
    22   10   71 1    
    23   11   12 ar   
    24   11   61 1    
    25   12   13 ar   
    26   12   72 1    
    27   13   14 ar   
    28   13   15 1    
    29   14   73 1    
    30   15   16 1    
    31   15   74 1    
    32   15   75 1    
    33   16   17 1    
    34   17   18 1    
    35   17   76 1    
    36   17   77 1    
    37   18   19 1    
    38   18   27 1    
    39   18   78 1    
    40   19   20 am   BACKBONE|DICT|INTERRES
    41   19   79 1    
    42   20   21 2    
    43   20   22 1    
    44   22   23 1    
    45   22   24 1    
    46   22   80 1    
    47   23   81 1    
    48   23   82 1    
    49   23   83 1    
    50   24   25 am   BACKBONE|DICT|INTERRES
    51   24   84 1    
    52   25   26 2    
    53   27   28 2    
    54   27   29 am   BACKBONE|DICT|INTERRES
    55   29   30 1    
    56   29   85 1    
    57   30   31 1    
    58   30   32 1    
    59   30   86 1    
    60   31   87 1    
    61   31   88 1    
    62   31   89 1    
    63   32   33 2    
    64   32   34 am   BACKBONE|DICT|INTERRES
    65   34   35 1    
    66   34   90 1    
    67   35   36 1    
    68   35   37 1    
    69   35   91 1    
    70   36   92 1    
    71   36   93 1    
    72   36   94 1    
    73   37   38 2    
    74   37   39 am   BACKBONE|DICT|INTERRES
    75   39   40 1    
    76   39   95 1    
    77   40   41 1    
    78   40   42 1    
    79   40   96 1    
    80   41   97 1    
    81   41   98 1    
    82   41   99 1    
    83   42   43 2    
    84   42   44 am   BACKBONE|DICT|INTERRES
    85   44   45 1    
    86   44  100 1    
    87   45   46 1    
    88   45   47 1    
    89   45  101 1    
    90   46  102 1    
    91   46  103 1    
    92   46  104 1    
    93   47   48 2    
    94   47   49 am   BACKBONE|DICT|INTERRES
    95   49   50 1    
    96   49  105 1    
    97   50   51 1    
    98   50   52 1    
    99   50  106 1    
   100   51  107 1    
   101   51  108 1    
   102   51  109 1    
   103   52   53 2    
   104   52   54 am   BACKBONE|DICT|INTERRES
   105   54   55 1    
   106   54  110 1    
   107   55   56 1    
   108   55   59 1    
   109   55  111 1    
   110   56   57 am   BACKBONE|DICT|INTERRES
   111   56   58 2    
   112   57  112 1    
   113   57  113 1    
   114   59   60 1    
   115   59  114 1    
   116   59  115 1    
   117   60   61 1    
   118   61  116 1    
   119   61  117 1    
@<TRIPOS>SUBSTRUCTURE
     1 UNK         1 GROUP             0       ****    0 ROOT    
