@<TRIPOS>MOLECULE
3R8
117   119    1
SMALL
USER_CHARGES


@<TRIPOS>ATOM
      1 CA         22.1995  -25.0038  -48.6332 C.3       0 UNK        -0.2013 
      2 C          21.1565  -23.9079  -48.4303 C.2       0 UNK         0.4866 
      3 O          21.1222  -22.9545  -49.2060 O.2       0 UNK        -0.5176 
      4 N          20.2940  -23.9893  -47.4110 N.am      1 UNK        -0.4884 
      5 CA         20.2301  -25.0238  -46.3806 C.3       1 UNK         0.0853 
      6 C6         19.3421  -26.2173  -46.8231 C.3       10 UNK        -0.0849 
      7 S7         19.5526  -27.6781  -45.7535 S.3       10 UNK        -0.2776 
      8 C8         18.1661  -28.7173  -46.3053 C.3       10 UNK         0.0316 
      9 C9         17.9385  -29.8523  -45.3210 C.ar      10 UNK        -0.0863 
     10 C10        18.6215  -31.0640  -45.4635 C.ar      10 UNK        -0.1009 
     11 C11        18.4539  -32.0975  -44.5349 C.ar      10 UNK        -0.0712 
     12 C12        17.5916  -31.8939  -43.4481 C.ar      10 UNK        -0.0894 
     13 C13        16.9136  -30.6823  -43.2890 C.ar      10 UNK        -0.0745 
     14 C14        17.0686  -29.6743  -44.2430 C.ar      10 UNK        -0.0972 
     15 C15        16.0546  -30.4500  -42.0562 C.3       10 UNK         0.0209 
     16 S16        17.0886  -30.0717  -40.6030 S.3       10 UNK        -0.2568 
     17 C17        17.6422  -28.3650  -40.9494 C.3       10 UNK        -0.0983 
     18 CA         18.9828  -28.2709  -41.7371 C.3       3 UNK         0.0876 
     19 N          19.1581  -26.9594  -42.3685 N.am      3 UNK        -0.4424 
     20 C          19.3972  -25.8018  -41.7307 C.2       2 UNK         0.4918 
     21 O          19.4495  -25.7002  -40.5041 O.2       2 UNK        -0.4875 
     22 CA         19.6392  -24.5563  -42.6037 C.3       2 UNK         0.0481 
     23 CB         20.6441  -23.5800  -41.9632 C.3       2 UNK        -0.1831 
     24 N          20.0987  -24.9337  -43.9422 N.am      2 UNK        -0.4498 
     25 C          19.7082  -24.3667  -45.0892 C.2       1 UNK         0.5027 
     26 O          18.9551  -23.3910  -45.1602 O.2       1 UNK        -0.4969 
     27 C          20.2557  -28.6714  -40.9631 C.2       3 UNK         0.5005 
     28 O          21.3549  -28.4962  -41.4969 O.2       3 UNK        -0.5279 
     29 N          20.1099  -29.1716  -39.7297 N.am      4 UNK        -0.4463 
     30 CA         21.1888  -29.6476  -38.8573 C.3       4 UNK         0.0283 
     31 CB         20.5861  -30.1350  -37.5309 C.3       4 UNK        -0.1875 
     32 C          22.3211  -28.6354  -38.5937 C.2       4 UNK         0.4949 
     33 O          23.4357  -29.0539  -38.2835 O.2       4 UNK        -0.5039 
     34 N          22.0318  -27.3360  -38.7442 N.am      5 UNK        -0.4663 
     35 CA         22.9973  -26.2460  -38.6065 C.3       5 UNK         0.0242 
     36 CB         22.2322  -24.9339  -38.3660 C.3       5 UNK        -0.1982 
     37 C          23.9596  -26.0960  -39.8017 C.2       5 UNK         0.5017 
     38 O          24.9596  -25.3925  -39.6500 O.2       5 UNK        -0.5012 
     39 N          23.6592  -26.7160  -40.9549 N.am      6 UNK        -0.4439 
     40 CA         24.4643  -26.5903  -42.1771 C.3       6 UNK         0.0297 
     41 CB         23.8510  -25.5263  -43.1036 C.3       6 UNK        -0.2006 
     42 C          24.6493  -27.9184  -42.9228 C.2       6 UNK         0.4892 
     43 O          25.7729  -28.2291  -43.3195 O.2       6 UNK        -0.5089 
     44 N          23.5598  -28.6701  -43.1210 N.am      7 UNK        -0.4243 
     45 CA         23.5520  -29.9358  -43.8585 C.3       7 UNK         0.0196 
     46 CB         22.1723  -30.1257  -44.5118 C.3       7 UNK        -0.2007 
     47 C          23.8839  -31.1448  -42.9725 C.2       7 UNK         0.5020 
     48 O          24.2268  -32.1984  -43.5104 O.2       7 UNK        -0.5147 
     49 N          23.7382  -30.9938  -41.6467 N.am      8 UNK        -0.4734 
     50 CA         23.8623  -32.0068  -40.5854 C.3       8 UNK         0.0238 
     51 CB         25.2615  -32.6541  -40.5585 C.3       8 UNK        -0.1912 
     52 C          22.7451  -33.0654  -40.6281 C.2       8 UNK         0.5038 
     53 O          22.0581  -33.2558  -39.6249 O.2       8 UNK        -0.5046 
     54 N          22.5665  -33.6999  -41.7929 N.am      9 UNK        -0.4200 
     55 CA         21.5164  -34.6766  -42.1161 C.3       9 UNK         0.0839 
     56 C          21.5894  -36.0123  -41.3119 C.2       9 UNK         0.5513 
     57 N          22.7405  -36.3800  -40.7612 N.am      9 UNK        -0.7519 
     58 O          20.6063  -36.7404  -41.2016 O.2       9 UNK        -0.4960 
     59 C59        20.1038  -34.0195  -42.1361 C.3       10 UNK        -0.0876 
     60 S60        19.0485  -34.6857  -43.4693 S.3       10 UNK        -0.2414 
     61 C61        19.2297  -33.4000  -44.7572 C.3       10 UNK         0.0169 
     62 H62        22.9859  -24.9251  -47.8832 H         1 UNK         0.0903 
     63 H63        21.7585  -25.9977  -48.5757 H         1 UNK         0.0903 
     64 H64        22.6644  -24.9092  -49.6144 H         1 UNK         0.0903 
     65 H65        19.6393  -23.2325  -47.2510 H         1 UNK         0.3096 
     66 H66        21.2425  -25.3786  -46.1766 H         1 UNK         0.1121 
     67 H67        18.2896  -25.9267  -46.8482 H         1 UNK         0.0849 
     68 H68        19.5885  -26.5217  -47.8409 H         1 UNK         0.0849 
     69 H69        17.2605  -28.1150  -46.3940 H         1 UNK         0.0865 
     70 H70        18.3764  -29.1101  -47.3013 H         1 UNK         0.0865 
     71 H71        19.2981  -31.1983  -46.2969 H         1 UNK         0.1346 
     72 H72        17.4522  -32.6615  -42.7010 H         1 UNK         0.1412 
     73 H73        16.5523  -28.7319  -44.1186 H         1 UNK         0.1426 
     74 H74        15.3357  -29.6461  -42.2221 H         1 UNK         0.0716 
     75 H75        15.4679  -31.3461  -41.8486 H         1 UNK         0.0716 
     76 H76        17.7026  -27.8153  -40.0084 H         1 UNK         0.0695 
     77 H77        16.8513  -27.8709  -41.5157 H         1 UNK         0.0695 
     78 H78        18.9511  -28.9811  -42.5603 H         1 UNK         0.0983 
     79 H79        19.1298  -26.9605  -43.3787 H         1 UNK         0.3095 
     80 H80        18.6736  -24.0525  -42.6797 H         1 UNK         0.0454 
     81 H81        20.8185  -22.7129  -42.6001 H         1 UNK         0.0851 
     82 H82        20.2729  -23.2067  -41.0080 H         1 UNK         0.0851 
     83 H83        21.6049  -24.0579  -41.7736 H         1 UNK         0.0851 
     84 H84        20.7129  -25.7349  -43.9857 H         1 UNK         0.2976 
     85 H85        19.1654  -29.2928  -39.3883 H         1 UNK         0.3116 
     86 H86        21.6348  -30.5057  -39.3582 H         1 UNK         0.0646 
     87 H87        19.8671  -30.9385  -37.6923 H         1 UNK         0.0847 
     88 H88        21.3609  -30.5275  -36.8705 H         1 UNK         0.0847 
     89 H89        20.0798  -29.3297  -36.9973 H         1 UNK         0.0847 
     90 H90        21.0942  -27.0800  -39.0253 H         1 UNK         0.3040 
     91 H91        23.6128  -26.4445  -37.7261 H         1 UNK         0.1015 
     92 H92        21.6021  -24.6726  -39.2161 H         1 UNK         0.0786 
     93 H93        22.9202  -24.1028  -38.2041 H         1 UNK         0.0786 
     94 H94        21.5951  -25.0007  -37.4839 H         1 UNK         0.0786 
     95 H95        22.8288  -27.3001  -40.9959 H         1 UNK         0.3172 
     96 H96        25.4718  -26.2569  -41.9186 H         1 UNK         0.0595 
     97 H97        22.8228  -25.7686  -43.3686 H         1 UNK         0.0839 
     98 H98        24.4173  -25.4410  -44.0322 H         1 UNK         0.0839 
     99 H99        23.8570  -24.5431  -42.6331 H         1 UNK         0.0839 
    100 H100       22.6727  -28.3968  -42.7030 H         1 UNK         0.2998 
    101 H101       24.3002  -29.8975  -44.6534 H         1 UNK         0.0822 
    102 H102       22.1246  -31.0635  -45.0670 H         1 UNK         0.0787 
    103 H103       21.3685  -30.1439  -43.7744 H         1 UNK         0.0787 
    104 H104       21.9613  -29.3246  -45.2191 H         1 UNK         0.0787 
    105 H105       23.4173  -30.0871  -41.3361 H         1 UNK         0.3055 
    106 H106       23.7498  -31.4696  -39.6426 H         1 UNK         0.1106 
    107 H107       25.3627  -33.3191  -39.6999 H         1 UNK         0.0828 
    108 H108       25.4641  -33.2477  -41.4500 H         1 UNK         0.0828 
    109 H109       26.0432  -31.8991  -40.4757 H         1 UNK         0.0828 
    110 H110       23.1874  -33.4401  -42.5551 H         1 UNK         0.2931 
    111 H111       21.7572  -34.9677  -43.1392 H         1 UNK         0.0412 
    112 H112       22.7887  -37.2466  -40.2483 H         1 UNK         0.3472 
    113 H113       23.5586  -35.7993  -40.8515 H         1 UNK         0.3472 
    114 H114       19.5979  -34.1449  -41.1770 H         1 UNK         0.0970 
    115 H115       20.1835  -32.9403  -42.2778 H         1 UNK         0.0970 
    116 H116       20.2904  -33.1719  -44.8738 H         1 UNK         0.0612 
    117 H117       18.9024  -33.8319  -45.7038 H         1 UNK         0.0612 
@<TRIPOS>BOND
     1    1    2 1    
     2    1   62 1    
     3    1   63 1    
     4    1   64 1    
     5    2    3 2    
     6    2    4 am   BACKBONE|DICT|INTERRES
     7    4    5 1    
     8    4   65 1    
     9    5    6 1    
    10    5   25 1    
    11    5   66 1    
    12    6    7 1    
    13    6   67 1    
    14    6   68 1    
    15    7    8 1    
    16    8    9 1    
    17    8   69 1    
    18    8   70 1    
    19    9   10 ar   
    20    9   14 ar   
    21   10   11 ar   
    22   10   71 1    
    23   11   12 ar   
    24   11   61 1    
    25   12   13 ar   
    26   12   72 1    
    27   13   14 ar   
    28   13   15 1    
    29   14   73 1    
    30   15   16 1    
    31   15   74 1    
    32   15   75 1    
    33   16   17 1    
    34   17   18 1    
    35   17   76 1    
    36   17   77 1    
    37   18   19 1    
    38   18   27 1    
    39   18   78 1    
    40   19   20 am   BACKBONE|DICT|INTERRES
    41   19   79 1    
    42   20   21 2    
    43   20   22 1    
    44   22   23 1    
    45   22   24 1    
    46   22   80 1    
    47   23   81 1    
    48   23   82 1    
    49   23   83 1    
    50   24   25 am   BACKBONE|DICT|INTERRES
    51   24   84 1    
    52   25   26 2    
    53   27   28 2    
    54   27   29 am   BACKBONE|DICT|INTERRES
    55   29   30 1    
    56   29   85 1    
    57   30   31 1    
    58   30   32 1    
    59   30   86 1    
    60   31   87 1    
    61   31   88 1    
    62   31   89 1    
    63   32   33 2    
    64   32   34 am   BACKBONE|DICT|INTERRES
    65   34   35 1    
    66   34   90 1    
    67   35   36 1    
    68   35   37 1    
    69   35   91 1    
    70   36   92 1    
    71   36   93 1    
    72   36   94 1    
    73   37   38 2    
    74   37   39 am   BACKBONE|DICT|INTERRES
    75   39   40 1    
    76   39   95 1    
    77   40   41 1    
    78   40   42 1    
    79   40   96 1    
    80   41   97 1    
    81   41   98 1    
    82   41   99 1    
    83   42   43 2    
    84   42   44 am   BACKBONE|DICT|INTERRES
    85   44   45 1    
    86   44  100 1    
    87   45   46 1    
    88   45   47 1    
    89   45  101 1    
    90   46  102 1    
    91   46  103 1    
    92   46  104 1    
    93   47   48 2    
    94   47   49 am   BACKBONE|DICT|INTERRES
    95   49   50 1    
    96   49  105 1    
    97   50   51 1    
    98   50   52 1    
    99   50  106 1    
   100   51  107 1    
   101   51  108 1    
   102   51  109 1    
   103   52   53 2    
   104   52   54 am   BACKBONE|DICT|INTERRES
   105   54   55 1    
   106   54  110 1    
   107   55   56 1    
   108   55   59 1    
   109   55  111 1    
   110   56   57 am   BACKBONE|DICT|INTERRES
   111   56   58 2    
   112   57  112 1    
   113   57  113 1    
   114   59   60 1    
   115   59  114 1    
   116   59  115 1    
   117   60   61 1    
   118   61  116 1    
   119   61  117 1    
@<TRIPOS>SUBSTRUCTURE
     1 UNK         1 GROUP             0       ****    0 ROOT    
