@<TRIPOS>MOLECULE
3R8
117   119    1
SMALL
USER_CHARGES


@<TRIPOS>ATOM
      1 CA         18.3092  -22.8451  -41.2517 C.3       0 UNK        -0.2013 
      2 C          19.2341  -24.0221  -40.9532 C.2       0 UNK         0.4866 
      3 O          20.0720  -23.9182  -40.0595 O.2       0 UNK        -0.5176 
      4 N          19.1178  -25.1574  -41.6546 N.am      1 UNK        -0.4884 
      5 CA         18.2294  -25.4150  -42.7941 C.3       1 UNK         0.0853 
      6 C6         17.9916  -26.9382  -42.9382 C.3       10 UNK        -0.0849 
      7 S7         16.4773  -27.3615  -43.8715 S.3       10 UNK        -0.2776 
      8 C8         16.3798  -29.1648  -43.6194 C.3       10 UNK         0.0316 
      9 C9         17.7000  -29.8493  -43.9397 C.ar      10 UNK        -0.0863 
     10 C10        18.5251  -30.2940  -42.9042 C.ar      10 UNK        -0.1009 
     11 C11        19.7674  -30.8685  -43.1818 C.ar      10 UNK        -0.0712 
     12 C12        20.1878  -30.9938  -44.5095 C.ar      10 UNK        -0.0894 
     13 C13        19.3675  -30.5550  -45.5556 C.ar      10 UNK        -0.0745 
     14 C14        18.1182  -29.9975  -45.2642 C.ar      10 UNK        -0.0972 
     15 C15        19.8316  -30.6739  -47.0014 C.3       10 UNK         0.0209 
     16 S16        19.9227  -29.0569  -47.8394 S.3       10 UNK        -0.2568 
     17 C17        21.2492  -28.2327  -46.8979 C.3       10 UNK        -0.0983 
     18 CA         21.2834  -26.7022  -47.1419 C.3       3 UNK         0.0876 
     19 N          20.0198  -26.0664  -46.7497 N.am      3 UNK        -0.4424 
     20 C          19.5972  -24.8634  -47.1590 C.2       2 UNK         0.4918 
     21 O          20.1939  -24.1755  -47.9872 O.2       2 UNK        -0.4875 
     22 CA         18.3120  -24.3127  -46.5095 C.3       2 UNK         0.0481 
     23 CB         17.1075  -24.5512  -47.4336 C.3       2 UNK        -0.1831 
     24 N          18.0074  -24.8530  -45.1769 N.am      2 UNK        -0.4498 
     25 C          18.7947  -24.7924  -44.0932 C.2       1 UNK         0.5027 
     26 O          19.9238  -24.2959  -44.1070 O.2       1 UNK        -0.4969 
     27 C          22.5174  -26.0778  -46.4455 C.2       3 UNK         0.5005 
     28 O          23.6379  -26.4716  -46.7732 O.2       3 UNK        -0.5279 
     29 N          22.3060  -25.1507  -45.4940 N.am      4 UNK        -0.4463 
     30 CA         23.2961  -24.5542  -44.5888 C.3       4 UNK         0.0283 
     31 CB         24.3685  -23.7523  -45.3572 C.3       4 UNK        -0.1875 
     32 C          23.8811  -25.6082  -43.6315 C.2       4 UNK         0.4949 
     33 O          25.0943  -25.6594  -43.4221 O.2       4 UNK        -0.5039 
     34 N          22.9928  -26.4434  -43.0820 N.am      5 UNK        -0.4663 
     35 CA         23.3034  -27.5439  -42.1787 C.3       5 UNK         0.0242 
     36 CB         23.5432  -28.8245  -42.9999 C.3       5 UNK        -0.1982 
     37 C          22.1388  -27.7356  -41.2025 C.2       5 UNK         0.5017 
     38 O          21.0094  -27.3393  -41.5029 O.2       5 UNK        -0.5012 
     39 N          22.4381  -28.3710  -40.0686 N.am      6 UNK        -0.4439 
     40 CA         21.5000  -28.7844  -39.0332 C.3       6 UNK         0.0297 
     41 CB         21.1922  -27.6092  -38.0890 C.3       6 UNK        -0.2006 
     42 C          22.1575  -29.9465  -38.2821 C.2       6 UNK         0.4892 
     43 O          23.3829  -29.9425  -38.1342 O.2       6 UNK        -0.5089 
     44 N          21.3454  -30.9150  -37.8371 N.am      7 UNK        -0.4243 
     45 CA         21.6821  -32.1158  -37.0503 C.3       7 UNK         0.0196 
     46 CB         22.2503  -31.7318  -35.6702 C.3       7 UNK        -0.2007 
     47 C          22.5945  -33.1498  -37.7423 C.2       7 UNK         0.5020 
     48 O          22.3498  -34.3480  -37.6019 O.2       7 UNK        -0.5147 
     49 N          23.6146  -32.6922  -38.4792 N.am      8 UNK        -0.4734 
     50 CA         24.6265  -33.5040  -39.1713 C.3       8 UNK         0.0238 
     51 CB         25.6754  -32.5668  -39.7919 C.3       8 UNK        -0.1912 
     52 C          24.0633  -34.4585  -40.2408 C.2       8 UNK         0.5038 
     53 O          24.6897  -35.4772  -40.5349 O.2       8 UNK        -0.5046 
     54 N          22.8913  -34.1159  -40.7843 N.am      9 UNK        -0.4200 
     55 CA         22.0695  -34.9533  -41.6680 C.3       9 UNK         0.0839 
     56 C          21.3882  -36.1692  -40.9703 C.2       9 UNK         0.5513 
     57 N          21.3830  -36.2747  -39.6461 N.am      9 UNK        -0.7519 
     58 O          20.8631  -37.0458  -41.6521 O.2       9 UNK        -0.4960 
     59 C59        21.0474  -34.0950  -42.4629 C.3       10 UNK        -0.0876 
     60 S60        20.0986  -32.9470  -41.3995 S.3       10 UNK        -0.2414 
     61 C61        20.6465  -31.3325  -42.0329 C.3       10 UNK         0.0169 
     62 H62        17.2664  -23.1185  -41.0942 H         1 UNK         0.0903 
     63 H63        18.5332  -22.0080  -40.5905 H         1 UNK         0.0903 
     64 H64        18.4350  -22.4968  -42.2761 H         1 UNK         0.0903 
     65 H65        19.7784  -25.9080  -41.4634 H         1 UNK         0.3096 
     66 H66        17.2672  -24.9408  -42.5925 H         1 UNK         0.1121 
     67 H67        17.8894  -27.3904  -41.9497 H         1 UNK         0.0849 
     68 H68        18.8580  -27.4220  -43.3947 H         1 UNK         0.0849 
     69 H69        16.0802  -29.3658  -42.5896 H         1 UNK         0.0865 
     70 H70        15.5909  -29.5739  -44.2523 H         1 UNK         0.0865 
     71 H71        18.2090  -30.1806  -41.8762 H         1 UNK         0.1346 
     72 H72        21.1541  -31.4275  -44.7271 H         1 UNK         0.1412 
     73 H73        17.4862  -29.6457  -46.0685 H         1 UNK         0.1426 
     74 H74        19.1344  -31.3133  -47.5445 H         1 UNK         0.0716 
     75 H75        20.8067  -31.1599  -47.0619 H         1 UNK         0.0716 
     76 H76        21.1231  -28.4397  -45.8336 H         1 UNK         0.0695 
     77 H77        22.1931  -28.6964  -47.1913 H         1 UNK         0.0695 
     78 H78        21.4232  -26.5369  -48.2126 H         1 UNK         0.0983 
     79 H79        19.4469  -26.5809  -46.0976 H         1 UNK         0.3095 
     80 H80        18.4461  -23.2351  -46.3963 H         1 UNK         0.0454 
     81 H81        17.2877  -24.1367  -48.4266 H         1 UNK         0.0851 
     82 H82        16.8988  -25.6146  -47.5579 H         1 UNK         0.0851 
     83 H83        16.2072  -24.0743  -47.0460 H         1 UNK         0.0851 
     84 H84        17.1183  -25.3273  -45.0809 H         1 UNK         0.2976 
     85 H85        21.3454  -24.8967  -45.2799 H         1 UNK         0.3116 
     86 H86        22.7475  -23.8474  -43.9641 H         1 UNK         0.0646 
     87 H87        25.0079  -23.2011  -44.6668 H         1 UNK         0.0847 
     88 H88        23.9142  -23.0246  -46.0292 H         1 UNK         0.0847 
     89 H89        25.0176  -24.3978  -45.9493 H         1 UNK         0.0847 
     90 H90        22.0044  -26.2962  -43.2416 H         1 UNK         0.3040 
     91 H91        24.1996  -27.3016  -41.6025 H         1 UNK         0.1015 
     92 H92        22.6600  -29.1015  -43.5775 H         1 UNK         0.0786 
     93 H93        23.7914  -29.6679  -42.3544 H         1 UNK         0.0786 
     94 H94        24.3709  -28.6979  -43.6982 H         1 UNK         0.0786 
     95 H95        23.3863  -28.6858  -39.8978 H         1 UNK         0.3172 
     96 H96        20.5719  -29.1272  -39.4936 H         1 UNK         0.0595 
     97 H97        20.5013  -27.9112  -37.3009 H         1 UNK         0.0839 
     98 H98        20.7297  -26.7793  -38.6245 H         1 UNK         0.0839 
     99 H99        22.0954  -27.2334  -37.6066 H         1 UNK         0.0839 
    100 H100       20.3613  -30.8224  -38.0501 H         1 UNK         0.2998 
    101 H101       20.7308  -32.6221  -36.8777 H         1 UNK         0.0822 
    102 H102       21.5673  -31.0778  -35.1281 H         1 UNK         0.0787 
    103 H103       22.4074  -32.6180  -35.0536 H         1 UNK         0.0787 
    104 H104       23.2103  -31.2208  -35.7513 H         1 UNK         0.0787 
    105 H105       23.7410  -31.6816  -38.4944 H         1 UNK         0.3055 
    106 H106       25.1182  -34.1246  -38.4192 H         1 UNK         0.1106 
    107 H107       25.2323  -31.9001  -40.5328 H         1 UNK         0.0828 
    108 H108       26.1567  -31.9509  -39.0320 H         1 UNK         0.0828 
    109 H109       26.4615  -33.1347  -40.2918 H         1 UNK         0.0828 
    110 H110       22.4470  -33.2722  -40.4550 H         1 UNK         0.2931 
    111 H111       22.7483  -35.3919  -42.4020 H         1 UNK         0.0412 
    112 H112       20.9408  -37.0739  -39.2208 H         1 UNK         0.3472 
    113 H113       21.7998  -35.5611  -39.0572 H         1 UNK         0.3472 
    114 H114       20.3458  -34.7230  -43.0155 H         1 UNK         0.0970 
    115 H115       21.5781  -33.5275  -43.2279 H         1 UNK         0.0970 
    116 H116       21.6967  -31.3693  -42.3257 H         1 UNK         0.0612 
    117 H117       20.5862  -30.6061  -41.2246 H         1 UNK         0.0612 
@<TRIPOS>BOND
     1    1    2 1    
     2    1   62 1    
     3    1   63 1    
     4    1   64 1    
     5    2    3 2    
     6    2    4 am   BACKBONE|DICT|INTERRES
     7    4    5 1    
     8    4   65 1    
     9    5    6 1    
    10    5   25 1    
    11    5   66 1    
    12    6    7 1    
    13    6   67 1    
    14    6   68 1    
    15    7    8 1    
    16    8    9 1    
    17    8   69 1    
    18    8   70 1    
    19    9   10 ar   
    20    9   14 ar   
    21   10   11 ar   
    22   10   71 1    
    23   11   12 ar   
    24   11   61 1    
    25   12   13 ar   
    26   12   72 1    
    27   13   14 ar   
    28   13   15 1    
    29   14   73 1    
    30   15   16 1    
    31   15   74 1    
    32   15   75 1    
    33   16   17 1    
    34   17   18 1    
    35   17   76 1    
    36   17   77 1    
    37   18   19 1    
    38   18   27 1    
    39   18   78 1    
    40   19   20 am   BACKBONE|DICT|INTERRES
    41   19   79 1    
    42   20   21 2    
    43   20   22 1    
    44   22   23 1    
    45   22   24 1    
    46   22   80 1    
    47   23   81 1    
    48   23   82 1    
    49   23   83 1    
    50   24   25 am   BACKBONE|DICT|INTERRES
    51   24   84 1    
    52   25   26 2    
    53   27   28 2    
    54   27   29 am   BACKBONE|DICT|INTERRES
    55   29   30 1    
    56   29   85 1    
    57   30   31 1    
    58   30   32 1    
    59   30   86 1    
    60   31   87 1    
    61   31   88 1    
    62   31   89 1    
    63   32   33 2    
    64   32   34 am   BACKBONE|DICT|INTERRES
    65   34   35 1    
    66   34   90 1    
    67   35   36 1    
    68   35   37 1    
    69   35   91 1    
    70   36   92 1    
    71   36   93 1    
    72   36   94 1    
    73   37   38 2    
    74   37   39 am   BACKBONE|DICT|INTERRES
    75   39   40 1    
    76   39   95 1    
    77   40   41 1    
    78   40   42 1    
    79   40   96 1    
    80   41   97 1    
    81   41   98 1    
    82   41   99 1    
    83   42   43 2    
    84   42   44 am   BACKBONE|DICT|INTERRES
    85   44   45 1    
    86   44  100 1    
    87   45   46 1    
    88   45   47 1    
    89   45  101 1    
    90   46  102 1    
    91   46  103 1    
    92   46  104 1    
    93   47   48 2    
    94   47   49 am   BACKBONE|DICT|INTERRES
    95   49   50 1    
    96   49  105 1    
    97   50   51 1    
    98   50   52 1    
    99   50  106 1    
   100   51  107 1    
   101   51  108 1    
   102   51  109 1    
   103   52   53 2    
   104   52   54 am   BACKBONE|DICT|INTERRES
   105   54   55 1    
   106   54  110 1    
   107   55   56 1    
   108   55   59 1    
   109   55  111 1    
   110   56   57 am   BACKBONE|DICT|INTERRES
   111   56   58 2    
   112   57  112 1    
   113   57  113 1    
   114   59   60 1    
   115   59  114 1    
   116   59  115 1    
   117   60   61 1    
   118   61  116 1    
   119   61  117 1    
@<TRIPOS>SUBSTRUCTURE
     1 UNK         1 GROUP             0       ****    0 ROOT    
