@<TRIPOS>MOLECULE
3R8
117   119    1
SMALL
USER_CHARGES


@<TRIPOS>ATOM
      1 CA         16.8385  -25.1472  -41.8663 C.3       0 UNK        -0.2013 
      2 C          17.4690  -25.7708  -43.1002 C.2       0 UNK         0.4866 
      3 O          17.9470  -26.9004  -43.0282 O.2       0 UNK        -0.5176 
      4 N          17.4863  -25.0248  -44.2140 N.am      1 UNK        -0.4884 
      5 CA         17.9450  -25.3481  -45.5801 C.3       1 UNK         0.0853 
      6 C6         16.9573  -26.2615  -46.3709 C.3       10 UNK        -0.0849 
      7 S7         17.2065  -28.0689  -46.2263 S.3       10 UNK        -0.2776 
      8 C8         15.7912  -28.5916  -45.2097 C.3       10 UNK         0.0316 
      9 C9         16.1713  -29.7981  -44.3658 C.ar      10 UNK        -0.0863 
     10 C10        16.3891  -31.0432  -44.9619 C.ar      10 UNK        -0.1009 
     11 C11        16.8171  -32.1318  -44.1952 C.ar      10 UNK        -0.0712 
     12 C12        17.0109  -31.9724  -42.8186 C.ar      10 UNK        -0.0894 
     13 C13        16.7952  -30.7310  -42.2127 C.ar      10 UNK        -0.0745 
     14 C14        16.3550  -29.6567  -42.9893 C.ar      10 UNK        -0.0972 
     15 C15        17.0480  -30.5379  -40.7241 C.3       10 UNK         0.0209 
     16 S16        18.2376  -29.1954  -40.3932 S.3       10 UNK        -0.2568 
     17 C17        19.8191  -29.9482  -40.9137 C.3       10 UNK        -0.0983 
     18 CA         20.9142  -28.9428  -41.3606 C.3       3 UNK         0.0876 
     19 N          20.6626  -28.3619  -42.6885 N.am      3 UNK        -0.4424 
     20 C          21.5979  -27.7105  -43.4026 C.2       2 UNK         0.4918 
     21 O          22.7201  -27.4510  -42.9677 O.2       2 UNK        -0.4875 
     22 CA         21.2343  -27.2364  -44.8128 C.3       2 UNK         0.0481 
     23 CB         21.3244  -28.3976  -45.8186 C.3       2 UNK        -0.1831 
     24 N          19.9057  -26.6393  -44.8359 N.am      2 UNK        -0.4498 
     25 C          19.4305  -25.7661  -45.7266 C.2       1 UNK         0.5027 
     26 O          20.1040  -25.2929  -46.6439 O.2       1 UNK        -0.4969 
     27 C          21.2396  -27.8885  -40.2800 C.2       3 UNK         0.5005 
     28 O          21.9659  -28.1940  -39.3354 O.2       3 UNK        -0.5279 
     29 N          20.7466  -26.6557  -40.4640 N.am      4 UNK        -0.4463 
     30 CA         21.0517  -25.4995  -39.6188 C.3       4 UNK         0.0283 
     31 CB         20.1068  -24.3445  -39.9878 C.3       4 UNK        -0.1875 
     32 C          22.5204  -25.0371  -39.6976 C.2       4 UNK         0.4949 
     33 O          22.9877  -24.3909  -38.7595 O.2       4 UNK        -0.5039 
     34 N          23.2123  -25.3553  -40.8011 N.am      5 UNK        -0.4663 
     35 CA         24.6023  -24.9691  -41.0512 C.3       5 UNK         0.0242 
     36 CB         24.6941  -24.2836  -42.4254 C.3       5 UNK        -0.1982 
     37 C          25.5498  -26.1752  -40.9903 C.2       5 UNK         0.5017 
     38 O          26.5953  -26.0886  -40.3461 O.2       5 UNK        -0.5012 
     39 N          25.1808  -27.2684  -41.6702 N.am      6 UNK        -0.4439 
     40 CA         26.0175  -28.4539  -41.8745 C.3       6 UNK         0.0297 
     41 CB         25.8141  -28.9409  -43.3204 C.3       6 UNK        -0.2006 
     42 C          25.7430  -29.5876  -40.8695 C.2       6 UNK         0.4892 
     43 O          26.3228  -30.6625  -41.0218 O.2       6 UNK        -0.5089 
     44 N          24.8529  -29.3581  -39.8918 N.am      7 UNK        -0.4243 
     45 CA         24.3696  -30.2809  -38.8483 C.3       7 UNK         0.0196 
     46 CB         25.5261  -30.8808  -38.0226 C.3       7 UNK        -0.2007 
     47 C          23.4098  -31.3776  -39.3524 C.2       7 UNK         0.5020 
     48 O          22.6319  -31.9016  -38.5550 O.2       7 UNK        -0.5147 
     49 N          23.4450  -31.6913  -40.6503 N.am      8 UNK        -0.4734 
     50 CA         22.5544  -32.6142  -41.3448 C.3       8 UNK         0.0238 
     51 CB         23.0684  -34.0565  -41.1839 C.3       8 UNK        -0.1912 
     52 C          22.4966  -32.2086  -42.8223 C.2       8 UNK         0.5038 
     53 O          23.3962  -31.5132  -43.2994 O.2       8 UNK        -0.5046 
     54 N          21.4497  -32.6594  -43.5189 N.am      9 UNK        -0.4200 
     55 CA         21.2547  -32.4670  -44.9655 C.3       9 UNK         0.0839 
     56 C          22.1043  -33.4043  -45.8738 C.2       9 UNK         0.5513 
     57 N          22.8204  -34.3863  -45.3387 N.am      9 UNK        -0.7519 
     58 O          22.1249  -33.2259  -47.0889 O.2       9 UNK        -0.4960 
     59 C59        19.7498  -32.4903  -45.3425 C.3       10 UNK        -0.0876 
     60 S60        18.8621  -33.9607  -44.7066 S.3       10 UNK        -0.2414 
     61 C61        17.1142  -33.4650  -44.8685 C.3       10 UNK         0.0169 
     62 H62        17.1299  -24.1027  -41.7580 H         1 UNK         0.0903 
     63 H63        15.7522  -25.2017  -41.9310 H         1 UNK         0.0903 
     64 H64        17.1494  -25.6814  -40.9686 H         1 UNK         0.0903 
     65 H65        17.1041  -24.0916  -44.1377 H         1 UNK         0.3096 
     66 H66        17.8991  -24.3775  -46.0782 H         1 UNK         0.1121 
     67 H67        17.0490  -26.0301  -47.4336 H         1 UNK         0.0849 
     68 H68        15.9261  -26.0088  -46.1200 H         1 UNK         0.0849 
     69 H69        15.4713  -27.7688  -44.5686 H         1 UNK         0.0865 
     70 H70        14.9450  -28.8343  -45.8539 H         1 UNK         0.0865 
     71 H71        16.2604  -31.1507  -46.0304 H         1 UNK         0.1346 
     72 H72        17.3557  -32.8102  -42.2282 H         1 UNK         0.1412 
     73 H73        16.1959  -28.6955  -42.5205 H         1 UNK         0.1426 
     74 H74        17.4087  -31.4580  -40.2615 H         1 UNK         0.0716 
     75 H75        16.1024  -30.2964  -40.2372 H         1 UNK         0.0716 
     76 H76        19.6300  -30.6608  -41.7180 H         1 UNK         0.0695 
     77 H77        20.1885  -30.5415  -40.0752 H         1 UNK         0.0695 
     78 H78        21.8324  -29.5224  -41.4707 H         1 UNK         0.0983 
     79 H79        19.7320  -28.4931  -43.0632 H         1 UNK         0.3095 
     80 H80        21.9625  -26.4732  -45.0952 H         1 UNK         0.0454 
     81 H81        22.2972  -28.8888  -45.7655 H         1 UNK         0.0851 
     82 H82        21.1948  -28.0460  -46.8421 H         1 UNK         0.0851 
     83 H83        20.5619  -29.1540  -45.6287 H         1 UNK         0.0851 
     84 H84        19.2495  -26.9186  -44.1047 H         1 UNK         0.2976 
     85 H85        20.1340  -26.5066  -41.2534 H         1 UNK         0.3116 
     86 H86        20.8562  -25.7822  -38.5821 H         1 UNK         0.0646 
     87 H87        20.2103  -24.0535  -41.0339 H         1 UNK         0.0847 
     88 H88        20.3144  -23.4609  -39.3823 H         1 UNK         0.0847 
     89 H89        19.0659  -24.6134  -39.8113 H         1 UNK         0.0847 
     90 H90        22.7621  -25.9218  -41.5094 H         1 UNK         0.3040 
     91 H91        24.9419  -24.2523  -40.2998 H         1 UNK         0.1015 
     92 H92        24.3547  -24.9363  -43.2311 H         1 UNK         0.0786 
     93 H93        25.7215  -23.9935  -42.6501 H         1 UNK         0.0786 
     94 H94        24.0891  -23.3772  -42.4541 H         1 UNK         0.0786 
     95 H95        24.2907  -27.2657  -42.1674 H         1 UNK         0.3172 
     96 H96        27.0693  -28.1828  -41.7624 H         1 UNK         0.0595 
     97 H97        24.7803  -29.2342  -43.5053 H         1 UNK         0.0839 
     98 H98        26.4414  -29.8055  -43.5413 H         1 UNK         0.0839 
     99 H99        26.0732  -28.1643  -44.0400 H         1 UNK         0.0839 
    100 H100       24.4043  -28.4515  -39.8859 H         1 UNK         0.2998 
    101 H101       23.7849  -29.6626  -38.1660 H         1 UNK         0.0822 
    102 H102       25.1412  -31.4250  -37.1592 H         1 UNK         0.0787 
    103 H103       26.1232  -31.5848  -38.6023 H         1 UNK         0.0787 
    104 H104       26.1909  -30.1036  -37.6457 H         1 UNK         0.0787 
    105 H105       24.1227  -31.2327  -41.2497 H         1 UNK         0.3055 
    106 H106       21.5507  -32.5330  -40.9219 H         1 UNK         0.1106 
    107 H107       22.4139  -34.7686  -41.6878 H         1 UNK         0.0828 
    108 H108       24.0687  -34.1753  -41.6025 H         1 UNK         0.0828 
    109 H109       23.1104  -34.3479  -40.1343 H         1 UNK         0.0828 
    110 H110       20.7598  -33.2440  -43.0692 H         1 UNK         0.2931 
    111 H111       21.6100  -31.4619  -45.2013 H         1 UNK         0.0412 
    112 H112       22.8134  -34.5429  -44.3446 H         1 UNK         0.3472 
    113 H113       23.3697  -34.9803  -45.9401 H         1 UNK         0.3472 
    114 H114       19.6064  -32.4229  -46.4226 H         1 UNK         0.0970 
    115 H115       19.2885  -31.5913  -44.9332 H         1 UNK         0.0970 
    116 H116       16.4849  -34.2378  -44.4253 H         1 UNK         0.0612 
    117 H117       16.8593  -33.4301  -45.9289 H         1 UNK         0.0612 
@<TRIPOS>BOND
     1    1    2 1    
     2    1   62 1    
     3    1   63 1    
     4    1   64 1    
     5    2    3 2    
     6    2    4 am   BACKBONE|DICT|INTERRES
     7    4    5 1    
     8    4   65 1    
     9    5    6 1    
    10    5   25 1    
    11    5   66 1    
    12    6    7 1    
    13    6   67 1    
    14    6   68 1    
    15    7    8 1    
    16    8    9 1    
    17    8   69 1    
    18    8   70 1    
    19    9   10 ar   
    20    9   14 ar   
    21   10   11 ar   
    22   10   71 1    
    23   11   12 ar   
    24   11   61 1    
    25   12   13 ar   
    26   12   72 1    
    27   13   14 ar   
    28   13   15 1    
    29   14   73 1    
    30   15   16 1    
    31   15   74 1    
    32   15   75 1    
    33   16   17 1    
    34   17   18 1    
    35   17   76 1    
    36   17   77 1    
    37   18   19 1    
    38   18   27 1    
    39   18   78 1    
    40   19   20 am   BACKBONE|DICT|INTERRES
    41   19   79 1    
    42   20   21 2    
    43   20   22 1    
    44   22   23 1    
    45   22   24 1    
    46   22   80 1    
    47   23   81 1    
    48   23   82 1    
    49   23   83 1    
    50   24   25 am   BACKBONE|DICT|INTERRES
    51   24   84 1    
    52   25   26 2    
    53   27   28 2    
    54   27   29 am   BACKBONE|DICT|INTERRES
    55   29   30 1    
    56   29   85 1    
    57   30   31 1    
    58   30   32 1    
    59   30   86 1    
    60   31   87 1    
    61   31   88 1    
    62   31   89 1    
    63   32   33 2    
    64   32   34 am   BACKBONE|DICT|INTERRES
    65   34   35 1    
    66   34   90 1    
    67   35   36 1    
    68   35   37 1    
    69   35   91 1    
    70   36   92 1    
    71   36   93 1    
    72   36   94 1    
    73   37   38 2    
    74   37   39 am   BACKBONE|DICT|INTERRES
    75   39   40 1    
    76   39   95 1    
    77   40   41 1    
    78   40   42 1    
    79   40   96 1    
    80   41   97 1    
    81   41   98 1    
    82   41   99 1    
    83   42   43 2    
    84   42   44 am   BACKBONE|DICT|INTERRES
    85   44   45 1    
    86   44  100 1    
    87   45   46 1    
    88   45   47 1    
    89   45  101 1    
    90   46  102 1    
    91   46  103 1    
    92   46  104 1    
    93   47   48 2    
    94   47   49 am   BACKBONE|DICT|INTERRES
    95   49   50 1    
    96   49  105 1    
    97   50   51 1    
    98   50   52 1    
    99   50  106 1    
   100   51  107 1    
   101   51  108 1    
   102   51  109 1    
   103   52   53 2    
   104   52   54 am   BACKBONE|DICT|INTERRES
   105   54   55 1    
   106   54  110 1    
   107   55   56 1    
   108   55   59 1    
   109   55  111 1    
   110   56   57 am   BACKBONE|DICT|INTERRES
   111   56   58 2    
   112   57  112 1    
   113   57  113 1    
   114   59   60 1    
   115   59  114 1    
   116   59  115 1    
   117   60   61 1    
   118   61  116 1    
   119   61  117 1    
@<TRIPOS>SUBSTRUCTURE
     1 UNK         1 GROUP             0       ****    0 ROOT    
