@<TRIPOS>MOLECULE
3R8
117   119    1
SMALL
USER_CHARGES


@<TRIPOS>ATOM
      1 CA         20.8857  -26.4276  -49.4598 C.3       0 UNK        -0.2013 
      2 C          20.0101  -27.0466  -48.3807 C.2       0 UNK         0.4866 
      3 O          19.9000  -28.2706  -48.3083 O.2       0 UNK        -0.5176 
      4 N          19.3873  -26.2131  -47.5418 N.am      1 UNK        -0.4884 
      5 CA         18.5356  -26.6296  -46.4323 C.3       1 UNK         0.0853 
      6 C6         17.0727  -26.8700  -46.8897 C.3       10 UNK        -0.0849 
      7 S7         15.8834  -27.2350  -45.5500 S.3       10 UNK        -0.2776 
      8 C8         15.9949  -29.0457  -45.4069 C.3       10 UNK         0.0316 
      9 C9         17.0144  -29.4627  -44.3569 C.ar      10 UNK        -0.0863 
     10 C10        18.2902  -29.8917  -44.7310 C.ar      10 UNK        -0.1009 
     11 C11        19.2063  -30.3181  -43.7645 C.ar      10 UNK        -0.0712 
     12 C12        18.8447  -30.3041  -42.4134 C.ar      10 UNK        -0.0894 
     13 C13        17.5705  -29.8771  -42.0265 C.ar      10 UNK        -0.0745 
     14 C14        16.6620  -29.4586  -43.0042 C.ar      10 UNK        -0.0972 
     15 C15        17.1449  -29.9153  -40.5644 C.3       10 UNK         0.0209 
     16 S16        16.7946  -28.2505  -39.9142 S.3       10 UNK        -0.2568 
     17 C17        18.3343  -27.8439  -39.0254 C.3       10 UNK        -0.0983 
     18 CA         19.5369  -27.5158  -39.9438 C.3       3 UNK         0.0876 
     19 N          19.2049  -26.5321  -40.9794 N.am      3 UNK        -0.4424 
     20 C          20.0373  -26.1468  -41.9519 C.2       2 UNK         0.4918 
     21 O          21.1889  -26.5669  -42.0778 O.2       2 UNK        -0.4875 
     22 CA         19.4797  -25.1784  -42.9959 C.3       2 UNK         0.0481 
     23 CB         20.4544  -24.0096  -43.2493 C.3       2 UNK        -0.1831 
     24 N          19.2614  -25.9706  -44.2000 N.am      2 UNK        -0.4498 
     25 C          18.6837  -25.5658  -45.3352 C.2       1 UNK         0.5027 
     26 O          18.2950  -24.4155  -45.5513 O.2       1 UNK        -0.4969 
     27 C          20.7382  -27.0533  -39.0961 C.2       3 UNK         0.5005 
     28 O          20.8106  -25.8738  -38.7408 O.2       3 UNK        -0.5279 
     29 N          21.6657  -27.9775  -38.8128 N.am      4 UNK        -0.4463 
     30 CA         22.9334  -27.8005  -38.0889 C.3       4 UNK         0.0283 
     31 CB         22.7366  -27.1956  -36.6849 C.3       4 UNK        -0.1875 
     32 C          24.0009  -27.0353  -38.8909 C.2       4 UNK         0.4949 
     33 O          25.1604  -27.4456  -38.8708 O.2       4 UNK        -0.5039 
     34 N          23.6048  -25.9885  -39.6273 N.am      5 UNK        -0.4663 
     35 CA         24.4606  -25.2410  -40.5556 C.3       5 UNK         0.0242 
     36 CB         23.7219  -23.9854  -41.0409 C.3       5 UNK        -0.1982 
     37 C          24.9269  -26.1024  -41.7426 C.2       5 UNK         0.5017 
     38 O          26.1131  -26.0904  -42.0710 O.2       5 UNK        -0.5012 
     39 N          23.9969  -26.8783  -42.3153 N.am      6 UNK        -0.4439 
     40 CA         24.2523  -27.9298  -43.3037 C.3       6 UNK         0.0297 
     41 CB         23.1838  -27.8437  -44.4104 C.3       6 UNK        -0.2006 
     42 C          24.2742  -29.3242  -42.6427 C.2       6 UNK         0.4892 
     43 O          24.0518  -30.3213  -43.3305 O.2       6 UNK        -0.5089 
     44 N          24.5276  -29.3704  -41.3244 N.am      7 UNK        -0.4243 
     45 CA         24.4580  -30.5374  -40.4391 C.3       7 UNK         0.0196 
     46 CB         25.5525  -31.5678  -40.8032 C.3       7 UNK        -0.2007 
     47 C          23.0301  -31.1195  -40.3824 C.2       7 UNK         0.5020 
     48 O          22.0575  -30.3633  -40.4628 O.2       7 UNK        -0.5147 
     49 N          22.9256  -32.4433  -40.2214 N.am      8 UNK        -0.4734 
     50 CA         21.6719  -33.1943  -40.3385 C.3       8 UNK         0.0238 
     51 CB         21.7061  -34.3790  -39.3582 C.3       8 UNK        -0.1912 
     52 C          21.4246  -33.6927  -41.7755 C.2       8 UNK         0.5038 
     53 O          20.2969  -34.0829  -42.0743 O.2       8 UNK        -0.5046 
     54 N          22.4806  -33.6896  -42.6070 N.am      9 UNK        -0.4200 
     55 CA         22.5563  -34.1106  -44.0201 C.3       9 UNK         0.0839 
     56 C          21.9992  -35.5243  -44.3777 C.2       9 UNK         0.5513 
     57 N          21.8651  -36.4393  -43.4255 N.am      9 UNK        -0.7519 
     58 O          21.7342  -35.8197  -45.5405 O.2       9 UNK        -0.4960 
     59 C59        22.1707  -32.9843  -45.0238 C.3       10 UNK        -0.0876 
     60 S60        20.4246  -32.4651  -44.9742 S.3       10 UNK        -0.2414 
     61 C61        20.5721  -30.8319  -44.1868 C.3       10 UNK         0.0169 
     62 H62        20.8868  -25.3388  -49.4103 H         1 UNK         0.0903 
     63 H63        21.9136  -26.7730  -49.3524 H         1 UNK         0.0903 
     64 H64        20.5287  -26.7216  -50.4465 H         1 UNK         0.0903 
     65 H65        19.5192  -25.2123  -47.6204 H         1 UNK         0.3096 
     66 H66        18.9228  -27.5690  -46.0367 H         1 UNK         0.1121 
     67 H67        17.0424  -27.6756  -47.6246 H         1 UNK         0.0849 
     68 H68        16.7042  -25.9860  -47.4135 H         1 UNK         0.0849 
     69 H69        15.0139  -29.4327  -45.1267 H         1 UNK         0.0865 
     70 H70        16.2250  -29.4943  -46.3744 H         1 UNK         0.0865 
     71 H71        18.5653  -29.9237  -45.7770 H         1 UNK         0.1346 
     72 H72        19.5492  -30.6486  -41.6683 H         1 UNK         0.1412 
     73 H73        15.6720  -29.1369  -42.7097 H         1 UNK         0.1426 
     74 H74        17.8954  -30.4111  -39.9469 H         1 UNK         0.0716 
     75 H75        16.2391  -30.5174  -40.4811 H         1 UNK         0.0716 
     76 H76        18.5784  -28.6716  -38.3566 H         1 UNK         0.0695 
     77 H77        18.1103  -26.9928  -38.3788 H         1 UNK         0.0695 
     78 H78        19.8276  -28.4297  -40.4653 H         1 UNK         0.0983 
     79 H79        18.2680  -26.1584  -40.9475 H         1 UNK         0.3095 
     80 H80        18.5220  -24.7813  -42.6536 H         1 UNK         0.0454 
     81 H81        21.4054  -24.3565  -43.6557 H         1 UNK         0.0851 
     82 H82        20.6652  -23.4755  -42.3224 H         1 UNK         0.0851 
     83 H83        20.0419  -23.2798  -43.9449 H         1 UNK         0.0851 
     84 H84        19.5580  -26.9343  -44.1183 H         1 UNK         0.2976 
     85 H85        21.5638  -28.8913  -39.2498 H         1 UNK         0.3116 
     86 H86        23.3182  -28.8108  -37.9445 H         1 UNK         0.0646 
     87 H87        22.4174  -26.1540  -36.7241 H         1 UNK         0.0847 
     88 H88        23.6698  -27.2213  -36.1209 H         1 UNK         0.0847 
     89 H89        21.9964  -27.7533  -36.1116 H         1 UNK         0.0847 
     90 H90        22.6283  -25.7167  -39.5636 H         1 UNK         0.3040 
     91 H91        25.3514  -24.9237  -40.0087 H         1 UNK         0.1015 
     92 H92        22.8013  -24.2419  -41.5627 H         1 UNK         0.0786 
     93 H93        24.3402  -23.4087  -41.7302 H         1 UNK         0.0786 
     94 H94        23.4643  -23.3298  -40.2089 H         1 UNK         0.0786 
     95 H95        23.0280  -26.7897  -42.0111 H         1 UNK         0.3172 
     96 H96        25.2290  -27.7787  -43.7670 H         1 UNK         0.0595 
     97 H97        22.1909  -28.0815  -44.0282 H         1 UNK         0.0839 
     98 H98        23.3973  -28.5444  -45.2185 H         1 UNK         0.0839 
     99 H99        23.1435  -26.8465  -44.8487 H         1 UNK         0.0839 
    100 H100       24.7086  -28.4915  -40.8583 H         1 UNK         0.2998 
    101 H101       24.6766  -30.1720  -39.4356 H         1 UNK         0.0822 
    102 H102       26.5282  -31.0876  -40.8796 H         1 UNK         0.0787 
    103 H103       25.6454  -32.3414  -40.0402 H         1 UNK         0.0787 
    104 H104       25.3552  -32.0593  -41.7565 H         1 UNK         0.0787 
    105 H105       23.7713  -32.9819  -40.0965 H         1 UNK         0.3055 
    106 H106       20.8289  -32.5536  -40.0687 H         1 UNK         0.1106 
    107 H107       20.7764  -34.9483  -39.4011 H         1 UNK         0.0828 
    108 H108       22.5210  -35.0687  -39.5811 H         1 UNK         0.0828 
    109 H109       21.8265  -34.0380  -38.3297 H         1 UNK         0.0828 
    110 H110       23.3474  -33.3364  -42.2337 H         1 UNK         0.2931 
    111 H111       23.6281  -34.2492  -44.1675 H         1 UNK         0.0412 
    112 H112       21.5204  -37.3554  -43.6660 H         1 UNK         0.3472 
    113 H113       22.0740  -36.2131  -42.4667 H         1 UNK         0.3472 
    114 H114       22.3973  -33.2964  -46.0446 H         1 UNK         0.0970 
    115 H115       22.8063  -32.1150  -44.8521 H         1 UNK         0.0970 
    116 H116       21.0330  -30.1332  -44.8860 H         1 UNK         0.0612 
    117 H117       21.2383  -30.8993  -43.3246 H         1 UNK         0.0612 
@<TRIPOS>BOND
     1    1    2 1    
     2    1   62 1    
     3    1   63 1    
     4    1   64 1    
     5    2    3 2    
     6    2    4 am   BACKBONE|DICT|INTERRES
     7    4    5 1    
     8    4   65 1    
     9    5    6 1    
    10    5   25 1    
    11    5   66 1    
    12    6    7 1    
    13    6   67 1    
    14    6   68 1    
    15    7    8 1    
    16    8    9 1    
    17    8   69 1    
    18    8   70 1    
    19    9   10 ar   
    20    9   14 ar   
    21   10   11 ar   
    22   10   71 1    
    23   11   12 ar   
    24   11   61 1    
    25   12   13 ar   
    26   12   72 1    
    27   13   14 ar   
    28   13   15 1    
    29   14   73 1    
    30   15   16 1    
    31   15   74 1    
    32   15   75 1    
    33   16   17 1    
    34   17   18 1    
    35   17   76 1    
    36   17   77 1    
    37   18   19 1    
    38   18   27 1    
    39   18   78 1    
    40   19   20 am   BACKBONE|DICT|INTERRES
    41   19   79 1    
    42   20   21 2    
    43   20   22 1    
    44   22   23 1    
    45   22   24 1    
    46   22   80 1    
    47   23   81 1    
    48   23   82 1    
    49   23   83 1    
    50   24   25 am   BACKBONE|DICT|INTERRES
    51   24   84 1    
    52   25   26 2    
    53   27   28 2    
    54   27   29 am   BACKBONE|DICT|INTERRES
    55   29   30 1    
    56   29   85 1    
    57   30   31 1    
    58   30   32 1    
    59   30   86 1    
    60   31   87 1    
    61   31   88 1    
    62   31   89 1    
    63   32   33 2    
    64   32   34 am   BACKBONE|DICT|INTERRES
    65   34   35 1    
    66   34   90 1    
    67   35   36 1    
    68   35   37 1    
    69   35   91 1    
    70   36   92 1    
    71   36   93 1    
    72   36   94 1    
    73   37   38 2    
    74   37   39 am   BACKBONE|DICT|INTERRES
    75   39   40 1    
    76   39   95 1    
    77   40   41 1    
    78   40   42 1    
    79   40   96 1    
    80   41   97 1    
    81   41   98 1    
    82   41   99 1    
    83   42   43 2    
    84   42   44 am   BACKBONE|DICT|INTERRES
    85   44   45 1    
    86   44  100 1    
    87   45   46 1    
    88   45   47 1    
    89   45  101 1    
    90   46  102 1    
    91   46  103 1    
    92   46  104 1    
    93   47   48 2    
    94   47   49 am   BACKBONE|DICT|INTERRES
    95   49   50 1    
    96   49  105 1    
    97   50   51 1    
    98   50   52 1    
    99   50  106 1    
   100   51  107 1    
   101   51  108 1    
   102   51  109 1    
   103   52   53 2    
   104   52   54 am   BACKBONE|DICT|INTERRES
   105   54   55 1    
   106   54  110 1    
   107   55   56 1    
   108   55   59 1    
   109   55  111 1    
   110   56   57 am   BACKBONE|DICT|INTERRES
   111   56   58 2    
   112   57  112 1    
   113   57  113 1    
   114   59   60 1    
   115   59  114 1    
   116   59  115 1    
   117   60   61 1    
   118   61  116 1    
   119   61  117 1    
@<TRIPOS>SUBSTRUCTURE
     1 UNK         1 GROUP             0       ****    0 ROOT    
