@<TRIPOS>MOLECULE
3R8
117   119    1
SMALL
USER_CHARGES


@<TRIPOS>ATOM
      1 CA         19.3475  -26.8571  -42.4003 C.3       0 UNK        -0.2013 
      2 C          18.0070  -26.3062  -42.8594 C.2       0 UNK         0.4866 
      3 O          17.5750  -25.2601  -42.3735 O.2       0 UNK        -0.5176 
      4 N          17.3426  -26.9933  -43.7973 N.am      1 UNK        -0.4884 
      5 CA         16.0207  -26.6479  -44.3404 C.3       1 UNK         0.0853 
      6 C6         15.3149  -27.8809  -44.9693 C.3       10 UNK        -0.0849 
      7 S7         15.2732  -29.3388  -43.8702 S.3       10 UNK        -0.2776 
      8 C8         16.1934  -30.5684  -44.8545 C.3       10 UNK         0.0316 
      9 C9         17.6795  -30.2454  -44.9575 C.ar      10 UNK        -0.0863 
     10 C10        18.5393  -30.5740  -43.9065 C.ar      10 UNK        -0.1009 
     11 C11        19.9117  -30.3159  -43.9975 C.ar      10 UNK        -0.0712 
     12 C12        20.4219  -29.7343  -45.1632 C.ar      10 UNK        -0.0894 
     13 C13        19.5754  -29.4079  -46.2285 C.ar      10 UNK        -0.0745 
     14 C14        18.2044  -29.6625  -46.1157 C.ar      10 UNK        -0.0972 
     15 C15        20.1377  -28.8186  -47.5207 C.3       10 UNK         0.0209 
     16 S16        21.1082  -27.2940  -47.2720 S.3       10 UNK        -0.2568 
     17 C17        19.8987  -26.2628  -46.3853 C.3       10 UNK        -0.0983 
     18 CA         20.3592  -24.8083  -46.0960 C.3       3 UNK         0.0876 
     19 N          19.2244  -24.0231  -45.6306 N.am      3 UNK        -0.4424 
     20 C          18.2566  -23.4974  -46.3843 C.2       2 UNK         0.4918 
     21 O          18.3076  -23.3999  -47.6114 O.2       2 UNK        -0.4875 
     22 CA         16.9801  -23.1202  -45.6072 C.3       2 UNK         0.0481 
     23 CB         15.8703  -22.5226  -46.4978 C.3       2 UNK        -0.1831 
     24 N          16.5016  -24.2872  -44.8471 N.am      2 UNK        -0.4498 
     25 C          16.1319  -25.4788  -45.3470 C.2       1 UNK         0.5027 
     26 O          15.9461  -25.6879  -46.5475 O.2       1 UNK        -0.4969 
     27 C          21.4417  -24.7310  -45.0003 C.2       3 UNK         0.5005 
     28 O          21.1751  -24.2208  -43.9066 O.2       3 UNK        -0.5279 
     29 N          22.6414  -25.2387  -45.3028 N.am      4 UNK        -0.4463 
     30 CA         23.7404  -25.3877  -44.3497 C.3       4 UNK         0.0283 
     31 CB         25.0404  -25.6744  -45.1183 C.3       4 UNK        -0.1875 
     32 C          23.4540  -26.5152  -43.3435 C.2       4 UNK         0.4949 
     33 O          22.8964  -27.5480  -43.7207 O.2       4 UNK        -0.5039 
     34 N          23.8702  -26.3039  -42.0905 N.am      5 UNK        -0.4663 
     35 CA         23.8039  -27.3005  -41.0208 C.3       5 UNK         0.0242 
     36 CB         23.8637  -26.5761  -39.6651 C.3       5 UNK        -0.1982 
     37 C          24.9402  -28.3324  -41.1386 C.2       5 UNK         0.5017 
     38 O          25.9461  -28.0812  -41.8077 O.2       5 UNK        -0.5012 
     39 N          24.7675  -29.4624  -40.4497 N.am      6 UNK        -0.4439 
     40 CA         25.7028  -30.5787  -40.3603 C.3       6 UNK         0.0297 
     41 CB         25.6112  -31.4483  -41.6295 C.3       6 UNK        -0.2006 
     42 C          25.3375  -31.3895  -39.1124 C.2       6 UNK         0.4892 
     43 O          24.2280  -31.2351  -38.5954 O.2       6 UNK        -0.5089 
     44 N          26.2457  -32.2699  -38.6725 N.am      7 UNK        -0.4243 
     45 CA         26.0553  -33.1490  -37.5098 C.3       7 UNK         0.0196 
     46 CB         27.3664  -33.8971  -37.2186 C.3       7 UNK        -0.2007 
     47 C          24.8890  -34.1461  -37.6585 C.2       7 UNK         0.5020 
     48 O          24.2881  -34.5284  -36.6547 O.2       7 UNK        -0.5147 
     49 N          24.5826  -34.5349  -38.9031 N.am      8 UNK        -0.4734 
     50 CA         23.4559  -35.4032  -39.2561 C.3       8 UNK         0.0238 
     51 CB         23.8278  -36.1961  -40.5213 C.3       8 UNK        -0.1912 
     52 C          22.1356  -34.6363  -39.4715 C.2       8 UNK         0.5038 
     53 O          21.1003  -35.2814  -39.6444 O.2       8 UNK        -0.5046 
     54 N          22.1845  -33.2969  -39.4959 N.am      9 UNK        -0.4200 
     55 CA         21.0253  -32.4184  -39.7033 C.3       9 UNK         0.0839 
     56 C          20.0861  -32.3664  -38.4660 C.2       9 UNK         0.5513 
     57 N          18.8066  -32.0879  -38.6719 N.am      9 UNK        -0.7519 
     58 O          20.5070  -32.5459  -37.3248 O.2       9 UNK        -0.4960 
     59 C59        21.4854  -31.0061  -40.1558 C.3       10 UNK        -0.0876 
     60 S60        20.2734  -30.1699  -41.2272 S.3       10 UNK        -0.2414 
     61 C61        20.8554  -30.7121  -42.8672 C.3       10 UNK         0.0169 
     62 H62        19.7440  -27.5982  -43.0933 H         1 UNK         0.0903 
     63 H63        20.0805  -26.0564  -42.3133 H         1 UNK         0.0903 
     64 H64        19.2419  -27.3236  -41.4218 H         1 UNK         0.0903 
     65 H65        17.7335  -27.8579  -44.1492 H         1 UNK         0.3096 
     66 H66        15.3942  -26.3018  -43.5149 H         1 UNK         0.1121 
     67 H67        14.2843  -27.6275  -45.2250 H         1 UNK         0.0849 
     68 H68        15.7887  -28.1613  -45.9106 H         1 UNK         0.0849 
     69 H69        16.0701  -31.5484  -44.3909 H         1 UNK         0.0865 
     70 H70        15.7459  -30.6509  -45.8464 H         1 UNK         0.0865 
     71 H71        18.1387  -31.0399  -43.0164 H         1 UNK         0.1346 
     72 H72        21.4830  -29.5399  -45.2479 H         1 UNK         0.1412 
     73 H73        17.5471  -29.4256  -46.9414 H         1 UNK         0.1426 
     74 H74        19.3354  -28.6035  -48.2282 H         1 UNK         0.0716 
     75 H75        20.7744  -29.5643  -47.9984 H         1 UNK         0.0716 
     76 H76        19.6310  -26.7632  -45.4548 H         1 UNK         0.0695 
     77 H77        18.9903  -26.2536  -46.9904 H         1 UNK         0.0695 
     78 H78        20.7570  -24.3519  -47.0051 H         1 UNK         0.0983 
     79 H79        19.1604  -23.9739  -44.6212 H         1 UNK         0.3095 
     80 H80        17.2636  -22.3622  -44.8756 H         1 UNK         0.0454 
     81 H81        16.2116  -21.6029  -46.9740 H         1 UNK         0.0851 
     82 H82        15.5688  -23.2031  -47.2944 H         1 UNK         0.0851 
     83 H83        14.9837  -22.2763  -45.9141 H         1 UNK         0.0851 
     84 H84        16.6898  -24.2673  -43.8482 H         1 UNK         0.2976 
     85 H85        22.7432  -25.7167  -46.1882 H         1 UNK         0.3116 
     86 H86        23.8575  -24.4462  -43.8083 H         1 UNK         0.0646 
     87 H87        25.8838  -25.7748  -44.4336 H         1 UNK         0.0847 
     88 H88        25.2801  -24.8680  -45.8114 H         1 UNK         0.0847 
     89 H89        24.9749  -26.6018  -45.6890 H         1 UNK         0.0847 
     90 H90        24.3610  -25.4474  -41.8777 H         1 UNK         0.3040 
     91 H91        22.8502  -27.8298  -41.0951 H         1 UNK         0.1015 
     92 H92        23.0531  -25.8537  -39.5663 H         1 UNK         0.0786 
     93 H93        24.8064  -26.0433  -39.5330 H         1 UNK         0.0786 
     94 H94        23.7684  -27.2791  -38.8365 H         1 UNK         0.0786 
     95 H95        23.9645  -29.5685  -39.8413 H         1 UNK         0.3172 
     96 H96        26.7173  -30.1928  -40.2415 H         1 UNK         0.0595 
     97 H97        25.8577  -30.8743  -42.5230 H         1 UNK         0.0839 
     98 H98        24.6110  -31.8613  -41.7665 H         1 UNK         0.0839 
     99 H99        26.3085  -32.2857  -41.5873 H         1 UNK         0.0839 
    100 H100       27.1309  -32.3405  -39.1547 H         1 UNK         0.2998 
    101 H101       25.8267  -32.5136  -36.6513 H         1 UNK         0.0822 
    102 H102       28.1827  -33.2041  -37.0140 H         1 UNK         0.0787 
    103 H103       27.2629  -34.5395  -36.3427 H         1 UNK         0.0787 
    104 H104       27.6640  -34.5317  -38.0544 H         1 UNK         0.0787 
    105 H105       25.1423  -34.1809  -39.6654 H         1 UNK         0.3055 
    106 H106       23.2827  -36.1161  -38.4465 H         1 UNK         0.1106 
    107 H107       23.9961  -35.5396  -41.3760 H         1 UNK         0.0828 
    108 H108       24.7305  -36.7877  -40.3681 H         1 UNK         0.0828 
    109 H109       23.0328  -36.8907  -40.7966 H         1 UNK         0.0828 
    110 H110       23.0483  -32.8346  -39.2411 H         1 UNK         0.2931 
    111 H111       20.4566  -32.8642  -40.5225 H         1 UNK         0.0412 
    112 H112       18.4637  -31.9022  -39.6019 H         1 UNK         0.3472 
    113 H113       18.1794  -32.0374  -37.8843 H         1 UNK         0.3472 
    114 H114       21.7035  -30.3679  -39.2973 H         1 UNK         0.0970 
    115 H115       22.4178  -31.0745  -40.7165 H         1 UNK         0.0970 
    116 H116       21.8504  -30.2958  -43.0351 H         1 UNK         0.0612 
    117 H117       20.9628  -31.7976  -42.8701 H         1 UNK         0.0612 
@<TRIPOS>BOND
     1    1    2 1    
     2    1   62 1    
     3    1   63 1    
     4    1   64 1    
     5    2    3 2    
     6    2    4 am   BACKBONE|DICT|INTERRES
     7    4    5 1    
     8    4   65 1    
     9    5    6 1    
    10    5   25 1    
    11    5   66 1    
    12    6    7 1    
    13    6   67 1    
    14    6   68 1    
    15    7    8 1    
    16    8    9 1    
    17    8   69 1    
    18    8   70 1    
    19    9   10 ar   
    20    9   14 ar   
    21   10   11 ar   
    22   10   71 1    
    23   11   12 ar   
    24   11   61 1    
    25   12   13 ar   
    26   12   72 1    
    27   13   14 ar   
    28   13   15 1    
    29   14   73 1    
    30   15   16 1    
    31   15   74 1    
    32   15   75 1    
    33   16   17 1    
    34   17   18 1    
    35   17   76 1    
    36   17   77 1    
    37   18   19 1    
    38   18   27 1    
    39   18   78 1    
    40   19   20 am   BACKBONE|DICT|INTERRES
    41   19   79 1    
    42   20   21 2    
    43   20   22 1    
    44   22   23 1    
    45   22   24 1    
    46   22   80 1    
    47   23   81 1    
    48   23   82 1    
    49   23   83 1    
    50   24   25 am   BACKBONE|DICT|INTERRES
    51   24   84 1    
    52   25   26 2    
    53   27   28 2    
    54   27   29 am   BACKBONE|DICT|INTERRES
    55   29   30 1    
    56   29   85 1    
    57   30   31 1    
    58   30   32 1    
    59   30   86 1    
    60   31   87 1    
    61   31   88 1    
    62   31   89 1    
    63   32   33 2    
    64   32   34 am   BACKBONE|DICT|INTERRES
    65   34   35 1    
    66   34   90 1    
    67   35   36 1    
    68   35   37 1    
    69   35   91 1    
    70   36   92 1    
    71   36   93 1    
    72   36   94 1    
    73   37   38 2    
    74   37   39 am   BACKBONE|DICT|INTERRES
    75   39   40 1    
    76   39   95 1    
    77   40   41 1    
    78   40   42 1    
    79   40   96 1    
    80   41   97 1    
    81   41   98 1    
    82   41   99 1    
    83   42   43 2    
    84   42   44 am   BACKBONE|DICT|INTERRES
    85   44   45 1    
    86   44  100 1    
    87   45   46 1    
    88   45   47 1    
    89   45  101 1    
    90   46  102 1    
    91   46  103 1    
    92   46  104 1    
    93   47   48 2    
    94   47   49 am   BACKBONE|DICT|INTERRES
    95   49   50 1    
    96   49  105 1    
    97   50   51 1    
    98   50   52 1    
    99   50  106 1    
   100   51  107 1    
   101   51  108 1    
   102   51  109 1    
   103   52   53 2    
   104   52   54 am   BACKBONE|DICT|INTERRES
   105   54   55 1    
   106   54  110 1    
   107   55   56 1    
   108   55   59 1    
   109   55  111 1    
   110   56   57 am   BACKBONE|DICT|INTERRES
   111   56   58 2    
   112   57  112 1    
   113   57  113 1    
   114   59   60 1    
   115   59  114 1    
   116   59  115 1    
   117   60   61 1    
   118   61  116 1    
   119   61  117 1    
@<TRIPOS>SUBSTRUCTURE
     1 UNK         1 GROUP             0       ****    0 ROOT    
