@<TRIPOS>MOLECULE
3R8
117   119    1
SMALL
USER_CHARGES


@<TRIPOS>ATOM
      1 CA         24.2529  -27.7875  -46.3885 C.3       0 UNK        -0.2013 
      2 C          22.8002  -27.3519  -46.2678 C.2       0 UNK         0.4866 
      3 O          22.5188  -26.1536  -46.2947 O.2       0 UNK        -0.5176 
      4 N          21.8837  -28.3211  -46.1500 N.am      1 UNK        -0.4884 
      5 CA         20.4345  -28.1414  -46.0059 C.3       1 UNK         0.0853 
      6 C6         19.7398  -27.5829  -47.2859 C.3       10 UNK        -0.0849 
      7 S7         19.7766  -28.7887  -48.6562 S.3       10 UNK        -0.2776 
      8 C8         18.1145  -29.5421  -48.5297 C.3       10 UNK         0.0316 
      9 C9         17.8553  -30.1051  -47.1381 C.ar      10 UNK        -0.0863 
     10 C10        18.5972  -31.1963  -46.6815 C.ar      10 UNK        -0.1009 
     11 C11        18.4590  -31.6439  -45.3671 C.ar      10 UNK        -0.0712 
     12 C12        17.5256  -31.0332  -44.5242 C.ar      10 UNK        -0.0894 
     13 C13        16.7393  -29.9626  -44.9774 C.ar      10 UNK        -0.0745 
     14 C14        16.9209  -29.5040  -46.2873 C.ar      10 UNK        -0.0972 
     15 C15        15.6827  -29.2686  -44.1087 C.3       10 UNK         0.0209 
     16 S16        15.4595  -29.9596  -42.4308 S.3       10 UNK        -0.2568 
     17 C17        15.9914  -28.6013  -41.3362 C.3       10 UNK        -0.0983 
     18 CA         17.5383  -28.4191  -41.2961 C.3       3 UNK         0.0876 
     19 N          18.0598  -27.5880  -42.3897 N.am      3 UNK        -0.4424 
     20 C          17.8432  -26.2782  -42.5846 C.2       2 UNK         0.4918 
     21 O          17.0293  -25.6145  -41.9424 O.2       2 UNK        -0.4875 
     22 CA         18.6806  -25.5582  -43.6627 C.3       2 UNK         0.0481 
     23 CB         19.8209  -24.7582  -43.0019 C.3       2 UNK        -0.1831 
     24 N          19.1962  -26.3994  -44.7551 N.am      2 UNK        -0.4498 
     25 C          20.0831  -27.4045  -44.6956 C.2       1 UNK         0.5027 
     26 O          20.5674  -27.8088  -43.6375 O.2       1 UNK        -0.4969 
     27 C          18.0873  -27.8903  -39.9494 C.2       3 UNK         0.5005 
     28 O          17.3301  -27.6393  -39.0091 O.2       3 UNK        -0.5279 
     29 N          19.4117  -27.6925  -39.9076 N.am      4 UNK        -0.4463 
     30 CA         20.1597  -27.1320  -38.7872 C.3       4 UNK         0.0283 
     31 CB         20.1253  -25.5897  -38.8660 C.3       4 UNK        -0.1875 
     32 C          21.5811  -27.7195  -38.7886 C.2       4 UNK         0.4949 
     33 O          21.7863  -28.8276  -39.2897 O.2       4 UNK        -0.5039 
     34 N          22.5440  -26.9742  -38.2304 N.am      5 UNK        -0.4663 
     35 CA         23.9552  -27.3622  -38.1288 C.3       5 UNK         0.0242 
     36 CB         24.6795  -26.3807  -37.1934 C.3       5 UNK        -0.1982 
     37 C          24.6885  -27.4544  -39.4799 C.2       5 UNK         0.5017 
     38 O          25.7123  -28.1350  -39.5511 O.2       5 UNK        -0.5012 
     39 N          24.1607  -26.7883  -40.5188 N.am      6 UNK        -0.4439 
     40 CA         24.6546  -26.8069  -41.8991 C.3       6 UNK         0.0297 
     41 CB         23.7692  -25.8938  -42.7640 C.3       6 UNK        -0.2006 
     42 C          24.6869  -28.2400  -42.4571 C.2       6 UNK         0.4892 
     43 O          23.6292  -28.8270  -42.6838 O.2       6 UNK        -0.5089 
     44 N          25.9007  -28.7997  -42.5775 N.am      7 UNK        -0.4243 
     45 CA         26.2029  -30.1982  -42.9265 C.3       7 UNK         0.0196 
     46 CB         25.8345  -30.4771  -44.3991 C.3       7 UNK        -0.2007 
     47 C          25.5806  -31.2400  -41.9672 C.2       7 UNK         0.5020 
     48 O          25.4682  -32.4095  -42.3368 O.2       7 UNK        -0.5147 
     49 N          25.1754  -30.7977  -40.7653 N.am      8 UNK        -0.4734 
     50 CA         24.4026  -31.5254  -39.7514 C.3       8 UNK         0.0238 
     51 CB         25.2798  -32.6015  -39.0772 C.3       8 UNK        -0.1912 
     52 C          23.0602  -32.0852  -40.2740 C.2       8 UNK         0.5038 
     53 O          22.6267  -33.1421  -39.8098 O.2       8 UNK        -0.5046 
     54 N          22.4322  -31.3868  -41.2330 N.am      9 UNK        -0.4200 
     55 CA         21.1649  -31.7989  -41.8603 C.3       9 UNK         0.0839 
     56 C          19.9127  -31.7031  -40.9416 C.2       9 UNK         0.5513 
     57 N          19.9502  -30.9744  -39.8339 N.am      9 UNK        -0.7519 
     58 O          18.8863  -32.3062  -41.2405 O.2       9 UNK        -0.4960 
     59 C59        20.9357  -31.0879  -43.2264 C.3       10 UNK        -0.0876 
     60 S60        21.0710  -32.2326  -44.6402 S.3       10 UNK        -0.2414 
     61 C61        19.3426  -32.7712  -44.8549 C.3       10 UNK         0.0169 
     62 H62        24.7962  -27.5486  -45.4755 H         1 UNK         0.0903 
     63 H63        24.3405  -28.8586  -46.5685 H         1 UNK         0.0903 
     64 H64        24.7337  -27.2684  -47.2172 H         1 UNK         0.0903 
     65 H65        22.1941  -29.2812  -46.1033 H         1 UNK         0.3096 
     66 H66        20.0529  -29.1447  -45.8306 H         1 UNK         0.1121 
     67 H67        20.2176  -26.6598  -47.6177 H         1 UNK         0.0849 
     68 H68        18.6935  -27.3323  -47.1084 H         1 UNK         0.0849 
     69 H69        17.3617  -28.7985  -48.7962 H         1 UNK         0.0865 
     70 H70        18.0278  -30.3424  -49.2660 H         1 UNK         0.0865 
     71 H71        19.3300  -31.6571  -47.3305 H         1 UNK         0.1346 
     72 H72        17.4291  -31.4015  -43.5130 H         1 UNK         0.1412 
     73 H73        16.3377  -28.6644  -46.6416 H         1 UNK         0.1426 
     74 H74        14.7219  -29.3374  -44.6207 H         1 UNK         0.0716 
     75 H75        15.9118  -28.2049  -44.0437 H         1 UNK         0.0716 
     76 H76        15.4740  -27.6820  -41.6112 H         1 UNK         0.0695 
     77 H77        15.6040  -28.8693  -40.3521 H         1 UNK         0.0695 
     78 H78        17.9906  -29.4045  -41.4148 H         1 UNK         0.0983 
     79 H79        18.8194  -27.9916  -42.9278 H         1 UNK         0.3095 
     80 H80        18.0119  -24.8413  -44.1415 H         1 UNK         0.0454 
     81 H81        20.5013  -25.4038  -42.4469 H         1 UNK         0.0851 
     82 H82        19.4250  -24.0274  -42.2954 H         1 UNK         0.0851 
     83 H83        20.4053  -24.2111  -43.7415 H         1 UNK         0.0851 
     84 H84        18.8325  -26.1621  -45.6670 H         1 UNK         0.2976 
     85 H85        19.9793  -27.9839  -40.6930 H         1 UNK         0.3116 
     86 H86        19.6926  -27.4494  -37.8528 H         1 UNK         0.0646 
     87 H87        20.6665  -25.2169  -39.7365 H         1 UNK         0.0847 
     88 H88        20.5602  -25.1303  -37.9780 H         1 UNK         0.0847 
     89 H89        19.1014  -25.2215  -38.9353 H         1 UNK         0.0847 
     90 H90        22.2923  -26.0802  -37.8332 H         1 UNK         0.3040 
     91 H91        23.9953  -28.3564  -37.6781 H         1 UNK         0.1015 
     92 H92        24.6570  -25.3612  -37.5807 H         1 UNK         0.0786 
     93 H93        25.7274  -26.6590  -37.0704 H         1 UNK         0.0786 
     94 H94        24.2311  -26.3739  -36.1996 H         1 UNK         0.0786 
     95 H95        23.3032  -26.2833  -40.3555 H         1 UNK         0.3172 
     96 H96        25.6671  -26.3982  -41.8972 H         1 UNK         0.0595 
     97 H97        24.1540  -25.8290  -43.7820 H         1 UNK         0.0839 
     98 H98        23.7321  -24.8783  -42.3698 H         1 UNK         0.0839 
     99 H99        22.7467  -26.2679  -42.8306 H         1 UNK         0.0839 
    100 H100       26.7008  -28.2428  -42.3089 H         1 UNK         0.2998 
    101 H101       27.2836  -30.3103  -42.8278 H         1 UNK         0.0822 
    102 H102       26.1787  -31.4639  -44.7110 H         1 UNK         0.0787 
    103 H103       24.7558  -30.4461  -44.5571 H         1 UNK         0.0787 
    104 H104       26.2966  -29.7511  -45.0676 H         1 UNK         0.0787 
    105 H105       25.3545  -29.8218  -40.5461 H         1 UNK         0.3055 
    106 H106       24.1351  -30.7915  -38.9893 H         1 UNK         0.1106 
    107 H107       24.7629  -33.0571  -38.2317 H         1 UNK         0.0828 
    108 H108       25.5392  -33.4026  -39.7700 H         1 UNK         0.0828 
    109 H109       26.2070  -32.1749  -38.6946 H         1 UNK         0.0828 
    110 H110       22.8415  -30.5194  -41.5621 H         1 UNK         0.2931 
    111 H111       21.2704  -32.8689  -42.0508 H         1 UNK         0.0412 
    112 H112       20.7663  -30.4130  -39.6089 H         1 UNK         0.3472 
    113 H113       19.1451  -30.9549  -39.2301 H         1 UNK         0.3472 
    114 H114       21.6708  -30.2993  -43.3844 H         1 UNK         0.0970 
    115 H115       19.9771  -30.5701  -43.2722 H         1 UNK         0.0970 
    116 H116       19.3176  -33.5979  -45.5662 H         1 UNK         0.0612 
    117 H117       18.9666  -33.1677  -43.9106 H         1 UNK         0.0612 
@<TRIPOS>BOND
     1    1    2 1    
     2    1   62 1    
     3    1   63 1    
     4    1   64 1    
     5    2    3 2    
     6    2    4 am   BACKBONE|DICT|INTERRES
     7    4    5 1    
     8    4   65 1    
     9    5    6 1    
    10    5   25 1    
    11    5   66 1    
    12    6    7 1    
    13    6   67 1    
    14    6   68 1    
    15    7    8 1    
    16    8    9 1    
    17    8   69 1    
    18    8   70 1    
    19    9   10 ar   
    20    9   14 ar   
    21   10   11 ar   
    22   10   71 1    
    23   11   12 ar   
    24   11   61 1    
    25   12   13 ar   
    26   12   72 1    
    27   13   14 ar   
    28   13   15 1    
    29   14   73 1    
    30   15   16 1    
    31   15   74 1    
    32   15   75 1    
    33   16   17 1    
    34   17   18 1    
    35   17   76 1    
    36   17   77 1    
    37   18   19 1    
    38   18   27 1    
    39   18   78 1    
    40   19   20 am   BACKBONE|DICT|INTERRES
    41   19   79 1    
    42   20   21 2    
    43   20   22 1    
    44   22   23 1    
    45   22   24 1    
    46   22   80 1    
    47   23   81 1    
    48   23   82 1    
    49   23   83 1    
    50   24   25 am   BACKBONE|DICT|INTERRES
    51   24   84 1    
    52   25   26 2    
    53   27   28 2    
    54   27   29 am   BACKBONE|DICT|INTERRES
    55   29   30 1    
    56   29   85 1    
    57   30   31 1    
    58   30   32 1    
    59   30   86 1    
    60   31   87 1    
    61   31   88 1    
    62   31   89 1    
    63   32   33 2    
    64   32   34 am   BACKBONE|DICT|INTERRES
    65   34   35 1    
    66   34   90 1    
    67   35   36 1    
    68   35   37 1    
    69   35   91 1    
    70   36   92 1    
    71   36   93 1    
    72   36   94 1    
    73   37   38 2    
    74   37   39 am   BACKBONE|DICT|INTERRES
    75   39   40 1    
    76   39   95 1    
    77   40   41 1    
    78   40   42 1    
    79   40   96 1    
    80   41   97 1    
    81   41   98 1    
    82   41   99 1    
    83   42   43 2    
    84   42   44 am   BACKBONE|DICT|INTERRES
    85   44   45 1    
    86   44  100 1    
    87   45   46 1    
    88   45   47 1    
    89   45  101 1    
    90   46  102 1    
    91   46  103 1    
    92   46  104 1    
    93   47   48 2    
    94   47   49 am   BACKBONE|DICT|INTERRES
    95   49   50 1    
    96   49  105 1    
    97   50   51 1    
    98   50   52 1    
    99   50  106 1    
   100   51  107 1    
   101   51  108 1    
   102   51  109 1    
   103   52   53 2    
   104   52   54 am   BACKBONE|DICT|INTERRES
   105   54   55 1    
   106   54  110 1    
   107   55   56 1    
   108   55   59 1    
   109   55  111 1    
   110   56   57 am   BACKBONE|DICT|INTERRES
   111   56   58 2    
   112   57  112 1    
   113   57  113 1    
   114   59   60 1    
   115   59  114 1    
   116   59  115 1    
   117   60   61 1    
   118   61  116 1    
   119   61  117 1    
@<TRIPOS>SUBSTRUCTURE
     1 UNK         1 GROUP             0       ****    0 ROOT    
