@<TRIPOS>MOLECULE
3R8
117   119    1
SMALL
USER_CHARGES


@<TRIPOS>ATOM
      1 CA         16.2429  -28.4363  -40.0204 C.3       0 UNK        -0.2013 
      2 C          16.7755  -27.2090  -40.7444 C.2       0 UNK         0.4866 
      3 O          17.1643  -26.2368  -40.0980 O.2       0 UNK        -0.5176 
      4 N          16.7958  -27.2455  -42.0835 N.am      1 UNK        -0.4884 
      5 CA         17.2333  -26.1381  -42.9458 C.3       1 UNK         0.0853 
      6 C6         16.7690  -26.3187  -44.4122 C.3       10 UNK        -0.0849 
      7 S7         14.9890  -26.6970  -44.6257 S.3       10 UNK        -0.2776 
      8 C8         14.8625  -28.5263  -44.5410 C.3       10 UNK         0.0316 
      9 C9         16.0783  -29.2652  -45.0898 C.ar      10 UNK        -0.0863 
     10 C10        16.8176  -30.1203  -44.2650 C.ar      10 UNK        -0.1009 
     11 C11        17.9650  -30.7543  -44.7500 C.ar      10 UNK        -0.0712 
     12 C12        18.3655  -30.5382  -46.0702 C.ar      10 UNK        -0.0894 
     13 C13        17.6378  -29.6843  -46.9045 C.ar      10 UNK        -0.0745 
     14 C14        16.4815  -29.0710  -46.4148 C.ar      10 UNK        -0.0972 
     15 C15        18.0902  -29.4116  -48.3340 C.3       10 UNK         0.0209 
     16 S16        19.8788  -29.0831  -48.4837 S.3       10 UNK        -0.2568 
     17 C17        20.1210  -27.5985  -47.4317 C.3       10 UNK        -0.0983 
     18 CA         21.3057  -27.5956  -46.4052 C.3       3 UNK         0.0876 
     19 N          20.8478  -27.5456  -45.0100 N.am      3 UNK        -0.4424 
     20 C          21.5847  -27.0608  -43.9961 C.2       2 UNK         0.4918 
     21 O          22.7120  -26.5871  -44.1448 O.2       2 UNK        -0.4875 
     22 CA         20.9662  -27.1268  -42.5848 C.3       2 UNK         0.0481 
     23 CB         21.6072  -26.1309  -41.5965 C.3       2 UNK        -0.1831 
     24 N          19.5028  -27.0103  -42.5886 N.am      2 UNK        -0.4498 
     25 C          18.7649  -25.9415  -42.9317 C.2       1 UNK         0.5027 
     26 O          19.2348  -24.8538  -43.2666 O.2       1 UNK        -0.4969 
     27 C          22.3806  -28.6892  -46.6109 C.2       3 UNK         0.5005 
     28 O          23.2850  -28.4958  -47.4259 O.2       3 UNK        -0.5279 
     29 N          22.2713  -29.8048  -45.8694 N.am      4 UNK        -0.4463 
     30 CA         23.2156  -30.9243  -45.9182 C.3       4 UNK         0.0283 
     31 CB         22.6119  -32.1520  -45.2163 C.3       4 UNK        -0.1875 
     32 C          24.5787  -30.5594  -45.3091 C.2       4 UNK         0.4949 
     33 O          25.6096  -30.8189  -45.9299 O.2       4 UNK        -0.5039 
     34 N          24.5488  -29.9443  -44.1217 N.am      5 UNK        -0.4663 
     35 CA         25.6939  -29.4247  -43.3801 C.3       5 UNK         0.0242 
     36 CB         26.6219  -30.5645  -42.9112 C.3       5 UNK        -0.1982 
     37 C          25.1708  -28.6092  -42.1914 C.2       5 UNK         0.5017 
     38 O          24.0307  -28.8173  -41.7609 O.2       5 UNK        -0.5012 
     39 N          26.0207  -27.7059  -41.6836 N.am      6 UNK        -0.4439 
     40 CA         25.7476  -26.7937  -40.5703 C.3       6 UNK         0.0297 
     41 CB         26.9852  -25.9163  -40.3159 C.3       6 UNK        -0.2006 
     42 C          25.3278  -27.5380  -39.2914 C.2       6 UNK         0.4892 
     43 O          26.1475  -28.2466  -38.7046 O.2       6 UNK        -0.5089 
     44 N          24.0512  -27.3720  -38.9167 N.am      7 UNK        -0.4243 
     45 CA         23.3629  -27.9785  -37.7692 C.3       7 UNK         0.0196 
     46 CB         23.9686  -27.4742  -36.4415 C.3       7 UNK        -0.2007 
     47 C          23.2558  -29.5186  -37.8147 C.2       7 UNK         0.5020 
     48 O          22.9451  -30.1251  -36.7885 O.2       7 UNK        -0.5147 
     49 N          23.4914  -30.1354  -38.9825 N.am      8 UNK        -0.4734 
     50 CA         23.3804  -31.5862  -39.1696 C.3       8 UNK         0.0238 
     51 CB         24.2322  -32.0143  -40.3729 C.3       8 UNK        -0.1912 
     52 C          21.9250  -32.0410  -39.3542 C.2       8 UNK         0.5038 
     53 O          21.5747  -33.1425  -38.9285 O.2       8 UNK        -0.5046 
     54 N          21.1160  -31.1884  -39.9922 N.am      9 UNK        -0.4200 
     55 CA         19.6838  -31.3986  -40.2313 C.3       9 UNK         0.0839 
     56 C          18.8505  -31.2545  -38.9308 C.2       9 UNK         0.5513 
     57 N          17.7904  -32.0368  -38.7851 N.am      9 UNK        -0.7519 
     58 O          19.1234  -30.4061  -38.0846 O.2       9 UNK        -0.4960 
     59 C59        19.1563  -30.4433  -41.3297 C.3       10 UNK        -0.0876 
     60 S60        20.0179  -30.6962  -42.9201 S.3       10 UNK        -0.2414 
     61 C61        18.7915  -31.6604  -43.8535 C.3       10 UNK         0.0169 
     62 H62        16.9840  -28.8047  -39.3117 H         1 UNK         0.0903 
     63 H63        15.3425  -28.1787  -39.4634 H         1 UNK         0.0903 
     64 H64        15.9954  -29.2453  -40.7069 H         1 UNK         0.0903 
     65 H65        16.4298  -28.0482  -42.5719 H         1 UNK         0.3096 
     66 H66        16.7873  -25.2186  -42.5590 H         1 UNK         0.1121 
     67 H67        17.3809  -27.0598  -44.9237 H         1 UNK         0.0849 
     68 H68        16.9522  -25.3914  -44.9591 H         1 UNK         0.0849 
     69 H69        14.6711  -28.8136  -43.5063 H         1 UNK         0.0865 
     70 H70        13.9798  -28.8390  -45.1006 H         1 UNK         0.0865 
     71 H71        16.5074  -30.2907  -43.2439 H         1 UNK         0.1346 
     72 H72        19.2558  -31.0240  -46.4455 H         1 UNK         0.1412 
     73 H73        15.9114  -28.4072  -47.0511 H         1 UNK         0.1426 
     74 H74        17.8397  -30.2760  -48.9501 H         1 UNK         0.0716 
     75 H75        17.5490  -28.5632  -48.7559 H         1 UNK         0.0716 
     76 H76        20.2704  -26.7716  -48.1277 H         1 UNK         0.0695 
     77 H77        19.1823  -27.3579  -46.9308 H         1 UNK         0.0695 
     78 H78        21.8354  -26.6545  -46.5746 H         1 UNK         0.0983 
     79 H79        19.9358  -27.9297  -44.8135 H         1 UNK         0.3095 
     80 H80        21.1936  -28.1247  -42.2110 H         1 UNK         0.0454 
     81 H81        21.4964  -25.0980  -41.9266 H         1 UNK         0.0851 
     82 H82        21.1672  -26.2175  -40.6033 H         1 UNK         0.0851 
     83 H83        22.6747  -26.3228  -41.4999 H         1 UNK         0.0851 
     84 H84        18.9953  -27.8478  -42.3454 H         1 UNK         0.2976 
     85 H85        21.5005  -29.8802  -45.2216 H         1 UNK         0.3116 
     86 H86        23.3752  -31.1830  -46.9674 H         1 UNK         0.0646 
     87 H87        23.2800  -33.0105  -45.2969 H         1 UNK         0.0847 
     88 H88        21.6614  -32.4402  -45.6652 H         1 UNK         0.0847 
     89 H89        22.4431  -31.9747  -44.1538 H         1 UNK         0.0847 
     90 H90        23.6591  -29.7495  -43.6792 H         1 UNK         0.3040 
     91 H91        26.2481  -28.7503  -44.0365 H         1 UNK         0.1015 
     92 H92        27.1659  -31.0023  -43.7478 H         1 UNK         0.0786 
     93 H93        26.0659  -31.3662  -42.4288 H         1 UNK         0.0786 
     94 H94        27.3690  -30.2080  -42.2008 H         1 UNK         0.0786 
     95 H95        26.9435  -27.6414  -42.0884 H         1 UNK         0.3172 
     96 H96        24.9357  -26.1339  -40.8803 H         1 UNK         0.0595 
     97 H97        26.8079  -25.2218  -39.4935 H         1 UNK         0.0839 
     98 H98        27.2380  -25.3190  -41.1922 H         1 UNK         0.0839 
     99 H99        27.8589  -26.5142  -40.0526 H         1 UNK         0.0839 
    100 H100       23.4699  -26.7867  -39.4989 H         1 UNK         0.2998 
    101 H101       22.3348  -27.6159  -37.8155 H         1 UNK         0.0822 
    102 H102       24.0145  -26.3856  -36.4138 H         1 UNK         0.0787 
    103 H103       23.3671  -27.7916  -35.5887 H         1 UNK         0.0787 
    104 H104       24.9777  -27.8570  -36.2858 H         1 UNK         0.0787 
    105 H105       23.7455  -29.5802  -39.7930 H         1 UNK         0.3055 
    106 H106       23.7731  -32.0889  -38.2824 H         1 UNK         0.1106 
    107 H107       24.1963  -33.0956  -40.5122 H         1 UNK         0.0828 
    108 H108       23.8843  -31.5551  -41.2990 H         1 UNK         0.0828 
    109 H109       25.2772  -31.7409  -40.2274 H         1 UNK         0.0828 
    110 H110       21.4962  -30.3049  -40.2937 H         1 UNK         0.2931 
    111 H111       19.5619  -32.4219  -40.5938 H         1 UNK         0.0412 
    112 H112       17.2262  -31.9466  -37.9544 H         1 UNK         0.3472 
    113 H113       17.5544  -32.7326  -39.4757 H         1 UNK         0.3472 
    114 H114       19.2905  -29.4070  -41.0180 H         1 UNK         0.0970 
    115 H115       18.0838  -30.5793  -41.4725 H         1 UNK         0.0970 
    116 H116       18.1492  -32.2268  -43.1778 H         1 UNK         0.0612 
    117 H117       19.3188  -32.4009  -44.4568 H         1 UNK         0.0612 
@<TRIPOS>BOND
     1    1    2 1    
     2    1   62 1    
     3    1   63 1    
     4    1   64 1    
     5    2    3 2    
     6    2    4 am   BACKBONE|DICT|INTERRES
     7    4    5 1    
     8    4   65 1    
     9    5    6 1    
    10    5   25 1    
    11    5   66 1    
    12    6    7 1    
    13    6   67 1    
    14    6   68 1    
    15    7    8 1    
    16    8    9 1    
    17    8   69 1    
    18    8   70 1    
    19    9   10 ar   
    20    9   14 ar   
    21   10   11 ar   
    22   10   71 1    
    23   11   12 ar   
    24   11   61 1    
    25   12   13 ar   
    26   12   72 1    
    27   13   14 ar   
    28   13   15 1    
    29   14   73 1    
    30   15   16 1    
    31   15   74 1    
    32   15   75 1    
    33   16   17 1    
    34   17   18 1    
    35   17   76 1    
    36   17   77 1    
    37   18   19 1    
    38   18   27 1    
    39   18   78 1    
    40   19   20 am   BACKBONE|DICT|INTERRES
    41   19   79 1    
    42   20   21 2    
    43   20   22 1    
    44   22   23 1    
    45   22   24 1    
    46   22   80 1    
    47   23   81 1    
    48   23   82 1    
    49   23   83 1    
    50   24   25 am   BACKBONE|DICT|INTERRES
    51   24   84 1    
    52   25   26 2    
    53   27   28 2    
    54   27   29 am   BACKBONE|DICT|INTERRES
    55   29   30 1    
    56   29   85 1    
    57   30   31 1    
    58   30   32 1    
    59   30   86 1    
    60   31   87 1    
    61   31   88 1    
    62   31   89 1    
    63   32   33 2    
    64   32   34 am   BACKBONE|DICT|INTERRES
    65   34   35 1    
    66   34   90 1    
    67   35   36 1    
    68   35   37 1    
    69   35   91 1    
    70   36   92 1    
    71   36   93 1    
    72   36   94 1    
    73   37   38 2    
    74   37   39 am   BACKBONE|DICT|INTERRES
    75   39   40 1    
    76   39   95 1    
    77   40   41 1    
    78   40   42 1    
    79   40   96 1    
    80   41   97 1    
    81   41   98 1    
    82   41   99 1    
    83   42   43 2    
    84   42   44 am   BACKBONE|DICT|INTERRES
    85   44   45 1    
    86   44  100 1    
    87   45   46 1    
    88   45   47 1    
    89   45  101 1    
    90   46  102 1    
    91   46  103 1    
    92   46  104 1    
    93   47   48 2    
    94   47   49 am   BACKBONE|DICT|INTERRES
    95   49   50 1    
    96   49  105 1    
    97   50   51 1    
    98   50   52 1    
    99   50  106 1    
   100   51  107 1    
   101   51  108 1    
   102   51  109 1    
   103   52   53 2    
   104   52   54 am   BACKBONE|DICT|INTERRES
   105   54   55 1    
   106   54  110 1    
   107   55   56 1    
   108   55   59 1    
   109   55  111 1    
   110   56   57 am   BACKBONE|DICT|INTERRES
   111   56   58 2    
   112   57  112 1    
   113   57  113 1    
   114   59   60 1    
   115   59  114 1    
   116   59  115 1    
   117   60   61 1    
   118   61  116 1    
   119   61  117 1    
@<TRIPOS>SUBSTRUCTURE
     1 UNK         1 GROUP             0       ****    0 ROOT    
