@<TRIPOS>MOLECULE
3R8
117   119    1
SMALL
USER_CHARGES


@<TRIPOS>ATOM
      1 CA         21.9805  -26.7837  -48.5816 C.3       0 UNK        -0.2013 
      2 C          21.0720  -27.1243  -47.4107 C.2       0 UNK         0.4866 
      3 O          21.5316  -27.6985  -46.4248 O.2       0 UNK        -0.5176 
      4 N          19.7873  -26.7584  -47.4967 N.am      1 UNK        -0.4884 
      5 CA         18.7400  -27.0321  -46.5002 C.3       1 UNK         0.0853 
      6 C6         17.3312  -27.0207  -47.1509 C.3       10 UNK        -0.0849 
      7 S7         17.1434  -28.3662  -48.3701 S.3       10 UNK        -0.2776 
      8 C8         16.0419  -29.5214  -47.4876 C.3       10 UNK         0.0316 
      9 C9         16.6168  -29.9724  -46.1504 C.ar      10 UNK        -0.0863 
     10 C10        17.7225  -30.8263  -46.1089 C.ar      10 UNK        -0.1009 
     11 C11        18.2447  -31.2526  -44.8841 C.ar      10 UNK        -0.0712 
     12 C12        17.6514  -30.8195  -43.6932 C.ar      10 UNK        -0.0894 
     13 C13        16.5530  -29.9555  -43.7205 C.ar      10 UNK        -0.0745 
     14 C14        16.0352  -29.5443  -44.9529 C.ar      10 UNK        -0.0972 
     15 C15        15.9068  -29.4830  -42.4247 C.3       10 UNK         0.0209 
     16 S16        16.0565  -27.6779  -42.2265 S.3       10 UNK        -0.2568 
     17 C17        16.9865  -27.5116  -40.6641 C.3       10 UNK        -0.0983 
     18 CA         18.5225  -27.4626  -40.8611 C.3       3 UNK         0.0876 
     19 N          18.9241  -26.4875  -41.8753 N.am      3 UNK        -0.4424 
     20 C          20.1694  -26.2881  -42.3199 C.2       2 UNK         0.4918 
     21 O          21.1582  -26.9196  -41.9333 O.2       2 UNK        -0.4875 
     22 CA         20.2982  -25.2585  -43.4502 C.3       2 UNK         0.0481 
     23 CB         21.6809  -24.5883  -43.5011 C.3       2 UNK        -0.1831 
     24 N          20.0383  -25.9499  -44.7093 N.am      2 UNK        -0.4498 
     25 C          18.8320  -26.0955  -45.2716 C.2       1 UNK         0.5027 
     26 O          17.8238  -25.5258  -44.8489 O.2       1 UNK        -0.4969 
     27 C          19.2329  -27.1805  -39.5221 C.2       3 UNK         0.5005 
     28 O          19.2115  -26.0395  -39.0534 O.2       3 UNK        -0.5279 
     29 N          19.8554  -28.2203  -38.9522 N.am      4 UNK        -0.4463 
     30 CA         20.6829  -28.2108  -37.7402 C.3       4 UNK         0.0283 
     31 CB         19.8479  -27.8295  -36.4985 C.3       4 UNK        -0.1875 
     32 C          21.9755  -27.3757  -37.8700 C.2       4 UNK         0.4949 
     33 O          22.5187  -26.9526  -36.8480 O.2       4 UNK        -0.5039 
     34 N          22.4591  -27.1629  -39.1030 N.am      5 UNK        -0.4663 
     35 CA         23.6682  -26.3884  -39.3901 C.3       5 UNK         0.0242 
     36 CB         23.2901  -24.9519  -39.7873 C.3       5 UNK        -0.1982 
     37 C          24.5444  -27.0544  -40.4579 C.2       5 UNK         0.5017 
     38 O          25.7452  -27.2090  -40.2276 O.2       5 UNK        -0.5012 
     39 N          23.9581  -27.4400  -41.6016 N.am      6 UNK        -0.4439 
     40 CA         24.6738  -28.0385  -42.7362 C.3       6 UNK         0.0297 
     41 CB         23.8906  -27.7980  -44.0411 C.3       6 UNK        -0.2006 
     42 C          25.0236  -29.5223  -42.5116 C.2       6 UNK         0.4892 
     43 O          24.4854  -30.3938  -43.1968 O.2       6 UNK        -0.5089 
     44 N          25.9352  -29.7714  -41.5602 N.am      7 UNK        -0.4243 
     45 CA         26.5470  -31.0597  -41.2133 C.3       7 UNK         0.0196 
     46 CB         27.5666  -31.4706  -42.3000 C.3       7 UNK        -0.2007 
     47 C          25.4938  -32.1406  -40.9099 C.2       7 UNK         0.5020 
     48 O          24.8650  -32.0855  -39.8528 O.2       7 UNK        -0.5147 
     49 N          25.2913  -33.0761  -41.8485 N.am      8 UNK        -0.4734 
     50 CA         24.2862  -34.1425  -41.7898 C.3       8 UNK         0.0238 
     51 CB         24.4644  -35.0705  -43.0024 C.3       8 UNK        -0.1912 
     52 C          22.8332  -33.6375  -41.7091 C.2       8 UNK         0.5038 
     53 O          21.9841  -34.3587  -41.1834 O.2       8 UNK        -0.5046 
     54 N          22.5753  -32.4176  -42.2007 N.am      9 UNK        -0.4200 
     55 CA         21.2976  -31.7121  -42.0303 C.3       9 UNK         0.0839 
     56 C          21.0954  -31.1037  -40.6152 C.2       9 UNK         0.5513 
     57 N          22.0830  -31.0986  -39.7272 N.am      9 UNK        -0.7519 
     58 O          20.0038  -30.6300  -40.3127 O.2       9 UNK        -0.4960 
     59 C59        21.0654  -30.6448  -43.1315 C.3       10 UNK        -0.0876 
     60 S60        21.0316  -31.3422  -44.8181 S.3       10 UNK        -0.2414 
     61 C61        19.4283  -32.2087  -44.8541 C.3       10 UNK         0.0169 
     62 H62        22.7930  -26.1378  -48.2498 H         1 UNK         0.0903 
     63 H63        22.4153  -27.6938  -48.9940 H         1 UNK         0.0903 
     64 H64        21.4434  -26.2720  -49.3801 H         1 UNK         0.0903 
     65 H65        19.4712  -26.2742  -48.3251 H         1 UNK         0.3096 
     66 H66        18.9070  -28.0375  -46.1049 H         1 UNK         0.1121 
     67 H67        17.1468  -26.0673  -47.6489 H         1 UNK         0.0849 
     68 H68        16.5460  -27.1183  -46.3992 H         1 UNK         0.0849 
     69 H69        15.0671  -29.0501  -47.3518 H         1 UNK         0.0865 
     70 H70        15.8694  -30.3957  -48.1170 H         1 UNK         0.0865 
     71 H71        18.1762  -31.1592  -47.0327 H         1 UNK         0.1346 
     72 H72        18.0449  -31.1579  -42.7442 H         1 UNK         0.1412 
     73 H73        15.1798  -28.8826  -44.9742 H         1 UNK         0.1426 
     74 H74        16.3421  -29.9980  -41.5672 H         1 UNK         0.0716 
     75 H75        14.8491  -29.7494  -42.4353 H         1 UNK         0.0716 
     76 H76        16.7103  -28.3232  -39.9884 H         1 UNK         0.0695 
     77 H77        16.6388  -26.5942  -40.1846 H         1 UNK         0.0695 
     78 H78        18.8423  -28.4386  -41.2307 H         1 UNK         0.0983 
     79 H79        18.1714  -25.9586  -42.2936 H         1 UNK         0.3095 
     80 H80        19.5591  -24.4694  -43.2960 H         1 UNK         0.0454 
     81 H81        22.4913  -25.3126  -43.5310 H         1 UNK         0.0851 
     82 H82        21.8365  -23.9614  -42.6235 H         1 UNK         0.0851 
     83 H83        21.7768  -23.9439  -44.3749 H         1 UNK         0.0851 
     84 H84        20.8004  -26.4938  -45.1063 H         1 UNK         0.2976 
     85 H85        19.8193  -29.1193  -39.4358 H         1 UNK         0.3116 
     86 H86        21.0113  -29.2408  -37.5993 H         1 UNK         0.0646 
     87 H87        19.5511  -26.7806  -36.5149 H         1 UNK         0.0847 
     88 H88        20.4152  -27.9893  -35.5808 H         1 UNK         0.0847 
     89 H89        18.9438  -28.4338  -36.4262 H         1 UNK         0.0847 
     90 H90        21.9496  -27.5274  -39.8979 H         1 UNK         0.3040 
     91 H91        24.2877  -26.3297  -38.4919 H         1 UNK         0.1015 
     92 H92        22.6116  -24.9365  -40.6386 H         1 UNK         0.0786 
     93 H93        24.1733  -24.3712  -40.0570 H         1 UNK         0.0786 
     94 H94        22.7991  -24.4334  -38.9636 H         1 UNK         0.0786 
     95 H95        22.9610  -27.2777  -41.7270 H         1 UNK         0.3172 
     96 H96        25.6280  -27.5200  -42.8533 H         1 UNK         0.0595 
     97 H97        24.2860  -28.3959  -44.8636 H         1 UNK         0.0839 
     98 H98        23.9684  -26.7595  -44.3576 H         1 UNK         0.0839 
     99 H99        22.8337  -28.0419  -43.9433 H         1 UNK         0.0839 
    100 H100       26.2333  -28.9748  -41.0046 H         1 UNK         0.2998 
    101 H101       27.0984  -30.9036  -40.2847 H         1 UNK         0.0822 
    102 H102       28.0376  -32.4250  -42.0600 H         1 UNK         0.0787 
    103 H103       27.1099  -31.5611  -43.2863 H         1 UNK         0.0787 
    104 H104       28.3662  -30.7338  -42.3793 H         1 UNK         0.0787 
    105 H105       25.8307  -33.0096  -42.6998 H         1 UNK         0.3055 
    106 H106       24.4734  -34.7202  -40.8820 H         1 UNK         0.1106 
    107 H107       23.7487  -35.8935  -42.9726 H         1 UNK         0.0828 
    108 H108       24.3103  -34.5394  -43.9426 H         1 UNK         0.0828 
    109 H109       25.4609  -35.5121  -43.0232 H         1 UNK         0.0828 
    110 H110       23.3306  -31.8761  -42.6116 H         1 UNK         0.2931 
    111 H111       20.5030  -32.4525  -42.1241 H         1 UNK         0.0412 
    112 H112       22.9901  -31.4992  -39.9433 H         1 UNK         0.3472 
    113 H113       21.9157  -30.7389  -38.8036 H         1 UNK         0.3472 
    114 H114       21.8595  -29.9007  -43.0913 H         1 UNK         0.0970 
    115 H115       20.1459  -30.0845  -42.9642 H         1 UNK         0.0970 
    116 H116       19.4054  -32.8432  -45.7414 H         1 UNK         0.0612 
    117 H117       19.3461  -32.8887  -44.0063 H         1 UNK         0.0612 
@<TRIPOS>BOND
     1    1    2 1    
     2    1   62 1    
     3    1   63 1    
     4    1   64 1    
     5    2    3 2    
     6    2    4 am   BACKBONE|DICT|INTERRES
     7    4    5 1    
     8    4   65 1    
     9    5    6 1    
    10    5   25 1    
    11    5   66 1    
    12    6    7 1    
    13    6   67 1    
    14    6   68 1    
    15    7    8 1    
    16    8    9 1    
    17    8   69 1    
    18    8   70 1    
    19    9   10 ar   
    20    9   14 ar   
    21   10   11 ar   
    22   10   71 1    
    23   11   12 ar   
    24   11   61 1    
    25   12   13 ar   
    26   12   72 1    
    27   13   14 ar   
    28   13   15 1    
    29   14   73 1    
    30   15   16 1    
    31   15   74 1    
    32   15   75 1    
    33   16   17 1    
    34   17   18 1    
    35   17   76 1    
    36   17   77 1    
    37   18   19 1    
    38   18   27 1    
    39   18   78 1    
    40   19   20 am   BACKBONE|DICT|INTERRES
    41   19   79 1    
    42   20   21 2    
    43   20   22 1    
    44   22   23 1    
    45   22   24 1    
    46   22   80 1    
    47   23   81 1    
    48   23   82 1    
    49   23   83 1    
    50   24   25 am   BACKBONE|DICT|INTERRES
    51   24   84 1    
    52   25   26 2    
    53   27   28 2    
    54   27   29 am   BACKBONE|DICT|INTERRES
    55   29   30 1    
    56   29   85 1    
    57   30   31 1    
    58   30   32 1    
    59   30   86 1    
    60   31   87 1    
    61   31   88 1    
    62   31   89 1    
    63   32   33 2    
    64   32   34 am   BACKBONE|DICT|INTERRES
    65   34   35 1    
    66   34   90 1    
    67   35   36 1    
    68   35   37 1    
    69   35   91 1    
    70   36   92 1    
    71   36   93 1    
    72   36   94 1    
    73   37   38 2    
    74   37   39 am   BACKBONE|DICT|INTERRES
    75   39   40 1    
    76   39   95 1    
    77   40   41 1    
    78   40   42 1    
    79   40   96 1    
    80   41   97 1    
    81   41   98 1    
    82   41   99 1    
    83   42   43 2    
    84   42   44 am   BACKBONE|DICT|INTERRES
    85   44   45 1    
    86   44  100 1    
    87   45   46 1    
    88   45   47 1    
    89   45  101 1    
    90   46  102 1    
    91   46  103 1    
    92   46  104 1    
    93   47   48 2    
    94   47   49 am   BACKBONE|DICT|INTERRES
    95   49   50 1    
    96   49  105 1    
    97   50   51 1    
    98   50   52 1    
    99   50  106 1    
   100   51  107 1    
   101   51  108 1    
   102   51  109 1    
   103   52   53 2    
   104   52   54 am   BACKBONE|DICT|INTERRES
   105   54   55 1    
   106   54  110 1    
   107   55   56 1    
   108   55   59 1    
   109   55  111 1    
   110   56   57 am   BACKBONE|DICT|INTERRES
   111   56   58 2    
   112   57  112 1    
   113   57  113 1    
   114   59   60 1    
   115   59  114 1    
   116   59  115 1    
   117   60   61 1    
   118   61  116 1    
   119   61  117 1    
@<TRIPOS>SUBSTRUCTURE
     1 UNK         1 GROUP             0       ****    0 ROOT    
