@<TRIPOS>MOLECULE
3R8
117   119    1
SMALL
USER_CHARGES


@<TRIPOS>ATOM
      1 CA         16.3437  -28.4121  -41.0014 C.3       0 UNK        -0.2013 
      2 C          16.8047  -27.5908  -42.1953 C.2       0 UNK         0.4866 
      3 O          18.0073  -27.5082  -42.4473 O.2       0 UNK        -0.5176 
      4 N          15.8588  -26.9821  -42.9273 N.am      1 UNK        -0.4884 
      5 CA         16.0715  -26.1885  -44.1487 C.3       1 UNK         0.0853 
      6 C6         16.4898  -27.0706  -45.3623 C.3       10 UNK        -0.0849 
      7 S7         15.2439  -28.3357  -45.7734 S.3       10 UNK        -0.2776 
      8 C8         16.1465  -29.3271  -47.0069 C.3       10 UNK         0.0316 
      9 C9         17.1982  -30.2257  -46.3688 C.ar      10 UNK        -0.0863 
     10 C10        16.8142  -31.4217  -45.7552 C.ar      10 UNK        -0.1009 
     11 C11        17.7672  -32.2768  -45.1932 C.ar      10 UNK        -0.0712 
     12 C12        19.1211  -31.9282  -45.2669 C.ar      10 UNK        -0.0894 
     13 C13        19.5178  -30.7219  -45.8496 C.ar      10 UNK        -0.0745 
     14 C14        18.5524  -29.8782  -46.4087 C.ar      10 UNK        -0.0972 
     15 C15        20.9901  -30.3290  -45.8641 C.3       10 UNK         0.0209 
     16 S16        21.6902  -30.1803  -44.1851 S.3       10 UNK        -0.2568 
     17 C17        20.6959  -28.8229  -43.4794 C.3       10 UNK        -0.0983 
     18 CA         21.3885  -27.4382  -43.5697 C.3       3 UNK         0.0876 
     19 N          20.3914  -26.3654  -43.6302 N.am      3 UNK        -0.4424 
     20 C          20.6028  -25.1358  -44.1252 C.2       2 UNK         0.4918 
     21 O          21.7026  -24.7450  -44.5175 O.2       2 UNK        -0.4875 
     22 CA         19.3756  -24.2087  -44.2187 C.3       2 UNK         0.0481 
     23 CB         19.5442  -23.0975  -45.2712 C.3       2 UNK        -0.1831 
     24 N          18.1978  -25.0127  -44.5388 N.am      2 UNK        -0.4498 
     25 C          17.0412  -25.0156  -43.8657 C.2       1 UNK         0.5027 
     26 O          16.7408  -24.1767  -43.0134 O.2       1 UNK        -0.4969 
     27 C          22.4157  -27.2518  -42.4339 C.2       3 UNK         0.5005 
     28 O          23.4090  -27.9757  -42.4135 O.2       3 UNK        -0.5279 
     29 N          22.1780  -26.3061  -41.5111 N.am      4 UNK        -0.4463 
     30 CA         22.9278  -26.0607  -40.2687 C.3       4 UNK         0.0283 
     31 CB         22.3373  -24.8250  -39.5703 C.3       4 UNK        -0.1875 
     32 C          24.4591  -25.9177  -40.3926 C.2       4 UNK         0.4949 
     33 O          25.1562  -26.1388  -39.4026 O.2       4 UNK        -0.5039 
     34 N          24.9622  -25.5774  -41.5876 N.am      5 UNK        -0.4663 
     35 CA         26.3917  -25.5762  -41.9173 C.3       5 UNK         0.0242 
     36 CB         26.5950  -24.8963  -43.2808 C.3       5 UNK        -0.1982 
     37 C          27.0186  -26.9858  -41.9180 C.2       5 UNK         0.5017 
     38 O          28.1968  -27.1174  -41.5847 O.2       5 UNK        -0.5012 
     39 N          26.2240  -28.0019  -42.2804 N.am      6 UNK        -0.4439 
     40 CA         26.5776  -29.4226  -42.2252 C.3       6 UNK         0.0297 
     41 CB         26.1467  -30.1006  -43.5371 C.3       6 UNK        -0.2006 
     42 C          25.9039  -30.1147  -41.0282 C.2       6 UNK         0.4892 
     43 O          26.5046  -31.0114  -40.4359 O.2       6 UNK        -0.5089 
     44 N          24.6745  -29.6832  -40.7054 N.am      7 UNK        -0.4243 
     45 CA         23.7911  -30.1561  -39.6353 C.3       7 UNK         0.0196 
     46 CB         24.4075  -29.8835  -38.2470 C.3       7 UNK        -0.2007 
     47 C          23.3310  -31.6147  -39.8202 C.2       7 UNK         0.5020 
     48 O          23.0660  -32.2998  -38.8316 O.2       7 UNK        -0.5147 
     49 N          23.2133  -32.0626  -41.0799 N.am      8 UNK        -0.4734 
     50 CA         22.8127  -33.4277  -41.4447 C.3       8 UNK         0.0238 
     51 CB         23.0493  -33.6491  -42.9476 C.3       8 UNK        -0.1912 
     52 C          21.3585  -33.7664  -41.0703 C.2       8 UNK         0.5038 
     53 O          21.0810  -34.9154  -40.7235 O.2       8 UNK        -0.5046 
     54 N          20.4786  -32.7598  -41.1293 N.am      9 UNK        -0.4200 
     55 CA         19.0632  -32.8257  -40.7285 C.3       9 UNK         0.0839 
     56 C          18.7258  -31.7938  -39.6131 C.2       9 UNK         0.5513 
     57 N          19.7022  -31.2794  -38.8733 N.am      9 UNK        -0.7519 
     58 O          17.5630  -31.4631  -39.3978 O.2       9 UNK        -0.4960 
     59 C59        18.1083  -32.7224  -41.9503 C.3       10 UNK        -0.0876 
     60 S60        18.3251  -34.1120  -43.1152 S.3       10 UNK        -0.2414 
     61 C61        17.3057  -33.5737  -44.5303 C.3       10 UNK         0.0169 
     62 H62        16.5940  -29.4615  -41.1539 H         1 UNK         0.0903 
     63 H63        16.8444  -28.0724  -40.0954 H         1 UNK         0.0903 
     64 H64        15.2681  -28.3384  -40.8441 H         1 UNK         0.0903 
     65 H65        14.8927  -27.0711  -42.6449 H         1 UNK         0.3096 
     66 H66        15.1139  -25.7240  -44.3903 H         1 UNK         0.1121 
     67 H67        17.4359  -27.5752  -45.1609 H         1 UNK         0.0849 
     68 H68        16.6355  -26.4584  -46.2545 H         1 UNK         0.0849 
     69 H69        15.4302  -29.9444  -47.5511 H         1 UNK         0.0865 
     70 H70        16.5978  -28.6672  -47.7496 H         1 UNK         0.0865 
     71 H71        15.7661  -31.6865  -45.7178 H         1 UNK         0.1346 
     72 H72        19.8738  -32.5801  -44.8461 H         1 UNK         0.1412 
     73 H73        18.8545  -28.9497  -46.8735 H         1 UNK         0.1426 
     74 H74        21.1382  -29.3859  -46.3924 H         1 UNK         0.0716 
     75 H75        21.5534  -31.0832  -46.4149 H         1 UNK         0.0716 
     76 H76        20.4403  -29.0730  -42.4477 H         1 UNK         0.0695 
     77 H77        19.7416  -28.7980  -44.0050 H         1 UNK         0.0695 
     78 H78        21.9525  -27.4006  -44.5044 H         1 UNK         0.0983 
     79 H79        19.4680  -26.6133  -43.2776 H         1 UNK         0.3095 
     80 H80        19.2625  -23.7432  -43.2378 H         1 UNK         0.0454 
     81 H81        18.6612  -22.4603  -45.3178 H         1 UNK         0.0851 
     82 H82        19.7146  -23.5079  -46.2671 H         1 UNK         0.0851 
     83 H83        20.3925  -22.4551  -45.0317 H         1 UNK         0.0851 
     84 H84        18.3522  -25.7442  -45.2183 H         1 UNK         0.2976 
     85 H85        21.3382  -25.7595  -41.6326 H         1 UNK         0.3116 
     86 H86        22.7519  -26.9254  -39.6259 H         1 UNK         0.0646 
     87 H87        21.2807  -24.9627  -39.3398 H         1 UNK         0.0847 
     88 H88        22.4349  -23.9299  -40.1859 H         1 UNK         0.0847 
     89 H89        22.8465  -24.6269  -38.6259 H         1 UNK         0.0847 
     90 H90        24.3151  -25.4071  -42.3443 H         1 UNK         0.3040 
     91 H91        26.9127  -24.9879  -41.1584 H         1 UNK         0.1015 
     92 H92        27.6532  -24.8593  -43.5440 H         1 UNK         0.0786 
     93 H93        26.2293  -23.8692  -43.2709 H         1 UNK         0.0786 
     94 H94        26.0787  -25.4300  -44.0800 H         1 UNK         0.0786 
     95 H95        25.2514  -27.7939  -42.4954 H         1 UNK         0.3172 
     96 H96        27.6579  -29.5414  -42.1179 H         1 UNK         0.0595 
     97 H97        25.0728  -30.0094  -43.7091 H         1 UNK         0.0839 
     98 H98        26.3868  -31.1647  -43.5245 H         1 UNK         0.0839 
     99 H99        26.6595  -29.6633  -44.3941 H         1 UNK         0.0839 
    100 H100       24.2541  -28.9833  -41.3173 H         1 UNK         0.2998 
    101 H101       22.8859  -29.5515  -39.7123 H         1 UNK         0.0822 
    102 H102       24.7086  -28.8404  -38.1465 H         1 UNK         0.0787 
    103 H103       23.6904  -30.0906  -37.4515 H         1 UNK         0.0787 
    104 H104       25.2843  -30.5056  -38.0642 H         1 UNK         0.0787 
    105 H105       23.4368  -31.4319  -41.8371 H         1 UNK         0.3055 
    106 H106       23.4563  -34.1177  -40.8940 H         1 UNK         0.1106 
    107 H107       22.4191  -33.0017  -43.5575 H         1 UNK         0.0828 
    108 H108       22.8207  -34.6782  -43.2284 H         1 UNK         0.0828 
    109 H109       24.0883  -33.4633  -43.2202 H         1 UNK         0.0828 
    110 H110       20.8104  -31.8518  -41.4197 H         1 UNK         0.2931 
    111 H111       18.8714  -33.7906  -40.2559 H         1 UNK         0.0412 
    112 H112       19.4702  -30.6194  -38.1477 H         1 UNK         0.3472 
    113 H113       20.6508  -31.6057  -38.9756 H         1 UNK         0.3472 
    114 H114       17.0647  -32.7256  -41.6304 H         1 UNK         0.0970 
    115 H115       18.2664  -31.7764  -42.4712 H         1 UNK         0.0970 
    116 H116       17.3100  -34.3651  -45.2806 H         1 UNK         0.0612 
    117 H117       16.2744  -33.4761  -44.1874 H         1 UNK         0.0612 
@<TRIPOS>BOND
     1    1    2 1    
     2    1   62 1    
     3    1   63 1    
     4    1   64 1    
     5    2    3 2    
     6    2    4 am   BACKBONE|DICT|INTERRES
     7    4    5 1    
     8    4   65 1    
     9    5    6 1    
    10    5   25 1    
    11    5   66 1    
    12    6    7 1    
    13    6   67 1    
    14    6   68 1    
    15    7    8 1    
    16    8    9 1    
    17    8   69 1    
    18    8   70 1    
    19    9   10 ar   
    20    9   14 ar   
    21   10   11 ar   
    22   10   71 1    
    23   11   12 ar   
    24   11   61 1    
    25   12   13 ar   
    26   12   72 1    
    27   13   14 ar   
    28   13   15 1    
    29   14   73 1    
    30   15   16 1    
    31   15   74 1    
    32   15   75 1    
    33   16   17 1    
    34   17   18 1    
    35   17   76 1    
    36   17   77 1    
    37   18   19 1    
    38   18   27 1    
    39   18   78 1    
    40   19   20 am   BACKBONE|DICT|INTERRES
    41   19   79 1    
    42   20   21 2    
    43   20   22 1    
    44   22   23 1    
    45   22   24 1    
    46   22   80 1    
    47   23   81 1    
    48   23   82 1    
    49   23   83 1    
    50   24   25 am   BACKBONE|DICT|INTERRES
    51   24   84 1    
    52   25   26 2    
    53   27   28 2    
    54   27   29 am   BACKBONE|DICT|INTERRES
    55   29   30 1    
    56   29   85 1    
    57   30   31 1    
    58   30   32 1    
    59   30   86 1    
    60   31   87 1    
    61   31   88 1    
    62   31   89 1    
    63   32   33 2    
    64   32   34 am   BACKBONE|DICT|INTERRES
    65   34   35 1    
    66   34   90 1    
    67   35   36 1    
    68   35   37 1    
    69   35   91 1    
    70   36   92 1    
    71   36   93 1    
    72   36   94 1    
    73   37   38 2    
    74   37   39 am   BACKBONE|DICT|INTERRES
    75   39   40 1    
    76   39   95 1    
    77   40   41 1    
    78   40   42 1    
    79   40   96 1    
    80   41   97 1    
    81   41   98 1    
    82   41   99 1    
    83   42   43 2    
    84   42   44 am   BACKBONE|DICT|INTERRES
    85   44   45 1    
    86   44  100 1    
    87   45   46 1    
    88   45   47 1    
    89   45  101 1    
    90   46  102 1    
    91   46  103 1    
    92   46  104 1    
    93   47   48 2    
    94   47   49 am   BACKBONE|DICT|INTERRES
    95   49   50 1    
    96   49  105 1    
    97   50   51 1    
    98   50   52 1    
    99   50  106 1    
   100   51  107 1    
   101   51  108 1    
   102   51  109 1    
   103   52   53 2    
   104   52   54 am   BACKBONE|DICT|INTERRES
   105   54   55 1    
   106   54  110 1    
   107   55   56 1    
   108   55   59 1    
   109   55  111 1    
   110   56   57 am   BACKBONE|DICT|INTERRES
   111   56   58 2    
   112   57  112 1    
   113   57  113 1    
   114   59   60 1    
   115   59  114 1    
   116   59  115 1    
   117   60   61 1    
   118   61  116 1    
   119   61  117 1    
@<TRIPOS>SUBSTRUCTURE
     1 UNK         1 GROUP             0       ****    0 ROOT    
