@<TRIPOS>MOLECULE
3R8
117   119    1
SMALL
USER_CHARGES


@<TRIPOS>ATOM
      1 CA         23.3713  -23.6164  -47.6592 C.3       0 UNK        -0.2013 
      2 C          22.9596  -23.9347  -46.2298 C.2       0 UNK         0.4866 
      3 O          23.1211  -23.0945  -45.3447 O.2       0 UNK        -0.5176 
      4 N          22.4323  -25.1436  -45.9969 N.am      1 UNK        -0.4884 
      5 CA         21.9480  -25.6125  -44.6932 C.3       1 UNK         0.0853 
      6 C6         21.7131  -27.1488  -44.6789 C.3       10 UNK        -0.0849 
      7 S7         20.5878  -27.7252  -46.0018 S.3       10 UNK        -0.2776 
      8 C8         20.8134  -29.5316  -45.9502 C.3       10 UNK         0.0316 
      9 C9         19.9361  -30.2288  -44.9147 C.ar      10 UNK        -0.0863 
     10 C10        20.4857  -31.2228  -44.0986 C.ar      10 UNK        -0.1009 
     11 C11        19.6786  -31.9478  -43.2171 C.ar      10 UNK        -0.0712 
     12 C12        18.3153  -31.6525  -43.1323 C.ar      10 UNK        -0.0894 
     13 C13        17.7510  -30.6586  -43.9369 C.ar      10 UNK        -0.0745 
     14 C14        18.5648  -29.9538  -44.8296 C.ar      10 UNK        -0.0972 
     15 C15        16.2527  -30.3942  -43.8733 C.3       10 UNK         0.0209 
     16 S16        15.7972  -29.3719  -42.4363 S.3       10 UNK        -0.2568 
     17 C17        16.0612  -27.6780  -43.0630 C.3       10 UNK        -0.0983 
     18 CA         17.4701  -27.1170  -42.7290 C.3       3 UNK         0.0876 
     19 N          17.9660  -26.2083  -43.7697 N.am      3 UNK        -0.4424 
     20 C          17.5123  -24.9769  -44.0552 C.2       2 UNK         0.4918 
     21 O          16.4761  -24.5070  -43.5849 O.2       2 UNK        -0.4875 
     22 CA         18.3914  -24.1041  -44.9834 C.3       2 UNK         0.0481 
     23 CB         18.4323  -22.6352  -44.5136 C.3       2 UNK        -0.1831 
     24 N          19.7591  -24.6150  -45.1743 N.am      2 UNK        -0.4498 
     25 C          20.6816  -24.8656  -44.2292 C.2       1 UNK         0.5027 
     26 O          20.5249  -24.6114  -43.0337 O.2       1 UNK        -0.4969 
     27 C          17.5993  -26.5238  -41.2979 C.2       3 UNK         0.5005 
     28 O          16.8802  -26.9421  -40.3891 O.2       3 UNK        -0.5279 
     29 N          18.5189  -25.5632  -41.1183 N.am      4 UNK        -0.4463 
     30 CA         18.8275  -24.8969  -39.8531 C.3       4 UNK         0.0283 
     31 CB         18.6586  -23.3764  -40.0166 C.3       4 UNK        -0.1875 
     32 C          20.2561  -25.2556  -39.4334 C.2       4 UNK         0.4949 
     33 O          20.4563  -25.8030  -38.3497 O.2       4 UNK        -0.5039 
     34 N          21.2190  -25.0192  -40.3338 N.am      5 UNK        -0.4663 
     35 CA         22.6052  -25.4730  -40.2303 C.3       5 UNK         0.0242 
     36 CB         23.5273  -24.4201  -40.8723 C.3       5 UNK        -0.1982 
     37 C          22.7261  -26.8568  -40.8900 C.2       5 UNK         0.5017 
     38 O          23.4846  -27.0344  -41.8449 O.2       5 UNK        -0.5012 
     39 N          21.9304  -27.8098  -40.3900 N.am      6 UNK        -0.4439 
     40 CA         21.7855  -29.1789  -40.8859 C.3       6 UNK         0.0297 
     41 CB         20.4354  -29.7285  -40.3890 C.3       6 UNK        -0.2006 
     42 C          22.9774  -30.0751  -40.4945 C.2       6 UNK         0.4892 
     43 O          22.7914  -31.1136  -39.8584 O.2       6 UNK        -0.5089 
     44 N          24.1893  -29.6575  -40.8799 N.am      7 UNK        -0.4243 
     45 CA         25.4620  -30.3386  -40.6280 C.3       7 UNK         0.0196 
     46 CB         26.5934  -29.2941  -40.6630 C.3       7 UNK        -0.2007 
     47 C          25.6935  -31.5025  -41.6125 C.2       7 UNK         0.5020 
     48 O          26.7043  -31.5320  -42.3166 O.2       7 UNK        -0.5147 
     49 N          24.7388  -32.4341  -41.6540 N.am      8 UNK        -0.4734 
     50 CA         24.7115  -33.6294  -42.4930 C.3       8 UNK         0.0238 
     51 CB         24.4036  -33.2501  -43.9601 C.3       8 UNK        -0.1912 
     52 C          23.6859  -34.6059  -41.8924 C.2       8 UNK         0.5038 
     53 O          23.3771  -34.5012  -40.7021 O.2       8 UNK        -0.5046 
     54 N          23.1538  -35.5101  -42.7245 N.am      9 UNK        -0.4200 
     55 CA         22.1110  -36.4929  -42.3829 C.3       9 UNK         0.0839 
     56 C          22.6010  -37.5861  -41.3827 C.2       9 UNK         0.5513 
     57 N          21.7023  -38.3706  -40.8017 N.am      9 UNK        -0.7519 
     58 O          23.7969  -37.7729  -41.1639 O.2       9 UNK        -0.4960 
     59 C59        20.7623  -35.8233  -41.9721 C.3       10 UNK        -0.0876 
     60 S60        20.1220  -34.6670  -43.2338 S.3       10 UNK        -0.2414 
     61 C61        20.2688  -33.0688  -42.3754 C.3       10 UNK         0.0169 
     62 H62        24.4358  -23.3872  -47.7006 H         1 UNK         0.0903 
     63 H63        23.1774  -24.4491  -48.3351 H         1 UNK         0.0903 
     64 H64        22.8215  -22.7490  -48.0234 H         1 UNK         0.0903 
     65 H65        22.3257  -25.8001  -46.7586 H         1 UNK         0.3096 
     66 H66        22.7256  -25.3917  -43.9590 H         1 UNK         0.1121 
     67 H67        22.6722  -27.6566  -44.7928 H         1 UNK         0.0849 
     68 H68        21.3224  -27.4759  -43.7134 H         1 UNK         0.0849 
     69 H69        20.5613  -29.9359  -46.9314 H         1 UNK         0.0865 
     70 H70        21.8687  -29.7597  -45.7921 H         1 UNK         0.0865 
     71 H71        21.5373  -31.4592  -44.1736 H         1 UNK         0.1346 
     72 H72        17.6865  -32.2137  -42.4545 H         1 UNK         0.1412 
     73 H73        18.1262  -29.2049  -45.4750 H         1 UNK         0.1426 
     74 H74        15.8973  -29.9319  -44.7953 H         1 UNK         0.0716 
     75 H75        15.7267  -31.3471  -43.7978 H         1 UNK         0.0716 
     76 H76        15.2786  -27.0271  -42.6687 H         1 UNK         0.0695 
     77 H77        15.9050  -27.6915  -44.1426 H         1 UNK         0.0695 
     78 H78        18.1723  -27.9519  -42.7446 H         1 UNK         0.0983 
     79 H79        18.8010  -26.5129  -44.2493 H         1 UNK         0.3095 
     80 H80        17.9166  -24.1289  -45.9650 H         1 UNK         0.0454 
     81 H81        17.4342  -22.1958  -44.5086 H         1 UNK         0.0851 
     82 H82        19.0486  -22.0247  -45.1734 H         1 UNK         0.0851 
     83 H83        18.8313  -22.5433  -43.5030 H         1 UNK         0.0851 
     84 H84        19.9906  -24.8918  -46.1190 H         1 UNK         0.2976 
     85 H85        19.0888  -25.2882  -41.9124 H         1 UNK         0.3116 
     86 H86        18.1520  -25.2314  -39.0631 H         1 UNK         0.0646 
     87 H87        17.6278  -23.1214  -40.2631 H         1 UNK         0.0847 
     88 H88        18.9096  -22.8542  -39.0925 H         1 UNK         0.0847 
     89 H89        19.2960  -22.9734  -40.8046 H         1 UNK         0.0847 
     90 H90        20.9550  -24.6371  -41.2390 H         1 UNK         0.3040 
     91 H91        22.8926  -25.5791  -39.1817 H         1 UNK         0.1015 
     92 H92        23.2829  -24.2492  -41.9210 H         1 UNK         0.0786 
     93 H93        24.5714  -24.7324  -40.8250 H         1 UNK         0.0786 
     94 H94        23.4523  -23.4638  -40.3544 H         1 UNK         0.0786 
     95 H95        21.3658  -27.5629  -39.5869 H         1 UNK         0.3172 
     96 H96        21.7518  -29.1554  -41.9769 H         1 UNK         0.0595 
     97 H97        20.3742  -29.7261  -39.3001 H         1 UNK         0.0839 
     98 H98        20.2833  -30.7559  -40.7156 H         1 UNK         0.0839 
     99 H99        19.6003  -29.1439  -40.7754 H         1 UNK         0.0839 
    100 H100       24.2318  -28.7879  -41.4037 H         1 UNK         0.2998 
    101 H101       25.4372  -30.7681  -39.6240 H         1 UNK         0.0822 
    102 H102       26.4314  -28.5094  -39.9237 H         1 UNK         0.0787 
    103 H103       27.5577  -29.7529  -40.4401 H         1 UNK         0.0787 
    104 H104       26.6742  -28.8200  -41.6422 H         1 UNK         0.0787 
    105 H105       23.9672  -32.3610  -40.9939 H         1 UNK         0.3055 
    106 H106       25.6899  -34.1120  -42.4424 H         1 UNK         0.1106 
    107 H107       25.0825  -32.4817  -44.3295 H         1 UNK         0.0828 
    108 H108       24.5152  -34.1060  -44.6262 H         1 UNK         0.0828 
    109 H109       23.3868  -32.8744  -44.0721 H         1 UNK         0.0828 
    110 H110       23.4797  -35.5396  -43.6787 H         1 UNK         0.2931 
    111 H111       21.9304  -37.0359  -43.3113 H         1 UNK         0.0412 
    112 H112       22.0202  -39.0904  -40.1709 H         1 UNK         0.3472 
    113 H113       20.7167  -38.2691  -40.9854 H         1 UNK         0.3472 
    114 H114       19.9885  -36.5781  -41.8281 H         1 UNK         0.0970 
    115 H115       20.8606  -35.3137  -41.0123 H         1 UNK         0.0970 
    116 H116       21.3164  -32.8622  -42.1539 H         1 UNK         0.0612 
    117 H117       19.7531  -33.1244  -41.4155 H         1 UNK         0.0612 
@<TRIPOS>BOND
     1    1    2 1    
     2    1   62 1    
     3    1   63 1    
     4    1   64 1    
     5    2    3 2    
     6    2    4 am   BACKBONE|DICT|INTERRES
     7    4    5 1    
     8    4   65 1    
     9    5    6 1    
    10    5   25 1    
    11    5   66 1    
    12    6    7 1    
    13    6   67 1    
    14    6   68 1    
    15    7    8 1    
    16    8    9 1    
    17    8   69 1    
    18    8   70 1    
    19    9   10 ar   
    20    9   14 ar   
    21   10   11 ar   
    22   10   71 1    
    23   11   12 ar   
    24   11   61 1    
    25   12   13 ar   
    26   12   72 1    
    27   13   14 ar   
    28   13   15 1    
    29   14   73 1    
    30   15   16 1    
    31   15   74 1    
    32   15   75 1    
    33   16   17 1    
    34   17   18 1    
    35   17   76 1    
    36   17   77 1    
    37   18   19 1    
    38   18   27 1    
    39   18   78 1    
    40   19   20 am   BACKBONE|DICT|INTERRES
    41   19   79 1    
    42   20   21 2    
    43   20   22 1    
    44   22   23 1    
    45   22   24 1    
    46   22   80 1    
    47   23   81 1    
    48   23   82 1    
    49   23   83 1    
    50   24   25 am   BACKBONE|DICT|INTERRES
    51   24   84 1    
    52   25   26 2    
    53   27   28 2    
    54   27   29 am   BACKBONE|DICT|INTERRES
    55   29   30 1    
    56   29   85 1    
    57   30   31 1    
    58   30   32 1    
    59   30   86 1    
    60   31   87 1    
    61   31   88 1    
    62   31   89 1    
    63   32   33 2    
    64   32   34 am   BACKBONE|DICT|INTERRES
    65   34   35 1    
    66   34   90 1    
    67   35   36 1    
    68   35   37 1    
    69   35   91 1    
    70   36   92 1    
    71   36   93 1    
    72   36   94 1    
    73   37   38 2    
    74   37   39 am   BACKBONE|DICT|INTERRES
    75   39   40 1    
    76   39   95 1    
    77   40   41 1    
    78   40   42 1    
    79   40   96 1    
    80   41   97 1    
    81   41   98 1    
    82   41   99 1    
    83   42   43 2    
    84   42   44 am   BACKBONE|DICT|INTERRES
    85   44   45 1    
    86   44  100 1    
    87   45   46 1    
    88   45   47 1    
    89   45  101 1    
    90   46  102 1    
    91   46  103 1    
    92   46  104 1    
    93   47   48 2    
    94   47   49 am   BACKBONE|DICT|INTERRES
    95   49   50 1    
    96   49  105 1    
    97   50   51 1    
    98   50   52 1    
    99   50  106 1    
   100   51  107 1    
   101   51  108 1    
   102   51  109 1    
   103   52   53 2    
   104   52   54 am   BACKBONE|DICT|INTERRES
   105   54   55 1    
   106   54  110 1    
   107   55   56 1    
   108   55   59 1    
   109   55  111 1    
   110   56   57 am   BACKBONE|DICT|INTERRES
   111   56   58 2    
   112   57  112 1    
   113   57  113 1    
   114   59   60 1    
   115   59  114 1    
   116   59  115 1    
   117   60   61 1    
   118   61  116 1    
   119   61  117 1    
@<TRIPOS>SUBSTRUCTURE
     1 UNK         1 GROUP             0       ****    0 ROOT    
