@<TRIPOS>MOLECULE
3R8
117   119    1
SMALL
USER_CHARGES


@<TRIPOS>ATOM
      1 CA         17.1663  -26.3763  -37.7362 C.3       0 UNK        -0.2013 
      2 C          17.4712  -26.0196  -39.1833 C.2       0 UNK         0.4866 
      3 O          18.0062  -24.9433  -39.4497 O.2       0 UNK        -0.5176 
      4 N          17.1273  -26.9098  -40.1229 N.am      1 UNK        -0.4884 
      5 CA         17.3964  -26.7524  -41.5535 C.3       1 UNK         0.0853 
      6 C6         16.4134  -27.5984  -42.4074 C.3       10 UNK        -0.0849 
      7 S7         16.3002  -26.9986  -44.1264 S.3       10 UNK        -0.2776 
      8 C8         15.5089  -28.4121  -44.9631 C.3       10 UNK         0.0316 
      9 C9         16.5209  -29.4707  -45.3807 C.ar      10 UNK        -0.0863 
     10 C10        16.6695  -30.6485  -44.6406 C.ar      10 UNK        -0.1009 
     11 C11        17.5981  -31.6199  -45.0312 C.ar      10 UNK        -0.0712 
     12 C12        18.3805  -31.4048  -46.1689 C.ar      10 UNK        -0.0894 
     13 C13        18.2482  -30.2288  -46.9122 C.ar      10 UNK        -0.0745 
     14 C14        17.3039  -29.2734  -46.5227 C.ar      10 UNK        -0.0972 
     15 C15        19.1522  -29.9840  -48.1153 C.3       10 UNK         0.0209 
     16 S16        20.2109  -28.5070  -47.9284 S.3       10 UNK        -0.2568 
     17 C17        20.7462  -28.6310  -46.1898 C.3       10 UNK        -0.0983 
     18 CA         21.9316  -27.6829  -45.8505 C.3       3 UNK         0.0876 
     19 N          21.9267  -27.3229  -44.4336 N.am      3 UNK        -0.4424 
     20 C          21.1235  -26.3975  -43.9057 C.2       2 UNK         0.4918 
     21 O          20.3873  -25.6662  -44.5732 O.2       2 UNK        -0.4875 
     22 CA         21.1266  -26.2607  -42.3752 C.3       2 UNK         0.0481 
     23 CB         21.9648  -25.0496  -41.9385 C.3       2 UNK        -0.1831 
     24 N          19.7480  -26.1020  -41.9054 N.am      2 UNK        -0.4498 
     25 C          18.8688  -27.1094  -41.8306 C.2       1 UNK         0.5027 
     26 O          19.1885  -28.2944  -41.9277 O.2       1 UNK        -0.4969 
     27 C          23.3285  -28.2259  -46.1979 C.2       3 UNK         0.5005 
     28 O          24.3260  -27.6222  -45.7951 O.2       3 UNK        -0.5279 
     29 N          23.3919  -29.3693  -46.8972 N.am      4 UNK        -0.4463 
     30 CA         24.6046  -30.1810  -47.0538 C.3       4 UNK         0.0283 
     31 CB         24.3363  -31.3222  -48.0475 C.3       4 UNK        -0.1875 
     32 C          25.1016  -30.7370  -45.7046 C.2       4 UNK         0.4949 
     33 O          26.3099  -30.8543  -45.5004 O.2       4 UNK        -0.5039 
     34 N          24.1570  -31.0195  -44.7962 N.am      5 UNK        -0.4663 
     35 CA         24.4076  -31.2226  -43.3733 C.3       5 UNK         0.0242 
     36 CB         23.2245  -31.9839  -42.7570 C.3       5 UNK        -0.1982 
     37 C          24.5823  -29.8538  -42.6967 C.2       5 UNK         0.5017 
     38 O          23.6936  -29.0029  -42.8128 O.2       5 UNK        -0.5012 
     39 N          25.7200  -29.6684  -42.0181 N.am      6 UNK        -0.4439 
     40 CA         26.0543  -28.4549  -41.2730 C.3       6 UNK         0.0297 
     41 CB         27.5604  -28.4567  -40.9633 C.3       6 UNK        -0.2006 
     42 C          25.2405  -28.3450  -39.9741 C.2       6 UNK         0.4892 
     43 O          24.8639  -29.3690  -39.3985 O.2       6 UNK        -0.5089 
     44 N          25.0195  -27.0999  -39.5307 N.am      7 UNK        -0.4243 
     45 CA         24.2713  -26.6695  -38.3408 C.3       7 UNK         0.0196 
     46 CB         24.8793  -27.2290  -37.0383 C.3       7 UNK        -0.2007 
     47 C          22.7612  -26.9459  -38.4300 C.2       7 UNK         0.5020 
     48 O          21.9763  -26.0010  -38.3578 O.2       7 UNK        -0.5147 
     49 N          22.3806  -28.2148  -38.6018 N.am      8 UNK        -0.4734 
     50 CA         21.0085  -28.6688  -38.7960 C.3       8 UNK         0.0238 
     51 CB         20.2117  -28.5947  -37.4785 C.3       8 UNK        -0.1912 
     52 C          21.0254  -30.1037  -39.3319 C.2       8 UNK         0.5038 
     53 O          21.7273  -30.9519  -38.7773 O.2       8 UNK        -0.5046 
     54 N          20.2212  -30.3521  -40.3685 N.am      9 UNK        -0.4200 
     55 CA         19.9352  -31.6757  -40.9359 C.3       9 UNK         0.0839 
     56 C          19.0691  -32.5852  -40.0139 C.2       9 UNK         0.5513 
     57 N          18.2897  -32.0345  -39.0897 N.am      9 UNK        -0.7519 
     58 O          19.1192  -33.8073  -40.1220 O.2       9 UNK        -0.4960 
     59 C59        19.3073  -31.5003  -42.3417 C.3       10 UNK        -0.0876 
     60 S60        19.3973  -32.9767  -43.4057 S.3       10 UNK        -0.2414 
     61 C61        17.7699  -32.9001  -44.2225 C.3       10 UNK         0.0169 
     62 H62        16.3735  -25.7350  -37.3523 H         1 UNK         0.0903 
     63 H63        16.8485  -27.4132  -37.6290 H         1 UNK         0.0903 
     64 H64        18.0512  -26.2276  -37.1182 H         1 UNK         0.0903 
     65 H65        16.6992  -27.7830  -39.8494 H         1 UNK         0.3096 
     66 H66        17.2413  -25.7021  -41.8130 H         1 UNK         0.1121 
     67 H67        15.4085  -27.5345  -41.9868 H         1 UNK         0.0849 
     68 H68        16.6738  -28.6585  -42.3957 H         1 UNK         0.0849 
     69 H69        14.9893  -28.0459  -45.8499 H         1 UNK         0.0865 
     70 H70        14.7383  -28.8400  -44.3198 H         1 UNK         0.0865 
     71 H71        16.0646  -30.8076  -43.7584 H         1 UNK         0.1346 
     72 H72        19.1086  -32.1498  -46.4596 H         1 UNK         0.1412 
     73 H73        17.2019  -28.3597  -47.0927 H         1 UNK         0.1426 
     74 H74        18.5373  -29.8685  -49.0088 H         1 UNK         0.0716 
     75 H75        19.7944  -30.8474  -48.2958 H         1 UNK         0.0716 
     76 H76        20.9532  -29.6674  -45.9173 H         1 UNK         0.0695 
     77 H77        19.8761  -28.3538  -45.5920 H         1 UNK         0.0695 
     78 H78        21.8238  -26.7627  -46.4295 H         1 UNK         0.0983 
     79 H79        22.5619  -27.8543  -43.8393 H         1 UNK         0.3095 
     80 H80        21.5579  -27.1595  -41.9277 H         1 UNK         0.0454 
     81 H81        21.6038  -24.1235  -42.3877 H         1 UNK         0.0851 
     82 H82        23.0071  -25.1725  -42.2354 H         1 UNK         0.0851 
     83 H83        21.9486  -24.9244  -40.8562 H         1 UNK         0.0851 
     84 H84        19.4177  -25.1556  -41.7788 H         1 UNK         0.2976 
     85 H85        22.5282  -29.7610  -47.2471 H         1 UNK         0.3116 
     86 H86        25.3903  -29.5427  -47.4635 H         1 UNK         0.0646 
     87 H87        23.5489  -31.9905  -47.6968 H         1 UNK         0.0847 
     88 H88        25.2327  -31.9260  -48.1962 H         1 UNK         0.0847 
     89 H89        24.0416  -30.9379  -49.0242 H         1 UNK         0.0847 
     90 H90        23.1945  -30.8692  -45.0569 H         1 UNK         0.3040 
     91 H91        25.3130  -31.8206  -43.2459 H         1 UNK         0.1015 
     92 H92        22.2899  -31.4365  -42.8819 H         1 UNK         0.0786 
     93 H93        23.3734  -32.1363  -41.6870 H         1 UNK         0.0786 
     94 H94        23.1000  -32.9663  -43.2130 H         1 UNK         0.0786 
     95 H95        26.3773  -30.4318  -41.9501 H         1 UNK         0.3172 
     96 H96        25.8283  -27.5927  -41.9048 H         1 UNK         0.0595 
     97 H97        27.8543  -27.5470  -40.4377 H         1 UNK         0.0839 
     98 H98        28.1543  -28.5061  -41.8762 H         1 UNK         0.0839 
     99 H99        27.8423  -29.3008  -40.3321 H         1 UNK         0.0839 
    100 H100       25.3745  -26.3410  -40.0965 H         1 UNK         0.2998 
    101 H101       24.3848  -25.5846  -38.3039 H         1 UNK         0.0822 
    102 H102       24.3682  -26.8190  -36.1663 H         1 UNK         0.0787 
    103 H103       24.7995  -28.3145  -36.9760 H         1 UNK         0.0787 
    104 H104       25.9334  -26.9659  -36.9493 H         1 UNK         0.0787 
    105 H105       23.1037  -28.9255  -38.7044 H         1 UNK         0.3055 
    106 H106       20.5377  -28.0147  -39.5322 H         1 UNK         0.1106 
    107 H107       19.1897  -28.9478  -37.6189 H         1 UNK         0.0828 
    108 H108       20.6662  -29.2099  -36.7009 H         1 UNK         0.0828 
    109 H109       20.1500  -27.5744  -37.1013 H         1 UNK         0.0828 
    110 H110       19.7366  -29.5772  -40.8179 H         1 UNK         0.2931 
    111 H111       20.8944  -32.1815  -41.0542 H         1 UNK         0.0412 
    112 H112       18.2426  -31.0346  -38.9868 H         1 UNK         0.3472 
    113 H113       17.7404  -32.6305  -38.4904 H         1 UNK         0.3472 
    114 H114       18.2744  -31.1606  -42.2486 H         1 UNK         0.0970 
    115 H115       19.8245  -30.7088  -42.8872 H         1 UNK         0.0970 
    116 H116       16.9866  -32.9951  -43.4688 H         1 UNK         0.0612 
    117 H117       17.6661  -33.7605  -44.8849 H         1 UNK         0.0612 
@<TRIPOS>BOND
     1    1    2 1    
     2    1   62 1    
     3    1   63 1    
     4    1   64 1    
     5    2    3 2    
     6    2    4 am   BACKBONE|DICT|INTERRES
     7    4    5 1    
     8    4   65 1    
     9    5    6 1    
    10    5   25 1    
    11    5   66 1    
    12    6    7 1    
    13    6   67 1    
    14    6   68 1    
    15    7    8 1    
    16    8    9 1    
    17    8   69 1    
    18    8   70 1    
    19    9   10 ar   
    20    9   14 ar   
    21   10   11 ar   
    22   10   71 1    
    23   11   12 ar   
    24   11   61 1    
    25   12   13 ar   
    26   12   72 1    
    27   13   14 ar   
    28   13   15 1    
    29   14   73 1    
    30   15   16 1    
    31   15   74 1    
    32   15   75 1    
    33   16   17 1    
    34   17   18 1    
    35   17   76 1    
    36   17   77 1    
    37   18   19 1    
    38   18   27 1    
    39   18   78 1    
    40   19   20 am   BACKBONE|DICT|INTERRES
    41   19   79 1    
    42   20   21 2    
    43   20   22 1    
    44   22   23 1    
    45   22   24 1    
    46   22   80 1    
    47   23   81 1    
    48   23   82 1    
    49   23   83 1    
    50   24   25 am   BACKBONE|DICT|INTERRES
    51   24   84 1    
    52   25   26 2    
    53   27   28 2    
    54   27   29 am   BACKBONE|DICT|INTERRES
    55   29   30 1    
    56   29   85 1    
    57   30   31 1    
    58   30   32 1    
    59   30   86 1    
    60   31   87 1    
    61   31   88 1    
    62   31   89 1    
    63   32   33 2    
    64   32   34 am   BACKBONE|DICT|INTERRES
    65   34   35 1    
    66   34   90 1    
    67   35   36 1    
    68   35   37 1    
    69   35   91 1    
    70   36   92 1    
    71   36   93 1    
    72   36   94 1    
    73   37   38 2    
    74   37   39 am   BACKBONE|DICT|INTERRES
    75   39   40 1    
    76   39   95 1    
    77   40   41 1    
    78   40   42 1    
    79   40   96 1    
    80   41   97 1    
    81   41   98 1    
    82   41   99 1    
    83   42   43 2    
    84   42   44 am   BACKBONE|DICT|INTERRES
    85   44   45 1    
    86   44  100 1    
    87   45   46 1    
    88   45   47 1    
    89   45  101 1    
    90   46  102 1    
    91   46  103 1    
    92   46  104 1    
    93   47   48 2    
    94   47   49 am   BACKBONE|DICT|INTERRES
    95   49   50 1    
    96   49  105 1    
    97   50   51 1    
    98   50   52 1    
    99   50  106 1    
   100   51  107 1    
   101   51  108 1    
   102   51  109 1    
   103   52   53 2    
   104   52   54 am   BACKBONE|DICT|INTERRES
   105   54   55 1    
   106   54  110 1    
   107   55   56 1    
   108   55   59 1    
   109   55  111 1    
   110   56   57 am   BACKBONE|DICT|INTERRES
   111   56   58 2    
   112   57  112 1    
   113   57  113 1    
   114   59   60 1    
   115   59  114 1    
   116   59  115 1    
   117   60   61 1    
   118   61  116 1    
   119   61  117 1    
@<TRIPOS>SUBSTRUCTURE
     1 UNK         1 GROUP             0       ****    0 ROOT    
