@<TRIPOS>MOLECULE
3R8
117   119    1
SMALL
USER_CHARGES


@<TRIPOS>ATOM
      1 CA         11.9918  -24.3708  -42.5747 C.3       0 UNK        -0.2013 
      2 C          13.4358  -24.4702  -43.0436 C.2       0 UNK         0.4866 
      3 O          14.3050  -23.7868  -42.5010 O.2       0 UNK        -0.5176 
      4 N          13.6972  -25.3081  -44.0536 N.am      1 UNK        -0.4884 
      5 CA         15.0348  -25.5965  -44.5795 C.3       1 UNK         0.0853 
      6 C6         14.9702  -26.2210  -45.9987 C.3       10 UNK        -0.0849 
      7 S7         13.9413  -27.7299  -46.1025 S.3       10 UNK        -0.2776 
      8 C8         14.9600  -28.8180  -47.1528 C.3       10 UNK         0.0316 
      9 C9         16.2201  -29.3603  -46.4794 C.ar      10 UNK        -0.0863 
     10 C10        16.1788  -29.9220  -45.1968 C.ar      10 UNK        -0.1009 
     11 C11        17.3130  -30.5179  -44.6304 C.ar      10 UNK        -0.0712 
     12 C12        18.4973  -30.5509  -45.3787 C.ar      10 UNK        -0.0894 
     13 C13        18.5649  -29.9685  -46.6453 C.ar      10 UNK        -0.0745 
     14 C14        17.4247  -29.3721  -47.1885 C.ar      10 UNK        -0.0972 
     15 C15        19.8583  -30.0221  -47.4463 C.3       10 UNK         0.0209 
     16 S16        20.9180  -28.5738  -47.1374 S.3       10 UNK        -0.2568 
     17 C17        21.7537  -29.0126  -45.5739 C.3       10 UNK        -0.0983 
     18 CA         21.4975  -27.9630  -44.4638 C.3       3 UNK         0.0876 
     19 N          20.0885  -27.9094  -44.0678 N.am      3 UNK        -0.4424 
     20 C          19.5109  -26.8773  -43.4454 C.2       2 UNK         0.4918 
     21 O          20.0478  -25.7784  -43.2911 O.2       2 UNK        -0.4875 
     22 CA         18.1170  -27.1196  -42.8707 C.3       2 UNK         0.0481 
     23 CB         18.0803  -26.8155  -41.3599 C.3       2 UNK        -0.1831 
     24 N          17.1662  -26.2973  -43.6056 N.am      2 UNK        -0.4498 
     25 C          15.8418  -26.4801  -43.6058 C.2       1 UNK         0.5027 
     26 O          15.2638  -27.3196  -42.9086 O.2       1 UNK        -0.4969 
     27 C          22.3544  -28.2141  -43.2041 C.2       3 UNK         0.5005 
     28 O          22.7815  -29.3414  -42.9560 O.2       3 UNK        -0.5279 
     29 N          22.5376  -27.1590  -42.3996 N.am      4 UNK        -0.4463 
     30 CA         23.1912  -27.1848  -41.0876 C.3       4 UNK         0.0283 
     31 CB         22.7456  -25.9467  -40.2916 C.3       4 UNK        -0.1875 
     32 C          24.7272  -27.2840  -41.1333 C.2       4 UNK         0.4949 
     33 O          25.3488  -27.3422  -40.0712 O.2       4 UNK        -0.5039 
     34 N          25.3214  -27.3012  -42.3355 N.am      5 UNK        -0.4663 
     35 CA         26.7552  -27.4865  -42.5762 C.3       5 UNK         0.0242 
     36 CB         27.0233  -27.4517  -44.0897 C.3       5 UNK        -0.1982 
     37 C          27.2556  -28.8038  -41.9596 C.2       5 UNK         0.5017 
     38 O          26.7546  -29.8685  -42.3248 O.2       5 UNK        -0.5012 
     39 N          28.1751  -28.6938  -40.9893 N.am      6 UNK        -0.4439 
     40 CA         28.7059  -29.7784  -40.1493 C.3       6 UNK         0.0297 
     41 CB         29.5618  -30.7488  -40.9917 C.3       6 UNK        -0.2006 
     42 C          27.6299  -30.5143  -39.3168 C.2       6 UNK         0.4892 
     43 O          27.8488  -31.6639  -38.9315 O.2       6 UNK        -0.5089 
     44 N          26.4925  -29.8450  -39.0605 N.am      7 UNK        -0.4243 
     45 CA         25.2884  -30.3504  -38.3895 C.3       7 UNK         0.0196 
     46 CB         25.5663  -30.6294  -36.8968 C.3       7 UNK        -0.2007 
     47 C          24.6410  -31.5475  -39.1171 C.2       7 UNK         0.5020 
     48 O          24.0743  -32.4253  -38.4643 O.2       7 UNK        -0.5147 
     49 N          24.7341  -31.5712  -40.4558 N.am      8 UNK        -0.4734 
     50 CA         24.2222  -32.6522  -41.3058 C.3       8 UNK         0.0238 
     51 CB         24.7723  -32.4773  -42.7303 C.3       8 UNK        -0.1912 
     52 C          22.6873  -32.7691  -41.3360 C.2       8 UNK         0.5038 
     53 O          22.1795  -33.8552  -41.6192 O.2       8 UNK        -0.5046 
     54 N          21.9812  -31.6694  -41.0555 N.am      9 UNK        -0.4200 
     55 CA         20.5190  -31.5733  -41.0478 C.3       9 UNK         0.0839 
     56 C          20.0415  -30.4434  -40.0998 C.2       9 UNK         0.5513 
     57 N          18.7512  -30.3938  -39.8022 N.am      9 UNK        -0.7519 
     58 O          20.8186  -29.6063  -39.6450 O.2       9 UNK        -0.4960 
     59 C59        19.9551  -31.4236  -42.4885 C.3       10 UNK        -0.0876 
     60 S60        18.4304  -32.3872  -42.7771 S.3       10 UNK        -0.2414 
     61 C61        17.2077  -31.0991  -43.2143 C.3       10 UNK         0.0169 
     62 H62        11.9179  -24.6569  -41.5259 H         1 UNK         0.0903 
     63 H63        11.6340  -23.3464  -42.6750 H         1 UNK         0.0903 
     64 H64        11.3308  -25.0187  -43.1502 H         1 UNK         0.0903 
     65 H65        12.9577  -25.8793  -44.4390 H         1 UNK         0.3096 
     66 H66        15.5609  -24.6425  -44.6651 H         1 UNK         0.1121 
     67 H67        14.5564  -25.4909  -46.6961 H         1 UNK         0.0849 
     68 H68        15.9762  -26.4339  -46.3660 H         1 UNK         0.0849 
     69 H69        14.3488  -29.6681  -47.4586 H         1 UNK         0.0865 
     70 H70        15.2087  -28.2808  -48.0696 H         1 UNK         0.0865 
     71 H71        15.2509  -29.9074  -44.6408 H         1 UNK         0.1346 
     72 H72        19.3787  -31.0384  -44.9974 H         1 UNK         0.1412 
     73 H73        17.4709  -28.9457  -48.1816 H         1 UNK         0.1426 
     74 H74        19.6265  -30.0585  -48.5119 H         1 UNK         0.0716 
     75 H75        20.4087  -30.9392  -47.2305 H         1 UNK         0.0716 
     76 H76        22.8220  -29.0789  -45.7889 H         1 UNK         0.0695 
     77 H77        21.4541  -30.0091  -45.2476 H         1 UNK         0.0695 
     78 H78        21.7870  -26.9884  -44.8646 H         1 UNK         0.0983 
     79 H79        19.5516  -28.7491  -44.2240 H         1 UNK         0.3095 
     80 H80        17.8574  -28.1670  -43.0203 H         1 UNK         0.0454 
     81 H81        18.8475  -27.3818  -40.8298 H         1 UNK         0.0851 
     82 H82        17.1210  -27.0856  -40.9189 H         1 UNK         0.0851 
     83 H83        18.2560  -25.7584  -41.1570 H         1 UNK         0.0851 
     84 H84        17.5790  -25.5888  -44.1985 H         1 UNK         0.2976 
     85 H85        22.0918  -26.2873  -42.6621 H         1 UNK         0.3116 
     86 H86        22.8403  -28.0699  -40.5539 H         1 UNK         0.0646 
     87 H87        23.0693  -25.0214  -40.7695 H         1 UNK         0.0847 
     88 H88        21.6607  -25.9116  -40.1885 H         1 UNK         0.0847 
     89 H89        23.1621  -25.9561  -39.2834 H         1 UNK         0.0847 
     90 H90        24.7261  -27.2791  -43.1493 H         1 UNK         0.3040 
     91 H91        27.2814  -26.6487  -42.1138 H         1 UNK         0.1015 
     92 H92        28.0862  -27.5785  -44.3000 H         1 UNK         0.0786 
     93 H93        26.7189  -26.5003  -44.5264 H         1 UNK         0.0786 
     94 H94        26.4909  -28.2477  -44.6125 H         1 UNK         0.0786 
     95 H95        28.4943  -27.7660  -40.7439 H         1 UNK         0.3172 
     96 H96        29.3674  -29.3018  -39.4246 H         1 UNK         0.0595 
     97 H97        28.9528  -31.3217  -41.6920 H         1 UNK         0.0839 
     98 H98        30.0838  -31.4652  -40.3562 H         1 UNK         0.0839 
     99 H99        30.3204  -30.2158  -41.5646 H         1 UNK         0.0839 
    100 H100       26.3998  -28.9044  -39.4342 H         1 UNK         0.2998 
    101 H101       24.5558  -29.5433  -38.4393 H         1 UNK         0.0822 
    102 H102       24.6440  -30.8651  -36.3643 H         1 UNK         0.0787 
    103 H103       26.0081  -29.7618  -36.4068 H         1 UNK         0.0787 
    104 H104       26.2435  -31.4732  -36.7613 H         1 UNK         0.0787 
    105 H105       25.2475  -30.8347  -40.9265 H         1 UNK         0.3055 
    106 H106       24.6039  -33.5950  -40.9077 H         1 UNK         0.1106 
    107 H107       25.8621  -32.5077  -42.7410 H         1 UNK         0.0828 
    108 H108       24.4202  -33.2725  -43.3889 H         1 UNK         0.0828 
    109 H109       24.4605  -31.5279  -43.1679 H         1 UNK         0.0828 
    110 H110       22.4677  -30.8098  -40.8384 H         1 UNK         0.2931 
    111 H111       20.1532  -32.5037  -40.6083 H         1 UNK         0.0412 
    112 H112       18.1107  -31.0820  -40.1663 H         1 UNK         0.3472 
    113 H113       18.4173  -29.6724  -39.1830 H         1 UNK         0.3472 
    114 H114       19.7996  -30.3742  -42.7378 H         1 UNK         0.0970 
    115 H115       20.6829  -31.7849  -43.2169 H         1 UNK         0.0970 
    116 H116       16.2199  -31.5466  -43.0943 H         1 UNK         0.0612 
    117 H117       17.2613  -30.2934  -42.4825 H         1 UNK         0.0612 
@<TRIPOS>BOND
     1    1    2 1    
     2    1   62 1    
     3    1   63 1    
     4    1   64 1    
     5    2    3 2    
     6    2    4 am   BACKBONE|DICT|INTERRES
     7    4    5 1    
     8    4   65 1    
     9    5    6 1    
    10    5   25 1    
    11    5   66 1    
    12    6    7 1    
    13    6   67 1    
    14    6   68 1    
    15    7    8 1    
    16    8    9 1    
    17    8   69 1    
    18    8   70 1    
    19    9   10 ar   
    20    9   14 ar   
    21   10   11 ar   
    22   10   71 1    
    23   11   12 ar   
    24   11   61 1    
    25   12   13 ar   
    26   12   72 1    
    27   13   14 ar   
    28   13   15 1    
    29   14   73 1    
    30   15   16 1    
    31   15   74 1    
    32   15   75 1    
    33   16   17 1    
    34   17   18 1    
    35   17   76 1    
    36   17   77 1    
    37   18   19 1    
    38   18   27 1    
    39   18   78 1    
    40   19   20 am   BACKBONE|DICT|INTERRES
    41   19   79 1    
    42   20   21 2    
    43   20   22 1    
    44   22   23 1    
    45   22   24 1    
    46   22   80 1    
    47   23   81 1    
    48   23   82 1    
    49   23   83 1    
    50   24   25 am   BACKBONE|DICT|INTERRES
    51   24   84 1    
    52   25   26 2    
    53   27   28 2    
    54   27   29 am   BACKBONE|DICT|INTERRES
    55   29   30 1    
    56   29   85 1    
    57   30   31 1    
    58   30   32 1    
    59   30   86 1    
    60   31   87 1    
    61   31   88 1    
    62   31   89 1    
    63   32   33 2    
    64   32   34 am   BACKBONE|DICT|INTERRES
    65   34   35 1    
    66   34   90 1    
    67   35   36 1    
    68   35   37 1    
    69   35   91 1    
    70   36   92 1    
    71   36   93 1    
    72   36   94 1    
    73   37   38 2    
    74   37   39 am   BACKBONE|DICT|INTERRES
    75   39   40 1    
    76   39   95 1    
    77   40   41 1    
    78   40   42 1    
    79   40   96 1    
    80   41   97 1    
    81   41   98 1    
    82   41   99 1    
    83   42   43 2    
    84   42   44 am   BACKBONE|DICT|INTERRES
    85   44   45 1    
    86   44  100 1    
    87   45   46 1    
    88   45   47 1    
    89   45  101 1    
    90   46  102 1    
    91   46  103 1    
    92   46  104 1    
    93   47   48 2    
    94   47   49 am   BACKBONE|DICT|INTERRES
    95   49   50 1    
    96   49  105 1    
    97   50   51 1    
    98   50   52 1    
    99   50  106 1    
   100   51  107 1    
   101   51  108 1    
   102   51  109 1    
   103   52   53 2    
   104   52   54 am   BACKBONE|DICT|INTERRES
   105   54   55 1    
   106   54  110 1    
   107   55   56 1    
   108   55   59 1    
   109   55  111 1    
   110   56   57 am   BACKBONE|DICT|INTERRES
   111   56   58 2    
   112   57  112 1    
   113   57  113 1    
   114   59   60 1    
   115   59  114 1    
   116   59  115 1    
   117   60   61 1    
   118   61  116 1    
   119   61  117 1    
@<TRIPOS>SUBSTRUCTURE
     1 UNK         1 GROUP             0       ****    0 ROOT    
