@<TRIPOS>MOLECULE
3R8
117   119    1
SMALL
USER_CHARGES


@<TRIPOS>ATOM
      1 CA         15.1339  -25.7373  -42.4422 C.3       0 UNK        -0.2013 
      2 C          16.2651  -25.0478  -43.1903 C.2       0 UNK         0.4866 
      3 O          16.1659  -23.8566  -43.4852 O.2       0 UNK        -0.5176 
      4 N          17.3377  -25.7857  -43.4956 N.am      1 UNK        -0.4884 
      5 CA         18.5458  -25.2844  -44.1432 C.3       1 UNK         0.0853 
      6 C6         18.3831  -24.9772  -45.6704 C.3       10 UNK        -0.0849 
      7 S7         18.5899  -26.2848  -46.9373 S.3       10 UNK        -0.2776 
      8 C8         17.0463  -27.2421  -46.8369 C.3       10 UNK         0.0316 
      9 C9         17.2381  -28.4951  -45.9958 C.ar      10 UNK        -0.0863 
     10 C10        18.0661  -29.5284  -46.4494 C.ar      10 UNK        -0.1009 
     11 C11        18.2575  -30.6793  -45.6777 C.ar      10 UNK        -0.0712 
     12 C12        17.6054  -30.7896  -44.4478 C.ar      10 UNK        -0.0894 
     13 C13        16.8092  -29.7490  -43.9665 C.ar      10 UNK        -0.0745 
     14 C14        16.5981  -28.6217  -44.7618 C.ar      10 UNK        -0.0972 
     15 C15        16.2088  -29.8227  -42.5733 C.3       10 UNK         0.0209 
     16 S16        17.3164  -29.0428  -41.3521 S.3       10 UNK        -0.2568 
     17 C17        18.6037  -30.3252  -41.1313 C.3       10 UNK        -0.0983 
     18 CA         20.0606  -29.8260  -41.3158 C.3       3 UNK         0.0876 
     19 N          20.2777  -29.1285  -42.5900 N.am      3 UNK        -0.4424 
     20 C          21.4703  -28.7158  -43.0455 C.2       2 UNK         0.4918 
     21 O          22.5377  -28.9366  -42.4694 O.2       2 UNK        -0.4875 
     22 CA         21.4858  -27.8286  -44.3050 C.3       2 UNK         0.0481 
     23 CB         21.7589  -28.6699  -45.5592 C.3       2 UNK        -0.1831 
     24 N          20.2930  -27.0007  -44.5256 N.am      2 UNK        -0.4498 
     25 C          19.7203  -26.1546  -43.6615 C.2       1 UNK         0.5027 
     26 O          20.0721  -26.0560  -42.4848 O.2       1 UNK        -0.4969 
     27 C          20.5478  -29.0454  -40.0722 C.2       3 UNK         0.5005 
     28 O          20.8449  -29.6782  -39.0584 O.2       3 UNK        -0.5279 
     29 N          20.6361  -27.7117  -40.1698 N.am      4 UNK        -0.4463 
     30 CA         21.2163  -26.8325  -39.1558 C.3       4 UNK         0.0283 
     31 CB         20.1406  -25.8496  -38.6648 C.3       4 UNK        -0.1875 
     32 C          22.4294  -26.0661  -39.7055 C.2       4 UNK         0.4949 
     33 O          23.4108  -25.8981  -38.9821 O.2       4 UNK        -0.5039 
     34 N          22.3389  -25.5890  -40.9552 N.am      5 UNK        -0.4663 
     35 CA         23.3151  -24.6873  -41.5701 C.3       5 UNK         0.0242 
     36 CB         22.6661  -23.9764  -42.7692 C.3       5 UNK        -0.1982 
     37 C          24.6224  -25.3674  -42.0020 C.2       5 UNK         0.5017 
     38 O          25.6673  -24.7176  -41.9468 O.2       5 UNK        -0.5012 
     39 N          24.5509  -26.6325  -42.4410 N.am      6 UNK        -0.4439 
     40 CA         25.7169  -27.4038  -42.8748 C.3       6 UNK         0.0297 
     41 CB         25.3728  -28.2876  -44.0885 C.3       6 UNK        -0.2006 
     42 C          26.2584  -28.2182  -41.6962 C.2       6 UNK         0.4892 
     43 O          27.3750  -27.9544  -41.2494 O.2       6 UNK        -0.5089 
     44 N          25.4465  -29.1598  -41.1979 N.am      7 UNK        -0.4243 
     45 CA         25.7383  -30.0007  -40.0353 C.3       7 UNK         0.0196 
     46 CB         26.9812  -30.8936  -40.2549 C.3       7 UNK        -0.2007 
     47 C          24.5226  -30.8684  -39.7059 C.2       7 UNK         0.5020 
     48 O          24.0376  -30.8338  -38.5760 O.2       7 UNK        -0.5147 
     49 N          24.0702  -31.6396  -40.6997 N.am      8 UNK        -0.4734 
     50 CA         22.9804  -32.6073  -40.6233 C.3       8 UNK         0.0238 
     51 CB         23.3897  -33.8121  -39.7495 C.3       8 UNK        -0.1912 
     52 C          22.6517  -33.0711  -42.0487 C.2       8 UNK         0.5038 
     53 O          23.4713  -32.8837  -42.9529 O.2       8 UNK        -0.5046 
     54 N          21.4851  -33.7022  -42.2035 N.am      9 UNK        -0.4200 
     55 CA         21.0462  -34.4065  -43.4151 C.3       9 UNK         0.0839 
     56 C          20.5789  -35.8341  -43.0335 C.2       9 UNK         0.5513 
     57 N          20.7207  -36.7942  -43.9362 N.am      9 UNK        -0.7519 
     58 O          20.0624  -36.0727  -41.9429 O.2       9 UNK        -0.4960 
     59 C59        19.9182  -33.6420  -44.1554 C.3       10 UNK        -0.0876 
     60 S60        20.5299  -32.1445  -44.9997 S.3       10 UNK        -0.2414 
     61 C61        19.1716  -31.7950  -46.1694 C.3       10 UNK         0.0169 
     62 H62        14.8502  -25.1511  -41.5686 H         1 UNK         0.0903 
     63 H63        14.2605  -25.8324  -43.0868 H         1 UNK         0.0903 
     64 H64        15.4162  -26.7319  -42.0994 H         1 UNK         0.0903 
     65 H65        17.3948  -26.7434  -43.1763 H         1 UNK         0.3096 
     66 H66        18.7488  -24.3164  -43.6774 H         1 UNK         0.1121 
     67 H67        17.4243  -24.4886  -45.8490 H         1 UNK         0.0849 
     68 H68        19.1206  -24.2155  -45.9290 H         1 UNK         0.0849 
     69 H69        16.2411  -26.6174  -46.4468 H         1 UNK         0.0865 
     70 H70        16.7460  -27.5345  -47.8441 H         1 UNK         0.0865 
     71 H71        18.5672  -29.4286  -47.4027 H         1 UNK         0.1346 
     72 H72        17.7406  -31.6779  -43.8521 H         1 UNK         0.1412 
     73 H73        15.9445  -27.8365  -44.4124 H         1 UNK         0.1426 
     74 H74        16.0087  -30.8570  -42.2890 H         1 UNK         0.0716 
     75 H75        15.2453  -29.3111  -42.5568 H         1 UNK         0.0716 
     76 H76        18.4248  -31.1480  -41.8199 H         1 UNK         0.0695 
     77 H77        18.4707  -30.7672  -40.1418 H         1 UNK         0.0695 
     78 H78        20.6914  -30.7136  -41.3644 H         1 UNK         0.0983 
     79 H79        19.4496  -28.9075  -43.1236 H         1 UNK         0.3095 
     80 H80        22.3210  -27.1370  -44.1879 H         1 UNK         0.0454 
     81 H81        20.9050  -29.2951  -45.8152 H         1 UNK         0.0851 
     82 H82        21.9789  -28.0383  -46.4198 H         1 UNK         0.0851 
     83 H83        22.6147  -29.3311  -45.4160 H         1 UNK         0.0851 
     84 H84        19.8974  -27.0249  -45.4595 H         1 UNK         0.2976 
     85 H85        20.3507  -27.2727  -41.0404 H         1 UNK         0.3116 
     86 H86        21.5632  -27.4121  -38.2977 H         1 UNK         0.0646 
     87 H87        19.7461  -25.2403  -39.4792 H         1 UNK         0.0847 
     88 H88        20.5449  -25.1705  -37.9130 H         1 UNK         0.0847 
     89 H89        19.3036  -26.3778  -38.2080 H         1 UNK         0.0847 
     90 H90        21.4833  -25.7479  -41.4835 H         1 UNK         0.3040 
     91 H91        23.5766  -23.9254  -40.8318 H         1 UNK         0.1015 
     92 H92        22.4081  -24.6762  -43.5643 H         1 UNK         0.0786 
     93 H93        23.3447  -23.2369  -43.1967 H         1 UNK         0.0786 
     94 H94        21.7577  -23.4497  -42.4761 H         1 UNK         0.0786 
     95 H95        23.6681  -27.1247  -42.3853 H         1 UNK         0.3172 
     96 H96        26.5076  -26.7238  -43.2000 H         1 UNK         0.0595 
     97 H97        24.6573  -29.0741  -43.8544 H         1 UNK         0.0839 
     98 H98        26.2692  -28.7792  -44.4683 H         1 UNK         0.0839 
     99 H99        24.9613  -27.6946  -44.9052 H         1 UNK         0.0839 
    100 H100       24.5186  -29.2636  -41.5968 H         1 UNK         0.2998 
    101 H101       25.9217  -29.3459  -39.1807 H         1 UNK         0.0822 
    102 H102       27.9005  -30.3098  -40.2859 H         1 UNK         0.0787 
    103 H103       27.0950  -31.6121  -39.4418 H         1 UNK         0.0787 
    104 H104       26.9152  -31.4604  -41.1841 H         1 UNK         0.0787 
    105 H105       24.5125  -31.6045  -41.6113 H         1 UNK         0.3055 
    106 H106       22.1055  -32.1206  -40.1888 H         1 UNK         0.1106 
    107 H107       22.5985  -34.5618  -39.7112 H         1 UNK         0.0828 
    108 H108       24.2843  -34.3021  -40.1361 H         1 UNK         0.0828 
    109 H109       23.5915  -33.5145  -38.7207 H         1 UNK         0.0828 
    110 H110       20.9067  -33.8765  -41.3931 H         1 UNK         0.2931 
    111 H111       21.8927  -34.5231  -44.0955 H         1 UNK         0.0412 
    112 H112       21.1364  -36.6078  -44.8362 H         1 UNK         0.3472 
    113 H113       20.4120  -37.7277  -43.7118 H         1 UNK         0.3472 
    114 H114       19.1226  -33.3757  -43.4596 H         1 UNK         0.0970 
    115 H115       19.4619  -34.2849  -44.9107 H         1 UNK         0.0970 
    116 H116       19.6178  -31.5228  -47.1270 H         1 UNK         0.0612 
    117 H117       18.5800  -32.6919  -46.3552 H         1 UNK         0.0612 
@<TRIPOS>BOND
     1    1    2 1    
     2    1   62 1    
     3    1   63 1    
     4    1   64 1    
     5    2    3 2    
     6    2    4 am   BACKBONE|DICT|INTERRES
     7    4    5 1    
     8    4   65 1    
     9    5    6 1    
    10    5   25 1    
    11    5   66 1    
    12    6    7 1    
    13    6   67 1    
    14    6   68 1    
    15    7    8 1    
    16    8    9 1    
    17    8   69 1    
    18    8   70 1    
    19    9   10 ar   
    20    9   14 ar   
    21   10   11 ar   
    22   10   71 1    
    23   11   12 ar   
    24   11   61 1    
    25   12   13 ar   
    26   12   72 1    
    27   13   14 ar   
    28   13   15 1    
    29   14   73 1    
    30   15   16 1    
    31   15   74 1    
    32   15   75 1    
    33   16   17 1    
    34   17   18 1    
    35   17   76 1    
    36   17   77 1    
    37   18   19 1    
    38   18   27 1    
    39   18   78 1    
    40   19   20 am   BACKBONE|DICT|INTERRES
    41   19   79 1    
    42   20   21 2    
    43   20   22 1    
    44   22   23 1    
    45   22   24 1    
    46   22   80 1    
    47   23   81 1    
    48   23   82 1    
    49   23   83 1    
    50   24   25 am   BACKBONE|DICT|INTERRES
    51   24   84 1    
    52   25   26 2    
    53   27   28 2    
    54   27   29 am   BACKBONE|DICT|INTERRES
    55   29   30 1    
    56   29   85 1    
    57   30   31 1    
    58   30   32 1    
    59   30   86 1    
    60   31   87 1    
    61   31   88 1    
    62   31   89 1    
    63   32   33 2    
    64   32   34 am   BACKBONE|DICT|INTERRES
    65   34   35 1    
    66   34   90 1    
    67   35   36 1    
    68   35   37 1    
    69   35   91 1    
    70   36   92 1    
    71   36   93 1    
    72   36   94 1    
    73   37   38 2    
    74   37   39 am   BACKBONE|DICT|INTERRES
    75   39   40 1    
    76   39   95 1    
    77   40   41 1    
    78   40   42 1    
    79   40   96 1    
    80   41   97 1    
    81   41   98 1    
    82   41   99 1    
    83   42   43 2    
    84   42   44 am   BACKBONE|DICT|INTERRES
    85   44   45 1    
    86   44  100 1    
    87   45   46 1    
    88   45   47 1    
    89   45  101 1    
    90   46  102 1    
    91   46  103 1    
    92   46  104 1    
    93   47   48 2    
    94   47   49 am   BACKBONE|DICT|INTERRES
    95   49   50 1    
    96   49  105 1    
    97   50   51 1    
    98   50   52 1    
    99   50  106 1    
   100   51  107 1    
   101   51  108 1    
   102   51  109 1    
   103   52   53 2    
   104   52   54 am   BACKBONE|DICT|INTERRES
   105   54   55 1    
   106   54  110 1    
   107   55   56 1    
   108   55   59 1    
   109   55  111 1    
   110   56   57 am   BACKBONE|DICT|INTERRES
   111   56   58 2    
   112   57  112 1    
   113   57  113 1    
   114   59   60 1    
   115   59  114 1    
   116   59  115 1    
   117   60   61 1    
   118   61  116 1    
   119   61  117 1    
@<TRIPOS>SUBSTRUCTURE
     1 UNK         1 GROUP             0       ****    0 ROOT    
