@<TRIPOS>MOLECULE
3R8
117   119    1
SMALL
USER_CHARGES


@<TRIPOS>ATOM
      1 CA         16.8131  -22.6330  -44.7103 C.3       0 UNK        -0.2013 
      2 C          17.4184  -23.9209  -45.2487 C.2       0 UNK         0.4866 
      3 O          18.2434  -23.8744  -46.1622 O.2       0 UNK        -0.5176 
      4 N          17.0088  -25.0697  -44.6967 N.am      1 UNK        -0.4884 
      5 CA         17.5357  -26.3941  -45.0404 C.3       1 UNK         0.0853 
      6 C6         16.6171  -27.5240  -44.5220 C.3       10 UNK        -0.0849 
      7 S7         15.1473  -27.7793  -45.5772 S.3       10 UNK        -0.2776 
      8 C8         14.2258  -29.0991  -44.7029 C.3       10 UNK         0.0316 
      9 C9         15.1458  -30.0867  -43.9980 C.ar      10 UNK        -0.0863 
     10 C10        15.7881  -31.1048  -44.7095 C.ar      10 UNK        -0.1009 
     11 C11        16.7247  -31.9292  -44.0749 C.ar      10 UNK        -0.0712 
     12 C12        17.0046  -31.7395  -42.7181 C.ar      10 UNK        -0.0894 
     13 C13        16.3679  -30.7217  -42.0024 C.ar      10 UNK        -0.0745 
     14 C14        15.4224  -29.9176  -42.6398 C.ar      10 UNK        -0.0972 
     15 C15        16.7318  -30.4358  -40.5566 C.3       10 UNK         0.0209 
     16 S16        17.9182  -29.0574  -40.4613 S.3       10 UNK        -0.2568 
     17 C17        19.4968  -29.9445  -40.6805 C.3       10 UNK        -0.0983 
     18 CA         20.6469  -29.1047  -41.2839 C.3       3 UNK         0.0876 
     19 N          20.4429  -28.7541  -42.6941 N.am      3 UNK        -0.4424 
     20 C          21.4444  -28.3847  -43.5072 C.2       2 UNK         0.4918 
     21 O          22.6267  -28.4348  -43.1631 O.2       2 UNK        -0.4875 
     22 CA         21.1031  -27.8512  -44.9129 C.3       2 UNK         0.0481 
     23 CB         21.5649  -28.8328  -46.0018 C.3       2 UNK        -0.1831 
     24 N          19.6956  -27.5196  -45.1533 N.am      2 UNK        -0.4498 
     25 C          18.9710  -26.5940  -44.5094 C.2       1 UNK         0.5027 
     26 O          19.3725  -25.9721  -43.5222 O.2       1 UNK        -0.4969 
     27 C          21.0348  -27.8891  -40.4119 C.2       3 UNK         0.5005 
     28 O          21.6454  -28.0850  -39.3610 O.2       3 UNK        -0.5279 
     29 N          20.7564  -26.6605  -40.8834 N.am      4 UNK        -0.4463 
     30 CA         21.1669  -25.3992  -40.2529 C.3       4 UNK         0.0283 
     31 CB         20.5372  -24.2219  -41.0139 C.3       4 UNK        -0.1875 
     32 C          22.6944  -25.2149  -40.1499 C.2       4 UNK         0.4949 
     33 O          23.1498  -24.4440  -39.3056 O.2       4 UNK        -0.5039 
     34 N          23.4595  -25.9431  -40.9775 N.am      5 UNK        -0.4663 
     35 CA         24.9207  -26.0358  -40.9042 C.3       5 UNK         0.0242 
     36 CB         25.4443  -26.6046  -42.2344 C.3       5 UNK        -0.1982 
     37 C          25.4261  -26.8906  -39.7225 C.2       5 UNK         0.5017 
     38 O          26.6252  -26.8620  -39.4451 O.2       5 UNK        -0.5012 
     39 N          24.5204  -27.6401  -39.0727 N.am      6 UNK        -0.4439 
     40 CA         24.7439  -28.6144  -38.0003 C.3       6 UNK         0.0297 
     41 CB         25.1044  -27.8821  -36.6902 C.3       6 UNK        -0.2006 
     42 C          25.7649  -29.7149  -38.3734 C.2       6 UNK         0.4892 
     43 O          26.8066  -29.8116  -37.7245 O.2       6 UNK        -0.5089 
     44 N          25.5162  -30.5462  -39.3953 N.am      7 UNK        -0.4243 
     45 CA         24.3709  -30.6115  -40.3016 C.3       7 UNK         0.0196 
     46 CB         23.2618  -31.4898  -39.6934 C.3       7 UNK        -0.2007 
     47 C          24.8849  -31.2037  -41.6164 C.2       7 UNK         0.5020 
     48 O          25.6346  -32.1820  -41.5744 O.2       7 UNK        -0.5147 
     49 N          24.4924  -30.6081  -42.7485 N.am      8 UNK        -0.4734 
     50 CA         24.9449  -31.0113  -44.0840 C.3       8 UNK         0.0238 
     51 CB         25.4313  -29.7602  -44.8384 C.3       8 UNK        -0.1912 
     52 C          23.8700  -31.7683  -44.8848 C.2       8 UNK         0.5038 
     53 O          24.1843  -32.2636  -45.9681 O.2       8 UNK        -0.5046 
     54 N          22.6356  -31.8485  -44.3651 N.am      9 UNK        -0.4200 
     55 CA         21.5372  -32.6211  -44.9678 C.3       9 UNK         0.0839 
     56 C          21.7253  -34.1535  -44.7888 C.2       9 UNK         0.5513 
     57 N          21.1900  -34.9555  -45.7042 N.am      9 UNK        -0.7519 
     58 O          22.3175  -34.6195  -43.8129 O.2       9 UNK        -0.4960 
     59 C59        20.1466  -32.1436  -44.4622 C.3       10 UNK        -0.0876 
     60 S60        18.8757  -32.2867  -45.7674 S.3       10 UNK        -0.2414 
     61 C61        17.4610  -32.9969  -44.8687 C.3       10 UNK         0.0169 
     62 H62        17.5959  -21.9922  -44.3054 H         1 UNK         0.0903 
     63 H63        16.3088  -22.0918  -45.5104 H         1 UNK         0.0903 
     64 H64        16.0874  -22.8224  -43.9194 H         1 UNK         0.0903 
     65 H65        16.3389  -25.0470  -43.9415 H         1 UNK         0.3096 
     66 H66        17.5884  -26.4573  -46.1303 H         1 UNK         0.1121 
     67 H67        16.3065  -27.3319  -43.4932 H         1 UNK         0.0849 
     68 H68        17.1573  -28.4726  -44.5049 H         1 UNK         0.0849 
     69 H69        13.5475  -28.6371  -43.9837 H         1 UNK         0.0865 
     70 H70        13.5927  -29.6272  -45.4174 H         1 UNK         0.0865 
     71 H71        15.5935  -31.2266  -45.7665 H         1 UNK         0.1346 
     72 H72        17.7381  -32.3642  -42.2280 H         1 UNK         0.1412 
     73 H73        14.9489  -29.1153  -42.0898 H         1 UNK         0.1426 
     74 H74        17.1417  -31.3225  -40.0703 H         1 UNK         0.0716 
     75 H75        15.8332  -30.1686  -39.9984 H         1 UNK         0.0716 
     76 H76        19.3339  -30.8215  -41.3069 H         1 UNK         0.0695 
     77 H77        19.7955  -30.3349  -39.7057 H         1 UNK         0.0695 
     78 H78        21.5221  -29.7539  -41.2601 H         1 UNK         0.0983 
     79 H79        19.4879  -28.6810  -43.0123 H         1 UNK         0.3095 
     80 H80        21.6738  -26.9283  -45.0328 H         1 UNK         0.0454 
     81 H81        22.6071  -29.1176  -45.8679 H         1 UNK         0.0851 
     82 H82        21.4865  -28.3867  -46.9933 H         1 UNK         0.0851 
     83 H83        20.9749  -29.7486  -46.0039 H         1 UNK         0.0851 
     84 H84        19.2642  -28.0014  -45.9297 H         1 UNK         0.2976 
     85 H85        20.2521  -26.5759  -41.7611 H         1 UNK         0.3116 
     86 H86        20.7715  -25.3991  -39.2351 H         1 UNK         0.0646 
     87 H87        20.8958  -24.1692  -42.0427 H         1 UNK         0.0847 
     88 H88        20.7791  -23.2719  -40.5353 H         1 UNK         0.0847 
     89 H89        19.4503  -24.3018  -41.0429 H         1 UNK         0.0847 
     90 H90        23.0035  -26.5395  -41.6551 H         1 UNK         0.3040 
     91 H91        25.3254  -25.0295  -40.7747 H         1 UNK         0.1015 
     92 H92        25.1157  -26.0041  -43.0829 H         1 UNK         0.0786 
     93 H93        25.1068  -27.6284  -42.3973 H         1 UNK         0.0786 
     94 H94        26.5350  -26.6174  -42.2515 H         1 UNK         0.0786 
     95 H95        23.5511  -27.5728  -39.3692 H         1 UNK         0.3172 
     96 H96        23.7903  -29.1156  -37.8339 H         1 UNK         0.0595 
     97 H97        26.0505  -27.3456  -36.7712 H         1 UNK         0.0839 
     98 H98        25.1990  -28.5860  -35.8625 H         1 UNK         0.0839 
     99 H99        24.3342  -27.1614  -36.4153 H         1 UNK         0.0839 
    100 H100       26.2279  -31.2263  -39.6321 H         1 UNK         0.2998 
    101 H101       23.9729  -29.6217  -40.5153 H         1 UNK         0.0822 
    102 H102       22.7867  -31.0046  -38.8412 H         1 UNK         0.0787 
    103 H103       22.4789  -31.7056  -40.4206 H         1 UNK         0.0787 
    104 H104       23.6535  -32.4499  -39.3548 H         1 UNK         0.0787 
    105 H105       23.8804  -29.7957  -42.7186 H         1 UNK         0.3055 
    106 H106       25.7945  -31.6940  -44.0076 H         1 UNK         0.1106 
    107 H107       25.7214  -30.0005  -45.8622 H         1 UNK         0.0828 
    108 H108       24.6677  -28.9852  -44.8861 H         1 UNK         0.0828 
    109 H109       26.3055  -29.3277  -44.3518 H         1 UNK         0.0828 
    110 H110       22.4813  -31.4770  -43.4417 H         1 UNK         0.2931 
    111 H111       21.5898  -32.4156  -46.0396 H         1 UNK         0.0412 
    112 H112       20.6737  -34.5781  -46.4885 H         1 UNK         0.3472 
    113 H113       21.2881  -35.9536  -45.6022 H         1 UNK         0.3472 
    114 H114       19.8440  -32.6810  -43.5616 H         1 UNK         0.0970 
    115 H115       20.1772  -31.0934  -44.1772 H         1 UNK         0.0970 
    116 H116       17.7974  -33.8078  -44.2206 H         1 UNK         0.0612 
    117 H117       16.7786  -33.4476  -45.5908 H         1 UNK         0.0612 
@<TRIPOS>BOND
     1    1    2 1    
     2    1   62 1    
     3    1   63 1    
     4    1   64 1    
     5    2    3 2    
     6    2    4 am   BACKBONE|DICT|INTERRES
     7    4    5 1    
     8    4   65 1    
     9    5    6 1    
    10    5   25 1    
    11    5   66 1    
    12    6    7 1    
    13    6   67 1    
    14    6   68 1    
    15    7    8 1    
    16    8    9 1    
    17    8   69 1    
    18    8   70 1    
    19    9   10 ar   
    20    9   14 ar   
    21   10   11 ar   
    22   10   71 1    
    23   11   12 ar   
    24   11   61 1    
    25   12   13 ar   
    26   12   72 1    
    27   13   14 ar   
    28   13   15 1    
    29   14   73 1    
    30   15   16 1    
    31   15   74 1    
    32   15   75 1    
    33   16   17 1    
    34   17   18 1    
    35   17   76 1    
    36   17   77 1    
    37   18   19 1    
    38   18   27 1    
    39   18   78 1    
    40   19   20 am   BACKBONE|DICT|INTERRES
    41   19   79 1    
    42   20   21 2    
    43   20   22 1    
    44   22   23 1    
    45   22   24 1    
    46   22   80 1    
    47   23   81 1    
    48   23   82 1    
    49   23   83 1    
    50   24   25 am   BACKBONE|DICT|INTERRES
    51   24   84 1    
    52   25   26 2    
    53   27   28 2    
    54   27   29 am   BACKBONE|DICT|INTERRES
    55   29   30 1    
    56   29   85 1    
    57   30   31 1    
    58   30   32 1    
    59   30   86 1    
    60   31   87 1    
    61   31   88 1    
    62   31   89 1    
    63   32   33 2    
    64   32   34 am   BACKBONE|DICT|INTERRES
    65   34   35 1    
    66   34   90 1    
    67   35   36 1    
    68   35   37 1    
    69   35   91 1    
    70   36   92 1    
    71   36   93 1    
    72   36   94 1    
    73   37   38 2    
    74   37   39 am   BACKBONE|DICT|INTERRES
    75   39   40 1    
    76   39   95 1    
    77   40   41 1    
    78   40   42 1    
    79   40   96 1    
    80   41   97 1    
    81   41   98 1    
    82   41   99 1    
    83   42   43 2    
    84   42   44 am   BACKBONE|DICT|INTERRES
    85   44   45 1    
    86   44  100 1    
    87   45   46 1    
    88   45   47 1    
    89   45  101 1    
    90   46  102 1    
    91   46  103 1    
    92   46  104 1    
    93   47   48 2    
    94   47   49 am   BACKBONE|DICT|INTERRES
    95   49   50 1    
    96   49  105 1    
    97   50   51 1    
    98   50   52 1    
    99   50  106 1    
   100   51  107 1    
   101   51  108 1    
   102   51  109 1    
   103   52   53 2    
   104   52   54 am   BACKBONE|DICT|INTERRES
   105   54   55 1    
   106   54  110 1    
   107   55   56 1    
   108   55   59 1    
   109   55  111 1    
   110   56   57 am   BACKBONE|DICT|INTERRES
   111   56   58 2    
   112   57  112 1    
   113   57  113 1    
   114   59   60 1    
   115   59  114 1    
   116   59  115 1    
   117   60   61 1    
   118   61  116 1    
   119   61  117 1    
@<TRIPOS>SUBSTRUCTURE
     1 UNK         1 GROUP             0       ****    0 ROOT    
