@<TRIPOS>MOLECULE
3R8
117   119    1
SMALL
USER_CHARGES


@<TRIPOS>ATOM
      1 CA         14.7352  -23.3294  -42.0576 C.3       0 UNK        -0.2013 
      2 C          15.2895  -23.7579  -43.4082 C.2       0 UNK         0.4866 
      3 O          15.1826  -23.0082  -44.3797 O.2       0 UNK        -0.5176 
      4 N          15.8718  -24.9611  -43.4798 N.am      1 UNK        -0.4884 
      5 CA         16.5036  -25.5131  -44.6825 C.3       1 UNK         0.0853 
      6 C6         16.7775  -27.0270  -44.5382 C.3       10 UNK        -0.0849 
      7 S7         15.2493  -28.0247  -44.5617 S.3       10 UNK        -0.2776 
      8 C8         15.6184  -29.3551  -43.3604 C.3       10 UNK         0.0316 
      9 C9         17.0302  -29.9289  -43.4733 C.ar      10 UNK        -0.0863 
     10 C10        17.7777  -30.1495  -42.3120 C.ar      10 UNK        -0.1009 
     11 C11        19.0878  -30.6298  -42.3874 C.ar      10 UNK        -0.0712 
     12 C12        19.6580  -30.8769  -43.6386 C.ar      10 UNK        -0.0894 
     13 C13        18.9286  -30.6475  -44.8083 C.ar      10 UNK        -0.0745 
     14 C14        17.6050  -30.2087  -44.7191 C.ar      10 UNK        -0.0972 
     15 C15        19.5918  -30.8140  -46.1682 C.3       10 UNK         0.0209 
     16 S16        20.0210  -29.2016  -46.9117 S.3       10 UNK        -0.2568 
     17 C17        21.1036  -28.4880  -45.6272 C.3       10 UNK        -0.0983 
     18 CA         21.6034  -27.0563  -45.9438 C.3       3 UNK         0.0876 
     19 N          20.4998  -26.1358  -46.2456 N.am      3 UNK        -0.4424 
     20 C          20.6249  -24.8522  -46.6153 C.2       2 UNK         0.4918 
     21 O          21.7076  -24.2887  -46.7765 O.2       2 UNK        -0.4875 
     22 CA         19.3298  -24.0525  -46.8616 C.3       2 UNK         0.0481 
     23 CB         19.1329  -23.8074  -48.3667 C.3       2 UNK        -0.1831 
     24 N          18.1182  -24.6773  -46.3188 N.am      2 UNK        -0.4498 
     25 C          17.8186  -24.7800  -45.0160 C.2       1 UNK         0.5027 
     26 O          18.5546  -24.3844  -44.1081 O.2       1 UNK        -0.4969 
     27 C          22.4814  -26.5609  -44.7753 C.2       3 UNK         0.5005 
     28 O          23.7070  -26.6640  -44.8544 O.2       3 UNK        -0.5279 
     29 N          21.8257  -26.0386  -43.7240 N.am      4 UNK        -0.4463 
     30 CA         22.4016  -25.5830  -42.4534 C.3       4 UNK         0.0283 
     31 CB         23.2125  -24.2848  -42.6697 C.3       4 UNK        -0.1875 
     32 C          23.1873  -26.7042  -41.7373 C.2       4 UNK         0.4949 
     33 O          22.7971  -27.8702  -41.8295 O.2       4 UNK        -0.5039 
     34 N          24.2571  -26.3342  -41.0181 N.am      5 UNK        -0.4663 
     35 CA         25.2824  -27.1680  -40.3667 C.3       5 UNK         0.0242 
     36 CB         26.0576  -27.9852  -41.4199 C.3       5 UNK        -0.1982 
     37 C          24.8188  -28.0927  -39.2248 C.2       5 UNK         0.5017 
     38 O          25.6330  -28.3988  -38.3533 O.2       5 UNK        -0.5012 
     39 N          23.5680  -28.5708  -39.2657 N.am      6 UNK        -0.4439 
     40 CA         22.9258  -29.5817  -38.4085 C.3       6 UNK         0.0297 
     41 CB         22.9361  -29.1820  -36.9209 C.3       6 UNK        -0.2006 
     42 C          23.4882  -30.9995  -38.6173 C.2       6 UNK         0.4892 
     43 O          22.7117  -31.9427  -38.7641 O.2       6 UNK        -0.5089 
     44 N          24.8182  -31.1233  -38.7207 N.am      7 UNK        -0.4243 
     45 CA         25.5539  -32.3375  -39.0953 C.3       7 UNK         0.0196 
     46 CB         27.0610  -32.0567  -38.9845 C.3       7 UNK        -0.2007 
     47 C          25.2079  -32.8744  -40.4997 C.2       7 UNK         0.5020 
     48 O          25.4933  -34.0357  -40.7899 O.2       7 UNK        -0.5147 
     49 N          24.5733  -32.0365  -41.3320 N.am      8 UNK        -0.4734 
     50 CA         23.9898  -32.3946  -42.6256 C.3       8 UNK         0.0238 
     51 CB         23.6349  -31.1026  -43.3834 C.3       8 UNK        -0.1912 
     52 C          22.7617  -33.3244  -42.5264 C.2       8 UNK         0.5038 
     53 O          22.3710  -33.8847  -43.5513 O.2       8 UNK        -0.5046 
     54 N          22.1739  -33.4755  -41.3306 N.am      9 UNK        -0.4200 
     55 CA         21.0398  -34.3730  -41.0643 C.3       9 UNK         0.0839 
     56 C          21.1160  -35.1111  -39.6995 C.2       9 UNK         0.5513 
     57 N          21.8559  -34.6255  -38.7105 N.am      9 UNK        -0.7519 
     58 O          20.5092  -36.1680  -39.5445 O.2       9 UNK        -0.4960 
     59 C59        19.6703  -33.6841  -41.3017 C.3       10 UNK        -0.0876 
     60 S60        19.3195  -32.2905  -40.1685 S.3       10 UNK        -0.2414 
     61 C61        19.8973  -30.8481  -41.1177 C.3       10 UNK         0.0169 
     62 H62        13.6663  -23.1326  -42.1358 H         1 UNK         0.0903 
     63 H63        14.8841  -24.0931  -41.2944 H         1 UNK         0.0903 
     64 H64        15.2267  -22.4160  -41.7235 H         1 UNK         0.0903 
     65 H65        15.9416  -25.5307  -42.6490 H         1 UNK         0.3096 
     66 H66        15.8154  -25.3613  -45.5177 H         1 UNK         0.1121 
     67 H67        17.3404  -27.2209  -43.6228 H         1 UNK         0.0849 
     68 H68        17.3993  -27.3924  -45.3582 H         1 UNK         0.0849 
     69 H69        15.4502  -28.9580  -42.3581 H         1 UNK         0.0865 
     70 H70        14.8975  -30.1625  -43.4944 H         1 UNK         0.0865 
     71 H71        17.3458  -29.9420  -41.3423 H         1 UNK         0.1346 
     72 H72        20.6794  -31.2235  -43.7044 H         1 UNK         0.1412 
     73 H73        17.0425  -30.0295  -45.6252 H         1 UNK         0.1426 
     74 H74        18.9192  -31.3490  -46.8402 H         1 UNK         0.0716 
     75 H75        20.4936  -31.4231  -46.0867 H         1 UNK         0.0716 
     76 H76        21.9491  -29.1642  -45.4841 H         1 UNK         0.0695 
     77 H77        20.5537  -28.4798  -44.6848 H         1 UNK         0.0695 
     78 H78        22.2371  -27.1020  -46.8321 H         1 UNK         0.0983 
     79 H79        19.5731  -26.5286  -46.1903 H         1 UNK         0.3095 
     80 H80        19.4532  -23.0829  -46.3747 H         1 UNK         0.0454 
     81 H81        20.0000  -23.3054  -48.7982 H         1 UNK         0.0851 
     82 H82        18.2681  -23.1715  -48.5569 H         1 UNK         0.0851 
     83 H83        18.9927  -24.7405  -48.9139 H         1 UNK         0.0851 
     84 H84        17.4644  -25.0413  -46.9981 H         1 UNK         0.2976 
     85 H85        20.8170  -26.0042  -43.7763 H         1 UNK         0.3116 
     86 H86        21.5560  -25.3438  -41.8071 H         1 UNK         0.0646 
     87 H87        24.1362  -24.4686  -43.2201 H         1 UNK         0.0847 
     88 H88        22.6350  -23.5528  -43.2348 H         1 UNK         0.0847 
     89 H89        23.4751  -23.8122  -41.7227 H         1 UNK         0.0847 
     90 H90        24.4410  -25.3414  -40.9707 H         1 UNK         0.3040 
     91 H91        25.9860  -26.4672  -39.9137 H         1 UNK         0.1015 
     92 H92        26.8784  -28.5396  -40.9622 H         1 UNK         0.0786 
     93 H93        26.4913  -27.3379  -42.1823 H         1 UNK         0.0786 
     94 H94        25.4181  -28.7104  -41.9239 H         1 UNK         0.0786 
     95 H95        23.0414  -28.3115  -40.0994 H         1 UNK         0.3172 
     96 H96        21.8830  -29.6115  -38.7289 H         1 UNK         0.0595 
     97 H97        23.9424  -29.1735  -36.5017 H         1 UNK         0.0839 
     98 H98        22.3483  -29.8850  -36.3292 H         1 UNK         0.0839 
     99 H99        22.5026  -28.1929  -36.7735 H         1 UNK         0.0839 
    100 H100       25.3667  -30.2810  -38.5693 H         1 UNK         0.2998 
    101 H101       25.2911  -33.1179  -38.3781 H         1 UNK         0.0822 
    102 H102       27.6445  -32.9461  -39.2270 H         1 UNK         0.0787 
    103 H103       27.3357  -31.7571  -37.9729 H         1 UNK         0.0787 
    104 H104       27.3739  -31.2644  -39.6661 H         1 UNK         0.0787 
    105 H105       24.3959  -31.0993  -41.0031 H         1 UNK         0.3055 
    106 H106       24.7474  -32.9331  -43.1996 H         1 UNK         0.1106 
    107 H107       24.5195  -30.4912  -43.5618 H         1 UNK         0.0828 
    108 H108       23.1998  -31.3255  -44.3586 H         1 UNK         0.0828 
    109 H109       22.9151  -30.4932  -42.8358 H         1 UNK         0.0828 
    110 H110       22.5345  -32.9726  -40.5286 H         1 UNK         0.2931 
    111 H111       21.1012  -35.1847  -41.7923 H         1 UNK         0.0412 
    112 H112       21.8979  -35.1354  -37.8428 H         1 UNK         0.3472 
    113 H113       22.2546  -33.6918  -38.7596 H         1 UNK         0.3472 
    114 H114       19.6031  -33.3479  -42.3360 H         1 UNK         0.0970 
    115 H115       18.8656  -34.4130  -41.1906 H         1 UNK         0.0970 
    116 H116       19.8181  -29.9615  -40.4872 H         1 UNK         0.0612 
    117 H117       20.9579  -30.9616  -41.3427 H         1 UNK         0.0612 
@<TRIPOS>BOND
     1    1    2 1    
     2    1   62 1    
     3    1   63 1    
     4    1   64 1    
     5    2    3 2    
     6    2    4 am   BACKBONE|DICT|INTERRES
     7    4    5 1    
     8    4   65 1    
     9    5    6 1    
    10    5   25 1    
    11    5   66 1    
    12    6    7 1    
    13    6   67 1    
    14    6   68 1    
    15    7    8 1    
    16    8    9 1    
    17    8   69 1    
    18    8   70 1    
    19    9   10 ar   
    20    9   14 ar   
    21   10   11 ar   
    22   10   71 1    
    23   11   12 ar   
    24   11   61 1    
    25   12   13 ar   
    26   12   72 1    
    27   13   14 ar   
    28   13   15 1    
    29   14   73 1    
    30   15   16 1    
    31   15   74 1    
    32   15   75 1    
    33   16   17 1    
    34   17   18 1    
    35   17   76 1    
    36   17   77 1    
    37   18   19 1    
    38   18   27 1    
    39   18   78 1    
    40   19   20 am   BACKBONE|DICT|INTERRES
    41   19   79 1    
    42   20   21 2    
    43   20   22 1    
    44   22   23 1    
    45   22   24 1    
    46   22   80 1    
    47   23   81 1    
    48   23   82 1    
    49   23   83 1    
    50   24   25 am   BACKBONE|DICT|INTERRES
    51   24   84 1    
    52   25   26 2    
    53   27   28 2    
    54   27   29 am   BACKBONE|DICT|INTERRES
    55   29   30 1    
    56   29   85 1    
    57   30   31 1    
    58   30   32 1    
    59   30   86 1    
    60   31   87 1    
    61   31   88 1    
    62   31   89 1    
    63   32   33 2    
    64   32   34 am   BACKBONE|DICT|INTERRES
    65   34   35 1    
    66   34   90 1    
    67   35   36 1    
    68   35   37 1    
    69   35   91 1    
    70   36   92 1    
    71   36   93 1    
    72   36   94 1    
    73   37   38 2    
    74   37   39 am   BACKBONE|DICT|INTERRES
    75   39   40 1    
    76   39   95 1    
    77   40   41 1    
    78   40   42 1    
    79   40   96 1    
    80   41   97 1    
    81   41   98 1    
    82   41   99 1    
    83   42   43 2    
    84   42   44 am   BACKBONE|DICT|INTERRES
    85   44   45 1    
    86   44  100 1    
    87   45   46 1    
    88   45   47 1    
    89   45  101 1    
    90   46  102 1    
    91   46  103 1    
    92   46  104 1    
    93   47   48 2    
    94   47   49 am   BACKBONE|DICT|INTERRES
    95   49   50 1    
    96   49  105 1    
    97   50   51 1    
    98   50   52 1    
    99   50  106 1    
   100   51  107 1    
   101   51  108 1    
   102   51  109 1    
   103   52   53 2    
   104   52   54 am   BACKBONE|DICT|INTERRES
   105   54   55 1    
   106   54  110 1    
   107   55   56 1    
   108   55   59 1    
   109   55  111 1    
   110   56   57 am   BACKBONE|DICT|INTERRES
   111   56   58 2    
   112   57  112 1    
   113   57  113 1    
   114   59   60 1    
   115   59  114 1    
   116   59  115 1    
   117   60   61 1    
   118   61  116 1    
   119   61  117 1    
@<TRIPOS>SUBSTRUCTURE
     1 UNK         1 GROUP             0       ****    0 ROOT    
