@<TRIPOS>MOLECULE
3R8
117   119    1
SMALL
USER_CHARGES


@<TRIPOS>ATOM
      1 CA         19.5683  -27.6136  -37.7400 C.3       0 UNK        -0.2013 
      2 C          19.3489  -27.9487  -39.2073 C.2       0 UNK         0.4866 
      3 O          18.2498  -28.3497  -39.5889 O.2       0 UNK        -0.5176 
      4 N          20.3991  -27.8185  -40.0276 N.am      1 UNK        -0.4884 
      5 CA         20.3830  -28.0540  -41.4755 C.3       1 UNK         0.0853 
      6 C6         21.8350  -28.1067  -42.0084 C.3       10 UNK        -0.0849 
      7 S7         22.1245  -28.0076  -43.8060 S.3       10 UNK        -0.2776 
      8 C8         22.2299  -29.7511  -44.2923 C.3       10 UNK         0.0316 
      9 C9         20.8463  -30.2411  -44.6604 C.ar      10 UNK        -0.0863 
     10 C10        20.0370  -30.8426  -43.7015 C.ar      10 UNK        -0.1009 
     11 C11        18.7407  -31.2482  -44.0186 C.ar      10 UNK        -0.0712 
     12 C12        18.2453  -31.0209  -45.3096 C.ar      10 UNK        -0.0894 
     13 C13        19.0557  -30.4227  -46.2850 C.ar      10 UNK        -0.0745 
     14 C14        20.3627  -30.0565  -45.9546 C.ar      10 UNK        -0.0972 
     15 C15        18.5451  -30.2066  -47.7052 C.3       10 UNK         0.0209 
     16 S16        17.8706  -28.5316  -47.9774 S.3       10 UNK        -0.2568 
     17 C17        19.3714  -27.4845  -48.0899 C.3       10 UNK        -0.0983 
     18 CA         19.3718  -26.2901  -47.0963 C.3       3 UNK         0.0876 
     19 N          18.9828  -26.6955  -45.7400 N.am      3 UNK        -0.4424 
     20 C          18.1494  -25.9858  -44.9691 C.2       2 UNK         0.4918 
     21 O          17.7862  -24.8365  -45.2208 O.2       2 UNK        -0.4875 
     22 CA         17.5848  -26.6947  -43.7305 C.3       2 UNK         0.0481 
     23 CB         16.3940  -27.5839  -44.1254 C.3       2 UNK        -0.1831 
     24 N          18.5812  -27.5088  -43.0390 N.am      2 UNK        -0.4498 
     25 C          19.4894  -27.0179  -42.1862 C.2       1 UNK         0.5027 
     26 O          19.6253  -25.8188  -41.9331 O.2       1 UNK        -0.4969 
     27 C          20.7166  -25.5297  -47.1312 C.2       3 UNK         0.5005 
     28 O          21.0517  -24.9596  -48.1714 O.2       3 UNK        -0.5279 
     29 N          21.4665  -25.5302  -46.0214 N.am      4 UNK        -0.4463 
     30 CA         22.7761  -24.8958  -45.8646 C.3       4 UNK         0.0283 
     31 CB         23.8724  -25.7631  -46.5254 C.3       4 UNK        -0.1875 
     32 C          23.0028  -24.6102  -44.3689 C.2       4 UNK         0.4949 
     33 O          22.1200  -24.0303  -43.7355 O.2       4 UNK        -0.5039 
     34 N          24.1509  -25.0276  -43.8212 N.am      5 UNK        -0.4663 
     35 CA         24.4698  -24.9991  -42.3954 C.3       5 UNK         0.0242 
     36 CB         25.2462  -23.7159  -42.0534 C.3       5 UNK        -0.1982 
     37 C          25.2887  -26.2549  -42.0679 C.2       5 UNK         0.5017 
     38 O          26.2481  -26.5444  -42.7865 O.2       5 UNK        -0.5012 
     39 N          24.8890  -26.9660  -41.0069 N.am      6 UNK        -0.4439 
     40 CA         25.3898  -28.2528  -40.5177 C.3       6 UNK         0.0297 
     41 CB         25.4695  -29.3117  -41.6427 C.3       6 UNK        -0.2006 
     42 C          24.4399  -28.7294  -39.4047 C.2       6 UNK         0.4892 
     43 O          23.3656  -28.1457  -39.2167 O.2       6 UNK        -0.5089 
     44 N          24.8388  -29.7904  -38.6938 N.am      7 UNK        -0.4243 
     45 CA         24.0932  -30.4017  -37.5902 C.3       7 UNK         0.0196 
     46 CB         25.0901  -31.1206  -36.6609 C.3       7 UNK        -0.2007 
     47 C          22.9638  -31.3328  -38.0809 C.2       7 UNK         0.5020 
     48 O          23.0016  -32.5363  -37.8178 O.2       7 UNK        -0.5147 
     49 N          21.9716  -30.7482  -38.7663 N.am      8 UNK        -0.4734 
     50 CA         20.7431  -31.3820  -39.2714 C.3       8 UNK         0.0238 
     51 CB         19.8511  -31.8441  -38.0957 C.3       8 UNK        -0.1912 
     52 C          20.9993  -32.4765  -40.3289 C.2       8 UNK         0.5038 
     53 O          22.0073  -32.4152  -41.0362 O.2       8 UNK        -0.5046 
     54 N          20.0579  -33.4175  -40.4596 N.am      9 UNK        -0.4200 
     55 CA         20.1016  -34.5610  -41.3765 C.3       9 UNK         0.0839 
     56 C          19.3307  -35.7737  -40.7904 C.2       9 UNK         0.5513 
     57 N          19.4906  -36.9530  -41.3753 N.am      9 UNK        -0.7519 
     58 O          18.5913  -35.6591  -39.8135 O.2       9 UNK        -0.4960 
     59 C59        19.6795  -34.1904  -42.8281 C.3       10 UNK        -0.0876 
     60 S60        17.9161  -33.7393  -43.0600 S.3       10 UNK        -0.2414 
     61 C61        17.8900  -31.9189  -42.9494 C.3       10 UNK         0.0169 
     62 H62        18.9430  -26.7694  -37.4510 H         1 UNK         0.0903 
     63 H63        19.3006  -28.4658  -37.1161 H         1 UNK         0.0903 
     64 H64        20.6068  -27.3555  -37.5320 H         1 UNK         0.0903 
     65 H65        21.2809  -27.4909  -39.6515 H         1 UNK         0.3096 
     66 H66        19.9314  -29.0333  -41.6282 H         1 UNK         0.1121 
     67 H67        22.3321  -28.9915  -41.6111 H         1 UNK         0.0849 
     68 H68        22.3667  -27.2510  -41.5990 H         1 UNK         0.0849 
     69 H69        22.6643  -30.3584  -43.4968 H         1 UNK         0.0865 
     70 H70        22.8999  -29.8426  -45.1486 H         1 UNK         0.0865 
     71 H71        20.4254  -31.0042  -42.7076 H         1 UNK         0.1346 
     72 H72        17.2378  -31.3256  -45.5581 H         1 UNK         0.1412 
     73 H73        21.0135  -29.6201  -46.6971 H         1 UNK         0.1426 
     74 H74        17.7611  -30.9327  -47.9256 H         1 UNK         0.0716 
     75 H75        19.3413  -30.3998  -48.4258 H         1 UNK         0.0716 
     76 H76        19.4246  -27.1065  -49.1126 H         1 UNK         0.0695 
     77 H77        20.2640  -28.0937  -47.9695 H         1 UNK         0.0695 
     78 H78        18.6276  -25.5839  -47.4721 H         1 UNK         0.0983 
     79 H79        19.2230  -27.6378  -45.4676 H         1 UNK         0.3095 
     80 H80        17.2170  -25.9300  -43.0427 H         1 UNK         0.0454 
     81 H81        16.6890  -28.3805  -44.8101 H         1 UNK         0.0851 
     82 H82        15.6199  -26.9990  -44.6240 H         1 UNK         0.0851 
     83 H83        15.9357  -28.0457  -43.2508 H         1 UNK         0.0851 
     84 H84        18.5411  -28.5053  -43.1988 H         1 UNK         0.2976 
     85 H85        21.1029  -25.9781  -45.1897 H         1 UNK         0.3116 
     86 H86        22.7558  -23.9250  -46.3638 H         1 UNK         0.0646 
     87 H87        24.8516  -25.2878  -46.4575 H         1 UNK         0.0847 
     88 H88        23.6719  -25.9114  -47.5865 H         1 UNK         0.0847 
     89 H89        23.9424  -26.7495  -46.0650 H         1 UNK         0.0847 
     90 H90        24.8156  -25.5359  -44.3904 H         1 UNK         0.3040 
     91 H91        23.5444  -25.0185  -41.8148 H         1 UNK         0.1015 
     92 H92        24.6550  -22.8263  -42.2715 H         1 UNK         0.0786 
     93 H93        26.1773  -23.6458  -42.6173 H         1 UNK         0.0786 
     94 H94        25.5014  -23.6849  -40.9933 H         1 UNK         0.0786 
     95 H95        24.1032  -26.6377  -40.4575 H         1 UNK         0.3172 
     96 H96        26.3790  -28.0985  -40.0835 H         1 UNK         0.0595 
     97 H97        24.5404  -29.3792  -42.2055 H         1 UNK         0.0839 
     98 H98        25.6833  -30.3065  -41.2507 H         1 UNK         0.0839 
     99 H99        26.2664  -29.0857  -42.3503 H         1 UNK         0.0839 
    100 H100       25.7154  -30.2303  -38.9348 H         1 UNK         0.2998 
    101 H101       23.6197  -29.6084  -37.0070 H         1 UNK         0.0822 
    102 H102       25.8356  -30.4291  -36.2676 H         1 UNK         0.0787 
    103 H103       24.5780  -31.5617  -35.8046 H         1 UNK         0.0787 
    104 H104       25.6167  -31.9249  -37.1763 H         1 UNK         0.0787 
    105 H105       22.0914  -29.7644  -38.9809 H         1 UNK         0.3055 
    106 H106       20.1961  -30.6069  -39.8034 H         1 UNK         0.1106 
    107 H107       18.8432  -32.0937  -38.4288 H         1 UNK         0.0828 
    108 H108       20.2622  -32.7211  -37.5938 H         1 UNK         0.0828 
    109 H109       19.7451  -31.0568  -37.3494 H         1 UNK         0.0828 
    110 H110       19.2722  -33.4336  -39.8234 H         1 UNK         0.2931 
    111 H111       21.1437  -34.8854  -41.4144 H         1 UNK         0.0412 
    112 H112       20.0965  -37.0642  -42.1734 H         1 UNK         0.3472 
    113 H113       18.9956  -37.7515  -41.0088 H         1 UNK         0.3472 
    114 H114       20.3270  -33.4045  -43.2097 H         1 UNK         0.0970 
    115 H115       19.8757  -35.0386  -43.4856 H         1 UNK         0.0970 
    116 H116       18.2173  -31.6175  -41.9533 H         1 UNK         0.0612 
    117 H117       16.8576  -31.5792  -43.0428 H         1 UNK         0.0612 
@<TRIPOS>BOND
     1    1    2 1    
     2    1   62 1    
     3    1   63 1    
     4    1   64 1    
     5    2    3 2    
     6    2    4 am   BACKBONE|DICT|INTERRES
     7    4    5 1    
     8    4   65 1    
     9    5    6 1    
    10    5   25 1    
    11    5   66 1    
    12    6    7 1    
    13    6   67 1    
    14    6   68 1    
    15    7    8 1    
    16    8    9 1    
    17    8   69 1    
    18    8   70 1    
    19    9   10 ar   
    20    9   14 ar   
    21   10   11 ar   
    22   10   71 1    
    23   11   12 ar   
    24   11   61 1    
    25   12   13 ar   
    26   12   72 1    
    27   13   14 ar   
    28   13   15 1    
    29   14   73 1    
    30   15   16 1    
    31   15   74 1    
    32   15   75 1    
    33   16   17 1    
    34   17   18 1    
    35   17   76 1    
    36   17   77 1    
    37   18   19 1    
    38   18   27 1    
    39   18   78 1    
    40   19   20 am   BACKBONE|DICT|INTERRES
    41   19   79 1    
    42   20   21 2    
    43   20   22 1    
    44   22   23 1    
    45   22   24 1    
    46   22   80 1    
    47   23   81 1    
    48   23   82 1    
    49   23   83 1    
    50   24   25 am   BACKBONE|DICT|INTERRES
    51   24   84 1    
    52   25   26 2    
    53   27   28 2    
    54   27   29 am   BACKBONE|DICT|INTERRES
    55   29   30 1    
    56   29   85 1    
    57   30   31 1    
    58   30   32 1    
    59   30   86 1    
    60   31   87 1    
    61   31   88 1    
    62   31   89 1    
    63   32   33 2    
    64   32   34 am   BACKBONE|DICT|INTERRES
    65   34   35 1    
    66   34   90 1    
    67   35   36 1    
    68   35   37 1    
    69   35   91 1    
    70   36   92 1    
    71   36   93 1    
    72   36   94 1    
    73   37   38 2    
    74   37   39 am   BACKBONE|DICT|INTERRES
    75   39   40 1    
    76   39   95 1    
    77   40   41 1    
    78   40   42 1    
    79   40   96 1    
    80   41   97 1    
    81   41   98 1    
    82   41   99 1    
    83   42   43 2    
    84   42   44 am   BACKBONE|DICT|INTERRES
    85   44   45 1    
    86   44  100 1    
    87   45   46 1    
    88   45   47 1    
    89   45  101 1    
    90   46  102 1    
    91   46  103 1    
    92   46  104 1    
    93   47   48 2    
    94   47   49 am   BACKBONE|DICT|INTERRES
    95   49   50 1    
    96   49  105 1    
    97   50   51 1    
    98   50   52 1    
    99   50  106 1    
   100   51  107 1    
   101   51  108 1    
   102   51  109 1    
   103   52   53 2    
   104   52   54 am   BACKBONE|DICT|INTERRES
   105   54   55 1    
   106   54  110 1    
   107   55   56 1    
   108   55   59 1    
   109   55  111 1    
   110   56   57 am   BACKBONE|DICT|INTERRES
   111   56   58 2    
   112   57  112 1    
   113   57  113 1    
   114   59   60 1    
   115   59  114 1    
   116   59  115 1    
   117   60   61 1    
   118   61  116 1    
   119   61  117 1    
@<TRIPOS>SUBSTRUCTURE
     1 UNK         1 GROUP             0       ****    0 ROOT    
