@<TRIPOS>MOLECULE
3R8
117   119    1
SMALL
USER_CHARGES


@<TRIPOS>ATOM
      1 CA         15.2819  -24.4232  -41.1157 C.3       0 UNK        -0.2013 
      2 C          14.4528  -25.7022  -41.1989 C.2       0 UNK         0.4866 
      3 O          13.8505  -26.0969  -40.2028 O.2       0 UNK        -0.5176 
      4 N          14.3834  -26.3841  -42.3513 N.am      1 UNK        -0.4884 
      5 CA         15.0720  -26.0759  -43.6140 C.3       1 UNK         0.0853 
      6 C6         14.3910  -26.7797  -44.8162 C.3       10 UNK        -0.0849 
      7 S7         14.3330  -28.6050  -44.6807 S.3       10 UNK        -0.2776 
      8 C8         15.1072  -29.1374  -46.2432 C.3       10 UNK         0.0316 
      9 C9         16.6317  -29.1639  -46.1897 C.ar      10 UNK        -0.0863 
     10 C10        17.2886  -30.1943  -45.5090 C.ar      10 UNK        -0.1009 
     11 C11        18.6829  -30.2991  -45.5492 C.ar      10 UNK        -0.0712 
     12 C12        19.4229  -29.3615  -46.2742 C.ar      10 UNK        -0.0894 
     13 C13        18.7827  -28.3137  -46.9424 C.ar      10 UNK        -0.0745 
     14 C14        17.3869  -28.2166  -46.8907 C.ar      10 UNK        -0.0972 
     15 C15        19.5912  -27.3290  -47.7782 C.3       10 UNK         0.0209 
     16 S16        20.0910  -25.8481  -46.8429 S.3       10 UNK        -0.2568 
     17 C17        21.5149  -26.4508  -45.8709 C.3       10 UNK        -0.0983 
     18 CA         21.2853  -26.3170  -44.3458 C.3       3 UNK         0.0876 
     19 N          20.1249  -27.0876  -43.9041 N.am      3 UNK        -0.4424 
     20 C          19.5025  -26.9448  -42.7303 C.2       2 UNK         0.4918 
     21 O          19.8093  -26.1139  -41.8725 O.2       2 UNK        -0.4875 
     22 CA         18.3088  -27.8850  -42.4953 C.3       2 UNK         0.0481 
     23 CB         18.4003  -28.5585  -41.1152 C.3       2 UNK        -0.1831 
     24 N          16.9938  -27.2549  -42.6384 N.am      2 UNK        -0.4498 
     25 C          16.5804  -26.3953  -43.5852 C.2       1 UNK         0.5027 
     26 O          17.3028  -25.8686  -44.4296 O.2       1 UNK        -0.4969 
     27 C          22.5438  -26.7439  -43.5670 C.2       3 UNK         0.5005 
     28 O          22.6712  -27.9129  -43.1930 O.2       3 UNK        -0.5279 
     29 N          23.4803  -25.8046  -43.3776 N.am      4 UNK        -0.4463 
     30 CA         24.7240  -25.9665  -42.6120 C.3       4 UNK         0.0283 
     31 CB         25.2474  -24.5726  -42.2164 C.3       4 UNK        -0.1875 
     32 C          25.8049  -26.8240  -43.3101 C.2       4 UNK         0.4949 
     33 O          26.9917  -26.5051  -43.2248 O.2       4 UNK        -0.5039 
     34 N          25.3872  -27.9086  -43.9731 N.am      5 UNK        -0.4663 
     35 CA         26.2632  -28.9402  -44.5357 C.3       5 UNK         0.0242 
     36 CB         25.4823  -29.7403  -45.5909 C.3       5 UNK        -0.1982 
     37 C          26.8130  -29.8765  -43.4447 C.2       5 UNK         0.5017 
     38 O          27.9191  -30.3981  -43.5875 O.2       5 UNK        -0.5012 
     39 N          26.0319  -30.0510  -42.3742 N.am      6 UNK        -0.4439 
     40 CA         26.3286  -30.7993  -41.1604 C.3       6 UNK         0.0297 
     41 CB         26.2576  -32.3139  -41.4296 C.3       6 UNK        -0.2006 
     42 C          25.3017  -30.3654  -40.1071 C.2       6 UNK         0.4892 
     43 O          24.2696  -29.7907  -40.4700 O.2       6 UNK        -0.5089 
     44 N          25.5916  -30.6471  -38.8298 N.am      7 UNK        -0.4243 
     45 CA         24.7307  -30.3402  -37.6824 C.3       7 UNK         0.0196 
     46 CB         25.4465  -30.7499  -36.3839 C.3       7 UNK        -0.2007 
     47 C          23.3633  -31.0331  -37.8078 C.2       7 UNK         0.5020 
     48 O          23.2955  -32.2592  -37.7052 O.2       7 UNK        -0.5147 
     49 N          22.3225  -30.2399  -38.1030 N.am      8 UNK        -0.4734 
     50 CA         20.9513  -30.6642  -38.4277 C.3       8 UNK         0.0238 
     51 CB         20.2436  -31.2114  -37.1695 C.3       8 UNK        -0.1912 
     52 C          20.8815  -31.6407  -39.6236 C.2       8 UNK         0.5038 
     53 O          20.0282  -32.5295  -39.6356 O.2       8 UNK        -0.5046 
     54 N          21.8000  -31.4699  -40.5863 N.am      9 UNK        -0.4200 
     55 CA         22.0444  -32.3621  -41.7330 C.3       9 UNK         0.0839 
     56 C          22.6495  -33.7490  -41.3517 C.2       9 UNK         0.5513 
     57 N          23.1245  -33.9671  -40.1305 N.am      9 UNK        -0.7519 
     58 O          22.7279  -34.6408  -42.1927 O.2       9 UNK        -0.4960 
     59 C59        20.8295  -32.4954  -42.6973 C.3       10 UNK        -0.0876 
     60 S60        20.2486  -30.8945  -43.3459 S.3       10 UNK        -0.2414 
     61 C61        19.3906  -31.4490  -44.8489 C.3       10 UNK         0.0169 
     62 H62        15.1648  -23.9584  -40.1369 H         1 UNK         0.0903 
     63 H63        16.3420  -24.6323  -41.2546 H         1 UNK         0.0903 
     64 H64        14.9622  -23.6968  -41.8618 H         1 UNK         0.0903 
     65 H65        13.8199  -27.2232  -42.3797 H         1 UNK         0.3096 
     66 H66        14.9902  -25.0019  -43.7918 H         1 UNK         0.1121 
     67 H67        13.3645  -26.4219  -44.9106 H         1 UNK         0.0849 
     68 H68        14.8813  -26.4918  -45.7485 H         1 UNK         0.0849 
     69 H69        14.7513  -30.1426  -46.4738 H         1 UNK         0.0865 
     70 H70        14.7556  -28.5085  -47.0626 H         1 UNK         0.0865 
     71 H71        16.7087  -30.9312  -44.9698 H         1 UNK         0.1346 
     72 H72        20.4984  -29.4611  -46.3265 H         1 UNK         0.1412 
     73 H73        16.8880  -27.4199  -47.4257 H         1 UNK         0.1426 
     74 H74        18.9965  -27.0083  -48.6348 H         1 UNK         0.0716 
     75 H75        20.4738  -27.8155  -48.1964 H         1 UNK         0.0716 
     76 H76        21.7437  -27.4830  -46.1396 H         1 UNK         0.0695 
     77 H77        22.3834  -25.8643  -46.1766 H         1 UNK         0.0695 
     78 H78        21.0865  -25.2674  -44.1173 H         1 UNK         0.0983 
     79 H79        19.7768  -27.7754  -44.5565 H         1 UNK         0.3095 
     80 H80        18.3456  -28.6728  -43.2468 H         1 UNK         0.0454 
     81 H81        19.3754  -29.0275  -40.9786 H         1 UNK         0.0851 
     82 H82        18.2667  -27.8403  -40.3054 H         1 UNK         0.0851 
     83 H83        17.6499  -29.3410  -41.0025 H         1 UNK         0.0851 
     84 H84        16.2798  -27.5949  -42.0109 H         1 UNK         0.2976 
     85 H85        23.3221  -24.8856  -43.7666 H         1 UNK         0.3116 
     86 H86        24.4742  -26.4929  -41.6879 H         1 UNK         0.0646 
     87 H87        26.1183  -24.6491  -41.5637 H         1 UNK         0.0847 
     88 H88        24.4936  -24.0029  -41.6727 H         1 UNK         0.0847 
     89 H89        25.5450  -23.9913  -43.0898 H         1 UNK         0.0847 
     90 H90        24.3899  -28.1070  -43.9413 H         1 UNK         0.3040 
     91 H91        27.1136  -28.4575  -45.0228 H         1 UNK         0.1015 
     92 H92        25.1334  -29.0959  -46.3981 H         1 UNK         0.0786 
     93 H93        24.6126  -30.2382  -45.1596 H         1 UNK         0.0786 
     94 H94        26.1109  -30.5106  -46.0401 H         1 UNK         0.0786 
     95 H95        25.1468  -29.5574  -42.3251 H         1 UNK         0.3172 
     96 H96        27.3258  -30.5283  -40.8079 H         1 UNK         0.0595 
     97 H97        27.0460  -32.6333  -42.1110 H         1 UNK         0.0839 
     98 H98        25.3038  -32.5976  -41.8727 H         1 UNK         0.0839 
     99 H99        26.3756  -32.8888  -40.5103 H         1 UNK         0.0839 
    100 H100       26.4476  -31.1430  -38.6268 H         1 UNK         0.2998 
    101 H101       24.5795  -29.2589  -37.6574 H         1 UNK         0.0822 
    102 H102       26.3834  -30.2069  -36.2578 H         1 UNK         0.0787 
    103 H103       24.8269  -30.5322  -35.5128 H         1 UNK         0.0787 
    104 H104       25.6713  -31.8173  -36.3645 H         1 UNK         0.0787 
    105 H105       22.5053  -29.2513  -38.2144 H         1 UNK         0.3055 
    106 H106       20.4153  -29.7678  -38.7434 H         1 UNK         0.1106 
    107 H107       20.6892  -32.1471  -36.8301 H         1 UNK         0.0828 
    108 H108       20.2903  -30.4993  -36.3459 H         1 UNK         0.0828 
    109 H109       19.1887  -31.4067  -37.3664 H         1 UNK         0.0828 
    110 H110       22.4824  -30.7267  -40.4744 H         1 UNK         0.2931 
    111 H111       22.8386  -31.8692  -42.2951 H         1 UNK         0.0412 
    112 H112       23.5194  -34.8689  -39.9168 H         1 UNK         0.3472 
    113 H113       23.0741  -33.2605  -39.4042 H         1 UNK         0.3472 
    114 H114       19.9954  -33.0006  -42.2087 H         1 UNK         0.0970 
    115 H115       21.0993  -33.1204  -43.5505 H         1 UNK         0.0970 
    116 H116       18.6778  -32.2320  -44.5851 H         1 UNK         0.0612 
    117 H117       20.1119  -31.9020  -45.5308 H         1 UNK         0.0612 
@<TRIPOS>BOND
     1    1    2 1    
     2    1   62 1    
     3    1   63 1    
     4    1   64 1    
     5    2    3 2    
     6    2    4 am   BACKBONE|DICT|INTERRES
     7    4    5 1    
     8    4   65 1    
     9    5    6 1    
    10    5   25 1    
    11    5   66 1    
    12    6    7 1    
    13    6   67 1    
    14    6   68 1    
    15    7    8 1    
    16    8    9 1    
    17    8   69 1    
    18    8   70 1    
    19    9   10 ar   
    20    9   14 ar   
    21   10   11 ar   
    22   10   71 1    
    23   11   12 ar   
    24   11   61 1    
    25   12   13 ar   
    26   12   72 1    
    27   13   14 ar   
    28   13   15 1    
    29   14   73 1    
    30   15   16 1    
    31   15   74 1    
    32   15   75 1    
    33   16   17 1    
    34   17   18 1    
    35   17   76 1    
    36   17   77 1    
    37   18   19 1    
    38   18   27 1    
    39   18   78 1    
    40   19   20 am   BACKBONE|DICT|INTERRES
    41   19   79 1    
    42   20   21 2    
    43   20   22 1    
    44   22   23 1    
    45   22   24 1    
    46   22   80 1    
    47   23   81 1    
    48   23   82 1    
    49   23   83 1    
    50   24   25 am   BACKBONE|DICT|INTERRES
    51   24   84 1    
    52   25   26 2    
    53   27   28 2    
    54   27   29 am   BACKBONE|DICT|INTERRES
    55   29   30 1    
    56   29   85 1    
    57   30   31 1    
    58   30   32 1    
    59   30   86 1    
    60   31   87 1    
    61   31   88 1    
    62   31   89 1    
    63   32   33 2    
    64   32   34 am   BACKBONE|DICT|INTERRES
    65   34   35 1    
    66   34   90 1    
    67   35   36 1    
    68   35   37 1    
    69   35   91 1    
    70   36   92 1    
    71   36   93 1    
    72   36   94 1    
    73   37   38 2    
    74   37   39 am   BACKBONE|DICT|INTERRES
    75   39   40 1    
    76   39   95 1    
    77   40   41 1    
    78   40   42 1    
    79   40   96 1    
    80   41   97 1    
    81   41   98 1    
    82   41   99 1    
    83   42   43 2    
    84   42   44 am   BACKBONE|DICT|INTERRES
    85   44   45 1    
    86   44  100 1    
    87   45   46 1    
    88   45   47 1    
    89   45  101 1    
    90   46  102 1    
    91   46  103 1    
    92   46  104 1    
    93   47   48 2    
    94   47   49 am   BACKBONE|DICT|INTERRES
    95   49   50 1    
    96   49  105 1    
    97   50   51 1    
    98   50   52 1    
    99   50  106 1    
   100   51  107 1    
   101   51  108 1    
   102   51  109 1    
   103   52   53 2    
   104   52   54 am   BACKBONE|DICT|INTERRES
   105   54   55 1    
   106   54  110 1    
   107   55   56 1    
   108   55   59 1    
   109   55  111 1    
   110   56   57 am   BACKBONE|DICT|INTERRES
   111   56   58 2    
   112   57  112 1    
   113   57  113 1    
   114   59   60 1    
   115   59  114 1    
   116   59  115 1    
   117   60   61 1    
   118   61  116 1    
   119   61  117 1    
@<TRIPOS>SUBSTRUCTURE
     1 UNK         1 GROUP             0       ****    0 ROOT    
