@<TRIPOS>MOLECULE
3R8
117   119    1
SMALL
USER_CHARGES


@<TRIPOS>ATOM
      1 CA         14.7276  -24.2382  -46.0114 C.3       0 UNK        -0.2013 
      2 C          15.7134  -25.3311  -45.6281 C.2       0 UNK         0.4866 
      3 O          16.8927  -25.0463  -45.4163 O.2       0 UNK        -0.5176 
      4 N          15.2416  -26.5805  -45.5281 N.am      1 UNK        -0.4884 
      5 CA         16.0309  -27.7667  -45.1727 C.3       1 UNK         0.0853 
      6 C6         15.3777  -29.0667  -45.7146 C.3       10 UNK        -0.0849 
      7 S7         15.7805  -29.2951  -47.4787 S.3       10 UNK        -0.2776 
      8 C8         17.1733  -30.4736  -47.3826 C.3       10 UNK         0.0316 
      9 C9         18.2968  -29.9770  -46.4785 C.ar      10 UNK        -0.0863 
     10 C10        18.4529  -30.5075  -45.1930 C.ar      10 UNK        -0.1009 
     11 C11        19.4620  -30.0460  -44.3429 C.ar      10 UNK        -0.0712 
     12 C12        20.3450  -29.0681  -44.8146 C.ar      10 UNK        -0.0894 
     13 C13        20.1909  -28.5107  -46.0857 C.ar      10 UNK        -0.0745 
     14 C14        19.1670  -28.9744  -46.9175 C.ar      10 UNK        -0.0972 
     15 C15        21.1334  -27.4131  -46.5606 C.3       10 UNK         0.0209 
     16 S16        20.7740  -25.8101  -45.7663 S.3       10 UNK        -0.2568 
     17 C17        21.8196  -25.8694  -44.2684 C.3       10 UNK        -0.0983 
     18 CA         21.0802  -25.4474  -42.9715 C.3       3 UNK         0.0876 
     19 N          19.8263  -26.1845  -42.7562 N.am      3 UNK        -0.4424 
     20 C          18.8908  -25.8490  -41.8543 C.2       2 UNK         0.4918 
     21 O          18.9940  -24.8883  -41.0903 O.2       2 UNK        -0.4875 
     22 CA         17.6224  -26.7146  -41.8332 C.3       2 UNK         0.0481 
     23 CB         16.5206  -26.1569  -40.9091 C.3       2 UNK        -0.1831 
     24 N          17.1255  -26.8516  -43.1975 N.am      2 UNK        -0.4498 
     25 C          16.3284  -27.8188  -43.6593 C.2       1 UNK         0.5027 
     26 O          15.8414  -28.7032  -42.9523 O.2       1 UNK        -0.4969 
     27 C          22.0460  -25.5314  -41.7682 C.2       3 UNK         0.5005 
     28 O          22.8873  -24.6447  -41.6125 O.2       3 UNK        -0.5279 
     29 N          21.9307  -26.6006  -40.9622 N.am      4 UNK        -0.4463 
     30 CA         22.7003  -26.9492  -39.7571 C.3       4 UNK         0.0283 
     31 CB         22.5851  -25.8650  -38.6688 C.3       4 UNK        -0.1875 
     32 C          24.1688  -27.3128  -40.0327 C.2       4 UNK         0.4949 
     33 O          24.6253  -28.3632  -39.5818 O.2       4 UNK        -0.5039 
     34 N          24.8667  -26.4793  -40.8148 N.am      5 UNK        -0.4663 
     35 CA         26.2564  -26.6595  -41.2555 C.3       5 UNK         0.0242 
     36 CB         26.7074  -25.3956  -42.0049 C.3       5 UNK        -0.1982 
     37 C          26.4828  -27.9111  -42.1251 C.2       5 UNK         0.5017 
     38 O          27.6175  -28.3759  -42.2337 O.2       5 UNK        -0.5012 
     39 N          25.3976  -28.4454  -42.7020 N.am      6 UNK        -0.4439 
     40 CA         25.3518  -29.7153  -43.4268 C.3       6 UNK         0.0297 
     41 CB         24.0108  -29.8080  -44.1746 C.3       6 UNK        -0.2006 
     42 C          25.5356  -30.9527  -42.5258 C.2       6 UNK         0.4892 
     43 O          25.7831  -32.0337  -43.0603 O.2       6 UNK        -0.5089 
     44 N          25.3651  -30.7995  -41.2005 N.am      7 UNK        -0.4243 
     45 CA         25.4453  -31.8086  -40.1294 C.3       7 UNK         0.0196 
     46 CB         26.8352  -32.4715  -40.0776 C.3       7 UNK        -0.2007 
     47 C          24.3262  -32.8675  -40.1500 C.2       7 UNK         0.5020 
     48 O          23.8678  -33.2803  -39.0842 O.2       7 UNK        -0.5147 
     49 N          23.8694  -33.2567  -41.3469 N.am      8 UNK        -0.4734 
     50 CA         22.7778  -34.2021  -41.6082 C.3       8 UNK         0.0238 
     51 CB         22.6889  -34.4418  -43.1246 C.3       8 UNK        -0.1912 
     52 C          21.4059  -33.7692  -41.0566 C.2       8 UNK         0.5038 
     53 O          20.5150  -34.6119  -40.9421 O.2       8 UNK        -0.5046 
     54 N          21.2603  -32.4794  -40.7257 N.am      9 UNK        -0.4200 
     55 CA         20.0794  -31.8990  -40.0722 C.3       9 UNK         0.0839 
     56 C          19.8530  -32.3911  -38.6117 C.2       9 UNK         0.5513 
     57 N          20.8467  -32.9636  -37.9399 N.am      9 UNK        -0.7519 
     58 O          18.7551  -32.2462  -38.0811 O.2       9 UNK        -0.4960 
     59 C59        20.1038  -30.3463  -40.1099 C.3       10 UNK        -0.0876 
     60 S60        20.4331  -29.5630  -41.7291 S.3       10 UNK        -0.2414 
     61 C61        19.5693  -30.6337  -42.9350 C.3       10 UNK         0.0169 
     62 H62        14.6764  -23.4867  -45.2240 H         1 UNK         0.0903 
     63 H63        15.0506  -23.7482  -46.9296 H         1 UNK         0.0903 
     64 H64        13.7238  -24.6310  -46.1718 H         1 UNK         0.0903 
     65 H65        14.2599  -26.7493  -45.6972 H         1 UNK         0.3096 
     66 H66        17.0106  -27.6634  -45.6439 H         1 UNK         0.1121 
     67 H67        15.7087  -29.9540  -45.1732 H         1 UNK         0.0849 
     68 H68        14.2939  -29.0414  -45.5907 H         1 UNK         0.0849 
     69 H69        16.8008  -31.4391  -47.0365 H         1 UNK         0.0865 
     70 H70        17.5636  -30.6439  -48.3870 H         1 UNK         0.0865 
     71 H71        17.7751  -31.2751  -44.8446 H         1 UNK         0.1346 
     72 H72        21.1530  -28.7282  -44.1891 H         1 UNK         0.1412 
     73 H73        19.0384  -28.5505  -47.9044 H         1 UNK         0.1426 
     74 H74        22.1698  -27.7020  -46.3811 H         1 UNK         0.0716 
     75 H75        21.0429  -27.2852  -47.6403 H         1 UNK         0.0716 
     76 H76        22.2594  -26.8599  -44.1580 H         1 UNK         0.0695 
     77 H77        22.6633  -25.1992  -44.4456 H         1 UNK         0.0695 
     78 H78        20.8116  -24.3937  -43.0762 H         1 UNK         0.0983 
     79 H79        19.6529  -26.9662  -43.3719 H         1 UNK         0.3095 
     80 H80        17.9172  -27.6997  -41.4662 H         1 UNK         0.0454 
     81 H81        16.1808  -25.1745  -41.2385 H         1 UNK         0.0851 
     82 H82        15.6539  -26.8168  -40.8752 H         1 UNK         0.0851 
     83 H83        16.8832  -26.0531  -39.8857 H         1 UNK         0.0851 
     84 H84        17.4106  -26.1292  -43.8560 H         1 UNK         0.2976 
     85 H85        21.2280  -27.2822  -41.2193 H         1 UNK         0.3116 
     86 H86        22.2279  -27.8501  -39.3627 H         1 UNK         0.0646 
     87 H87        23.0698  -26.1883  -37.7466 H         1 UNK         0.0847 
     88 H88        21.5427  -25.6537  -38.4302 H         1 UNK         0.0847 
     89 H89        23.0557  -24.9283  -38.9684 H         1 UNK         0.0847 
     90 H90        24.3784  -25.6486  -41.1452 H         1 UNK         0.3040 
     91 H91        26.8752  -26.7739  -40.3629 H         1 UNK         0.1015 
     92 H92        26.6382  -24.5121  -41.3699 H         1 UNK         0.0786 
     93 H93        26.1019  -25.2172  -42.8947 H         1 UNK         0.0786 
     94 H94        27.7462  -25.4802  -42.3274 H         1 UNK         0.0786 
     95 H95        24.5189  -27.9731  -42.5525 H         1 UNK         0.3172 
     96 H96        26.1602  -29.7179  -44.1609 H         1 UNK         0.0595 
     97 H97        23.9621  -30.7152  -44.7787 H         1 UNK         0.0839 
     98 H98        23.8709  -28.9653  -44.8515 H         1 UNK         0.0839 
     99 H99        23.1667  -29.8351  -43.4845 H         1 UNK         0.0839 
    100 H100       25.1353  -29.8689  -40.8657 H         1 UNK         0.2998 
    101 H101       25.3174  -31.2493  -39.2009 H         1 UNK         0.0822 
    102 H102       27.6266  -31.7258  -40.0008 H         1 UNK         0.0787 
    103 H103       26.9203  -33.1258  -39.2089 H         1 UNK         0.0787 
    104 H104       27.0322  -33.0808  -40.9601 H         1 UNK         0.0787 
    105 H105       24.3650  -32.8927  -42.1568 H         1 UNK         0.3055 
    106 H106       23.0336  -35.1449  -41.1200 H         1 UNK         0.1106 
    107 H107       21.9102  -35.1680  -43.3625 H         1 UNK         0.0828 
    108 H108       22.4542  -33.5231  -43.6642 H         1 UNK         0.0828 
    109 H109       23.6259  -34.8337  -43.5208 H         1 UNK         0.0828 
    110 H110       22.0449  -31.8612  -40.8619 H         1 UNK         0.2931 
    111 H111       19.2080  -32.2330  -40.6378 H         1 UNK         0.0412 
    112 H112       20.6868  -33.2785  -36.9960 H         1 UNK         0.3472 
    113 H113       21.7583  -33.0820  -38.3634 H         1 UNK         0.3472 
    114 H114       20.8568  -29.9704  -39.4148 H         1 UNK         0.0970 
    115 H115       19.1501  -29.9547  -39.7505 H         1 UNK         0.0970 
    116 H116       20.0819  -31.5927  -43.0064 H         1 UNK         0.0612 
    117 H117       18.5664  -30.8325  -42.5536 H         1 UNK         0.0612 
@<TRIPOS>BOND
     1    1    2 1    
     2    1   62 1    
     3    1   63 1    
     4    1   64 1    
     5    2    3 2    
     6    2    4 am   BACKBONE|DICT|INTERRES
     7    4    5 1    
     8    4   65 1    
     9    5    6 1    
    10    5   25 1    
    11    5   66 1    
    12    6    7 1    
    13    6   67 1    
    14    6   68 1    
    15    7    8 1    
    16    8    9 1    
    17    8   69 1    
    18    8   70 1    
    19    9   10 ar   
    20    9   14 ar   
    21   10   11 ar   
    22   10   71 1    
    23   11   12 ar   
    24   11   61 1    
    25   12   13 ar   
    26   12   72 1    
    27   13   14 ar   
    28   13   15 1    
    29   14   73 1    
    30   15   16 1    
    31   15   74 1    
    32   15   75 1    
    33   16   17 1    
    34   17   18 1    
    35   17   76 1    
    36   17   77 1    
    37   18   19 1    
    38   18   27 1    
    39   18   78 1    
    40   19   20 am   BACKBONE|DICT|INTERRES
    41   19   79 1    
    42   20   21 2    
    43   20   22 1    
    44   22   23 1    
    45   22   24 1    
    46   22   80 1    
    47   23   81 1    
    48   23   82 1    
    49   23   83 1    
    50   24   25 am   BACKBONE|DICT|INTERRES
    51   24   84 1    
    52   25   26 2    
    53   27   28 2    
    54   27   29 am   BACKBONE|DICT|INTERRES
    55   29   30 1    
    56   29   85 1    
    57   30   31 1    
    58   30   32 1    
    59   30   86 1    
    60   31   87 1    
    61   31   88 1    
    62   31   89 1    
    63   32   33 2    
    64   32   34 am   BACKBONE|DICT|INTERRES
    65   34   35 1    
    66   34   90 1    
    67   35   36 1    
    68   35   37 1    
    69   35   91 1    
    70   36   92 1    
    71   36   93 1    
    72   36   94 1    
    73   37   38 2    
    74   37   39 am   BACKBONE|DICT|INTERRES
    75   39   40 1    
    76   39   95 1    
    77   40   41 1    
    78   40   42 1    
    79   40   96 1    
    80   41   97 1    
    81   41   98 1    
    82   41   99 1    
    83   42   43 2    
    84   42   44 am   BACKBONE|DICT|INTERRES
    85   44   45 1    
    86   44  100 1    
    87   45   46 1    
    88   45   47 1    
    89   45  101 1    
    90   46  102 1    
    91   46  103 1    
    92   46  104 1    
    93   47   48 2    
    94   47   49 am   BACKBONE|DICT|INTERRES
    95   49   50 1    
    96   49  105 1    
    97   50   51 1    
    98   50   52 1    
    99   50  106 1    
   100   51  107 1    
   101   51  108 1    
   102   51  109 1    
   103   52   53 2    
   104   52   54 am   BACKBONE|DICT|INTERRES
   105   54   55 1    
   106   54  110 1    
   107   55   56 1    
   108   55   59 1    
   109   55  111 1    
   110   56   57 am   BACKBONE|DICT|INTERRES
   111   56   58 2    
   112   57  112 1    
   113   57  113 1    
   114   59   60 1    
   115   59  114 1    
   116   59  115 1    
   117   60   61 1    
   118   61  116 1    
   119   61  117 1    
@<TRIPOS>SUBSTRUCTURE
     1 UNK         1 GROUP             0       ****    0 ROOT    
