@<TRIPOS>MOLECULE
3R8
117   119    1
SMALL
USER_CHARGES


@<TRIPOS>ATOM
      1 CA         16.2671  -23.9137  -48.4738 C.3       0 UNK        -0.2013 
      2 C          17.5953  -24.5550  -48.1006 C.2       0 UNK         0.4866 
      3 O          18.6439  -24.0991  -48.5567 O.2       0 UNK        -0.5176 
      4 N          17.5587  -25.6119  -47.2771 N.am      1 UNK        -0.4884 
      5 CA         18.7410  -26.3438  -46.8018 C.3       1 UNK         0.0853 
      6 C6         18.3366  -27.7105  -46.1864 C.3       10 UNK        -0.0849 
      7 S7         19.6984  -28.9271  -46.1548 S.3       10 UNK        -0.2776 
      8 C8         20.3483  -28.7460  -44.4609 C.3       10 UNK         0.0316 
      9 C9         19.5553  -29.5481  -43.4405 C.ar      10 UNK        -0.0863 
     10 C10        19.9407  -30.8558  -43.1346 C.ar      10 UNK        -0.1009 
     11 C11        19.2809  -31.5765  -42.1365 C.ar      10 UNK        -0.0712 
     12 C12        18.2167  -30.9852  -41.4497 C.ar      10 UNK        -0.0894 
     13 C13        17.8182  -29.6784  -41.7485 C.ar      10 UNK        -0.0745 
     14 C14        18.4829  -28.9700  -42.7539 C.ar      10 UNK        -0.0972 
     15 C15        16.6853  -29.0311  -40.9650 C.3       10 UNK         0.0209 
     16 S16        17.3114  -28.1367  -39.5031 S.3       10 UNK        -0.2568 
     17 C17        17.4946  -26.4305  -40.1266 C.3       10 UNK        -0.0983 
     18 CA         18.9042  -26.1217  -40.6968 C.3       3 UNK         0.0876 
     19 N          18.8151  -25.1864  -41.8300 N.am      3 UNK        -0.4424 
     20 C          19.7981  -24.9028  -42.6947 C.2       2 UNK         0.4918 
     21 O          20.9344  -25.3669  -42.6083 O.2       2 UNK        -0.4875 
     22 CA         19.4292  -23.9421  -43.8379 C.3       2 UNK         0.0481 
     23 CB         20.5896  -22.9961  -44.2134 C.3       2 UNK        -0.1831 
     24 N          18.9159  -24.6878  -44.9935 N.am      2 UNK        -0.4498 
     25 C          19.5902  -25.5124  -45.8135 C.2       1 UNK         0.5027 
     26 O          20.8140  -25.6448  -45.8172 O.2       1 UNK        -0.4969 
     27 C          19.9210  -25.7114  -39.6035 C.2       3 UNK         0.5005 
     28 O          20.3164  -26.5507  -38.7942 O.2       3 UNK        -0.5279 
     29 N          20.3892  -24.4546  -39.6311 N.am      4 UNK        -0.4463 
     30 CA         21.5452  -23.9782  -38.8643 C.3       4 UNK         0.0283 
     31 CB         21.6446  -22.4504  -39.0011 C.3       4 UNK        -0.1875 
     32 C          22.8755  -24.6413  -39.2835 C.2       4 UNK         0.4949 
     33 O          23.8114  -24.6584  -38.4843 O.2       4 UNK        -0.5039 
     34 N          22.9359  -25.1797  -40.5096 N.am      5 UNK        -0.4663 
     35 CA         24.0729  -25.9002  -41.0785 C.3       5 UNK         0.0242 
     36 CB         24.6256  -25.0936  -42.2687 C.3       5 UNK        -0.1982 
     37 C          23.6469  -27.3248  -41.4772 C.2       5 UNK         0.5017 
     38 O          24.0183  -27.8021  -42.5518 O.2       5 UNK        -0.5012 
     39 N          22.8765  -27.9927  -40.6050 N.am      6 UNK        -0.4439 
     40 CA         22.3830  -29.3660  -40.7671 C.3       6 UNK         0.0297 
     41 CB         21.2010  -29.5945  -39.8075 C.3       6 UNK        -0.2006 
     42 C          23.4858  -30.4341  -40.6015 C.2       6 UNK         0.4892 
     43 O          23.4018  -31.2819  -39.7117 O.2       6 UNK        -0.5089 
     44 N          24.5085  -30.3671  -41.4612 N.am      7 UNK        -0.4243 
     45 CA         25.6395  -31.2980  -41.5101 C.3       7 UNK         0.0196 
     46 CB         26.8523  -30.5636  -42.1059 C.3       7 UNK        -0.2007 
     47 C          25.3381  -32.5789  -42.3117 C.2       7 UNK         0.5020 
     48 O          26.1109  -33.5342  -42.2249 O.2       7 UNK        -0.5147 
     49 N          24.2506  -32.5718  -43.0943 N.am      8 UNK        -0.4734 
     50 CA         23.7869  -33.6928  -43.9158 C.3       8 UNK         0.0238 
     51 CB         23.1069  -33.1251  -45.1799 C.3       8 UNK        -0.1912 
     52 C          22.8782  -34.6496  -43.1129 C.2       8 UNK         0.5038 
     53 O          22.9974  -34.7327  -41.8888 O.2       8 UNK        -0.5046 
     54 N          21.9863  -35.3573  -43.8198 N.am      9 UNK        -0.4200 
     55 CA         21.0092  -36.3271  -43.2870 C.3       9 UNK         0.0839 
     56 C          21.6340  -37.6565  -42.7628 C.2       9 UNK         0.5513 
     57 N          22.8813  -37.9755  -43.0878 N.am      9 UNK        -0.7519 
     58 O          20.9705  -38.4305  -42.0771 O.2       9 UNK        -0.4960 
     59 C59        19.9935  -35.7107  -42.2782 C.3       10 UNK        -0.0876 
     60 S60        19.1373  -34.2283  -42.9166 S.3       10 UNK        -0.2414 
     61 C61        19.7608  -32.9688  -41.7638 C.3       10 UNK         0.0169 
     62 H62        16.1252  -23.9468  -49.5537 H         1 UNK         0.0903 
     63 H63        15.4226  -24.4192  -48.0058 H         1 UNK         0.0903 
     64 H64        16.2534  -22.8701  -48.1604 H         1 UNK         0.0903 
     65 H65        16.6646  -25.9510  -46.9496 H         1 UNK         0.3096 
     66 H66        19.3684  -26.5365  -47.6757 H         1 UNK         0.1121 
     67 H67        17.9004  -27.5900  -45.1951 H         1 UNK         0.0849 
     68 H68        17.5499  -28.1628  -46.7925 H         1 UNK         0.0849 
     69 H69        21.3886  -29.0757  -44.4552 H         1 UNK         0.0865 
     70 H70        20.3790  -27.6978  -44.1658 H         1 UNK         0.0865 
     71 H71        20.7737  -31.3056  -43.6547 H         1 UNK         0.1346 
     72 H72        17.7132  -31.5336  -40.6652 H         1 UNK         0.1412 
     73 H73        18.1845  -27.9554  -42.9744 H         1 UNK         0.1426 
     74 H74        16.1053  -28.3677  -41.6078 H         1 UNK         0.0716 
     75 H75        15.9890  -29.8000  -40.6266 H         1 UNK         0.0716 
     76 H76        17.2375  -25.7370  -39.3236 H         1 UNK         0.0695 
     77 H77        16.7280  -26.2766  -40.8874 H         1 UNK         0.0695 
     78 H78        19.3160  -27.0415  -41.1113 H         1 UNK         0.0983 
     79 H79        17.9157  -24.7474  -41.9668 H         1 UNK         0.3095 
     80 H80        18.6068  -23.3132  -43.4935 H         1 UNK         0.0454 
     81 H81        20.8590  -22.3628  -43.3676 H         1 UNK         0.0851 
     82 H82        20.3139  -22.3381  -45.0372 H         1 UNK         0.0851 
     83 H83        21.4911  -23.5359  -44.5039 H         1 UNK         0.0851 
     84 H84        17.9137  -24.6506  -45.1175 H         1 UNK         0.2976 
     85 H85        20.0044  -23.8196  -40.3148 H         1 UNK         0.3116 
     86 H86        21.3752  -24.2191  -37.8128 H         1 UNK         0.0646 
     87 H87        20.7408  -21.9583  -38.6414 H         1 UNK         0.0847 
     88 H88        22.4776  -22.0603  -38.4145 H         1 UNK         0.0847 
     89 H89        21.8061  -22.1462  -40.0361 H         1 UNK         0.0847 
     90 H90        22.1138  -25.1468  -41.1078 H         1 UNK         0.3040 
     91 H91        24.8695  -26.0086  -40.3395 H         1 UNK         0.1015 
     92 H92        24.9259  -24.0916  -41.9623 H         1 UNK         0.0786 
     93 H93        23.8837  -24.9933  -43.0626 H         1 UNK         0.0786 
     94 H94        25.5039  -25.5770  -42.6983 H         1 UNK         0.0786 
     95 H95        22.6124  -27.5217  -39.7502 H         1 UNK         0.3172 
     96 H96        22.0023  -29.4662  -41.7842 H         1 UNK         0.0595 
     97 H97        21.4757  -29.4017  -38.7700 H         1 UNK         0.0839 
     98 H98        20.8385  -30.6214  -39.8630 H         1 UNK         0.0839 
     99 H99        20.3580  -28.9524  -40.0581 H         1 UNK         0.0839 
    100 H100       24.5105  -29.5946  -42.1231 H         1 UNK         0.2998 
    101 H101       25.8915  -31.6033  -40.4921 H         1 UNK         0.0822 
    102 H102       27.1160  -29.6877  -41.5127 H         1 UNK         0.0787 
    103 H103       27.7293  -31.2119  -42.1316 H         1 UNK         0.0787 
    104 H104       26.6610  -30.2320  -43.1273 H         1 UNK         0.0787 
    105 H105       23.6648  -31.7511  -43.0725 H         1 UNK         0.3055 
    106 H106       24.6533  -34.2763  -44.2355 H         1 UNK         0.1106 
    107 H107       23.7363  -32.3790  -45.6657 H         1 UNK         0.0828 
    108 H108       22.9243  -33.9042  -45.9207 H         1 UNK         0.0828 
    109 H109       22.1502  -32.6545  -44.9535 H         1 UNK         0.0828 
    110 H110       21.9613  -35.2319  -44.8209 H         1 UNK         0.2931 
    111 H111       20.4291  -36.6339  -44.1581 H         1 UNK         0.0412 
    112 H112       23.4355  -37.3593  -43.6602 H         1 UNK         0.3472 
    113 H113       23.2724  -38.8424  -42.7531 H         1 UNK         0.3472 
    114 H114       20.4886  -35.4791  -41.3338 H         1 UNK         0.0970 
    115 H115       19.2211  -36.4412  -42.0311 H         1 UNK         0.0970 
    116 H116       19.4445  -33.2219  -40.7507 H         1 UNK         0.0612 
    117 H117       20.8511  -32.9822  -41.7562 H         1 UNK         0.0612 
@<TRIPOS>BOND
     1    1    2 1    
     2    1   62 1    
     3    1   63 1    
     4    1   64 1    
     5    2    3 2    
     6    2    4 am   BACKBONE|DICT|INTERRES
     7    4    5 1    
     8    4   65 1    
     9    5    6 1    
    10    5   25 1    
    11    5   66 1    
    12    6    7 1    
    13    6   67 1    
    14    6   68 1    
    15    7    8 1    
    16    8    9 1    
    17    8   69 1    
    18    8   70 1    
    19    9   10 ar   
    20    9   14 ar   
    21   10   11 ar   
    22   10   71 1    
    23   11   12 ar   
    24   11   61 1    
    25   12   13 ar   
    26   12   72 1    
    27   13   14 ar   
    28   13   15 1    
    29   14   73 1    
    30   15   16 1    
    31   15   74 1    
    32   15   75 1    
    33   16   17 1    
    34   17   18 1    
    35   17   76 1    
    36   17   77 1    
    37   18   19 1    
    38   18   27 1    
    39   18   78 1    
    40   19   20 am   BACKBONE|DICT|INTERRES
    41   19   79 1    
    42   20   21 2    
    43   20   22 1    
    44   22   23 1    
    45   22   24 1    
    46   22   80 1    
    47   23   81 1    
    48   23   82 1    
    49   23   83 1    
    50   24   25 am   BACKBONE|DICT|INTERRES
    51   24   84 1    
    52   25   26 2    
    53   27   28 2    
    54   27   29 am   BACKBONE|DICT|INTERRES
    55   29   30 1    
    56   29   85 1    
    57   30   31 1    
    58   30   32 1    
    59   30   86 1    
    60   31   87 1    
    61   31   88 1    
    62   31   89 1    
    63   32   33 2    
    64   32   34 am   BACKBONE|DICT|INTERRES
    65   34   35 1    
    66   34   90 1    
    67   35   36 1    
    68   35   37 1    
    69   35   91 1    
    70   36   92 1    
    71   36   93 1    
    72   36   94 1    
    73   37   38 2    
    74   37   39 am   BACKBONE|DICT|INTERRES
    75   39   40 1    
    76   39   95 1    
    77   40   41 1    
    78   40   42 1    
    79   40   96 1    
    80   41   97 1    
    81   41   98 1    
    82   41   99 1    
    83   42   43 2    
    84   42   44 am   BACKBONE|DICT|INTERRES
    85   44   45 1    
    86   44  100 1    
    87   45   46 1    
    88   45   47 1    
    89   45  101 1    
    90   46  102 1    
    91   46  103 1    
    92   46  104 1    
    93   47   48 2    
    94   47   49 am   BACKBONE|DICT|INTERRES
    95   49   50 1    
    96   49  105 1    
    97   50   51 1    
    98   50   52 1    
    99   50  106 1    
   100   51  107 1    
   101   51  108 1    
   102   51  109 1    
   103   52   53 2    
   104   52   54 am   BACKBONE|DICT|INTERRES
   105   54   55 1    
   106   54  110 1    
   107   55   56 1    
   108   55   59 1    
   109   55  111 1    
   110   56   57 am   BACKBONE|DICT|INTERRES
   111   56   58 2    
   112   57  112 1    
   113   57  113 1    
   114   59   60 1    
   115   59  114 1    
   116   59  115 1    
   117   60   61 1    
   118   61  116 1    
   119   61  117 1    
@<TRIPOS>SUBSTRUCTURE
     1 UNK         1 GROUP             0       ****    0 ROOT    
