@<TRIPOS>MOLECULE
3R8
117   119    1
SMALL
USER_CHARGES


@<TRIPOS>ATOM
      1 CA         20.1477  -25.2352  -50.4229 C.3       0 UNK        -0.2013 
      2 C          20.6973  -25.5156  -49.0321 C.2       0 UNK         0.4866 
      3 O          21.8033  -25.0792  -48.7105 O.2       0 UNK        -0.5176 
      4 N          19.9386  -26.2477  -48.2077 N.am      1 UNK        -0.4884 
      5 CA         20.2690  -26.5485  -46.8115 C.3       1 UNK         0.0853 
      6 C6         19.4892  -27.7934  -46.3005 C.3       10 UNK        -0.0849 
      7 S7         17.6720  -27.5918  -46.3366 S.3       10 UNK        -0.2776 
      8 C8         17.0899  -29.3077  -46.1513 C.3       10 UNK         0.0316 
      9 C9         17.1088  -29.7995  -44.7075 C.ar      10 UNK        -0.0863 
     10 C10        17.7306  -31.0115  -44.3881 C.ar      10 UNK        -0.1009 
     11 C11        17.6633  -31.5242  -43.0887 C.ar      10 UNK        -0.0712 
     12 C12        16.9894  -30.8038  -42.0989 C.ar      10 UNK        -0.0894 
     13 C13        16.3805  -29.5815  -42.3977 C.ar      10 UNK        -0.0745 
     14 C14        16.4369  -29.0885  -43.7054 C.ar      10 UNK        -0.0972 
     15 C15        15.6414  -28.8127  -41.3101 C.3       10 UNK         0.0209 
     16 S16        16.7671  -28.2077  -40.0105 S.3       10 UNK        -0.2568 
     17 C17        17.6571  -26.8662  -40.8698 C.3       10 UNK        -0.0983 
     18 CA         18.9613  -27.3370  -41.5739 C.3       3 UNK         0.0876 
     19 N          19.4034  -26.3849  -42.5956 N.am      3 UNK        -0.4424 
     20 C          19.9390  -25.1725  -42.3817 C.2       2 UNK         0.4918 
     21 O          20.0631  -24.6712  -41.2635 O.2       2 UNK        -0.4875 
     22 CA         20.4506  -24.4092  -43.6191 C.3       2 UNK         0.0481 
     23 CB         21.7367  -23.6190  -43.3153 C.3       2 UNK        -0.1831 
     24 N          20.6953  -25.3333  -44.7327 N.am      2 UNK        -0.4498 
     25 C          20.0421  -25.3200  -45.9008 C.2       1 UNK         0.5027 
     26 O          19.2522  -24.4326  -46.2366 O.2       1 UNK        -0.4969 
     27 C          20.1377  -27.7084  -40.6425 C.2       3 UNK         0.5005 
     28 O          21.2298  -27.9820  -41.1463 O.2       3 UNK        -0.5279 
     29 N          19.9287  -27.6793  -39.3201 N.am      4 UNK        -0.4463 
     30 CA         20.9153  -28.0076  -38.2849 C.3       4 UNK         0.0283 
     31 CB         20.2401  -27.9262  -36.9066 C.3       4 UNK        -0.1875 
     32 C          22.1981  -27.1526  -38.3043 C.2       4 UNK         0.4949 
     33 O          23.2174  -27.6043  -37.7832 O.2       4 UNK        -0.5039 
     34 N          22.1459  -25.9553  -38.9083 N.am      5 UNK        -0.4663 
     35 CA         23.3163  -25.0977  -39.1197 C.3       5 UNK         0.0242 
     36 CB         22.8581  -23.6615  -39.4168 C.3       5 UNK        -0.1982 
     37 C          24.2483  -25.6162  -40.2314 C.2       5 UNK         0.5017 
     38 O          25.4418  -25.3156  -40.1921 O.2       5 UNK        -0.5012 
     39 N          23.7025  -26.3846  -41.1855 N.am      6 UNK        -0.4439 
     40 CA         24.4667  -27.0982  -42.2117 C.3       6 UNK         0.0297 
     41 CB         23.6940  -27.0938  -43.5416 C.3       6 UNK        -0.2006 
     42 C          24.7585  -28.5390  -41.7671 C.2       6 UNK         0.4892 
     43 O          25.8769  -29.0149  -41.9668 O.2       6 UNK        -0.5089 
     44 N          23.7494  -29.1894  -41.1675 N.am      7 UNK        -0.4243 
     45 CA         23.7276  -30.5806  -40.7120 C.3       7 UNK         0.0196 
     46 CB         24.7130  -30.7923  -39.5395 C.3       7 UNK        -0.2007 
     47 C          23.9000  -31.5683  -41.8842 C.2       7 UNK         0.5020 
     48 O          23.3781  -31.3104  -42.9705 O.2       7 UNK        -0.5147 
     49 N          24.5888  -32.6932  -41.6358 N.am      8 UNK        -0.4734 
     50 CA         24.8341  -33.8087  -42.5655 C.3       8 UNK         0.0238 
     51 CB         25.7142  -33.3575  -43.7518 C.3       8 UNK        -0.1912 
     52 C          23.5471  -34.5328  -43.0178 C.2       8 UNK         0.5038 
     53 O          23.5156  -35.1066  -44.1082 O.2       8 UNK        -0.5046 
     54 N          22.5163  -34.5044  -42.1630 N.am      9 UNK        -0.4200 
     55 CA         21.2118  -35.1502  -42.3767 C.3       9 UNK         0.0839 
     56 C          21.2257  -36.7007  -42.2317 C.2       9 UNK         0.5513 
     57 N          22.2822  -37.3165  -41.7141 N.am      9 UNK        -0.7519 
     58 O          20.2563  -37.3579  -42.6020 O.2       9 UNK        -0.4960 
     59 C59        20.1183  -34.5209  -41.4739 C.3       10 UNK        -0.0876 
     60 S60        19.8210  -32.7556  -41.8411 S.3       10 UNK        -0.2414 
     61 C61        18.2580  -32.8858  -42.7625 C.3       10 UNK         0.0169 
     62 H62        20.0449  -24.1611  -50.5756 H         1 UNK         0.0903 
     63 H63        20.8273  -25.6241  -51.1808 H         1 UNK         0.0903 
     64 H64        19.1711  -25.6943  -50.5756 H         1 UNK         0.0903 
     65 H65        19.0194  -26.5461  -48.5032 H         1 UNK         0.3096 
     66 H66        21.3349  -26.7868  -46.7720 H         1 UNK         0.1121 
     67 H67        19.7936  -28.0594  -45.2868 H         1 UNK         0.0849 
     68 H68        19.7532  -28.6552  -46.9158 H         1 UNK         0.0849 
     69 H69        16.0632  -29.3632  -46.5155 H         1 UNK         0.0865 
     70 H70        17.6746  -29.9614  -46.8005 H         1 UNK         0.0865 
     71 H71        18.2358  -31.5775  -45.1591 H         1 UNK         0.1346 
     72 H72        16.9337  -31.1983  -41.0932 H         1 UNK         0.1412 
     73 H73        15.9463  -28.1561  -43.9503 H         1 UNK         0.1426 
     74 H74        14.9026  -29.4723  -40.8528 H         1 UNK         0.0716 
     75 H75        15.0824  -27.9744  -41.7288 H         1 UNK         0.0716 
     76 H76        16.9773  -26.4367  -41.6074 H         1 UNK         0.0695 
     77 H77        17.8591  -26.0590  -40.1634 H         1 UNK         0.0695 
     78 H78        18.7411  -28.2544  -42.1196 H         1 UNK         0.0983 
     79 H79        19.3263  -26.7054  -43.5480 H         1 UNK         0.3095 
     80 H80        19.6709  -23.6916  -43.8810 H         1 UNK         0.0454 
     81 H81        22.5194  -24.2544  -42.9020 H         1 UNK         0.0851 
     82 H82        22.1298  -23.1394  -44.2116 H         1 UNK         0.0851 
     83 H83        21.5438  -22.8289  -42.5887 H         1 UNK         0.0851 
     84 H84        21.3405  -26.0871  -44.5449 H         1 UNK         0.2976 
     85 H85        18.9943  -27.4582  -39.0022 H         1 UNK         0.3116 
     86 H86        21.2228  -29.0420  -38.4526 H         1 UNK         0.0646 
     87 H87        20.9371  -28.1987  -36.1127 H         1 UNK         0.0847 
     88 H88        19.3926  -28.6085  -36.8369 H         1 UNK         0.0847 
     89 H89        19.8809  -26.9189  -36.6924 H         1 UNK         0.0847 
     90 H90        21.2723  -25.6504  -39.3182 H         1 UNK         0.3040 
     91 H91        23.8975  -25.0789  -38.1946 H         1 UNK         0.1015 
     92 H92        22.2373  -23.2675  -38.6120 H         1 UNK         0.0786 
     93 H93        22.2863  -23.6016  -40.3417 H         1 UNK         0.0786 
     94 H94        23.7144  -22.9938  -39.5216 H         1 UNK         0.0786 
     95 H95        22.7234  -26.6356  -41.0966 H         1 UNK         0.3172 
     96 H96        25.4232  -26.5991  -42.3816 H         1 UNK         0.0595 
     97 H97        23.5911  -26.0836  -43.9351 H         1 UNK         0.0839 
     98 H98        22.6994  -27.5280  -43.4353 H         1 UNK         0.0839 
     99 H99        24.2222  -27.6771  -44.2975 H         1 UNK         0.0839 
    100 H100       22.8452  -28.7208  -41.1319 H         1 UNK         0.2998 
    101 H101       22.7194  -30.7470  -40.3290 H         1 UNK         0.0822 
    102 H102       24.5703  -30.0330  -38.7699 H         1 UNK         0.0787 
    103 H103       24.5606  -31.7589  -39.0582 H         1 UNK         0.0787 
    104 H104       25.7529  -30.7395  -39.8641 H         1 UNK         0.0787 
    105 H105       24.9792  -32.8042  -40.7096 H         1 UNK         0.3055 
    106 H106       25.4044  -34.5514  -42.0051 H         1 UNK         0.1106 
    107 H107       26.0273  -34.2108  -44.3547 H         1 UNK         0.0828 
    108 H108       25.1836  -32.6720  -44.4133 H         1 UNK         0.0828 
    109 H109       26.6193  -32.8575  -43.4072 H         1 UNK         0.0828 
    110 H110       22.6276  -34.0021  -41.2957 H         1 UNK         0.2931 
    111 H111       20.9252  -34.9577  -43.4127 H         1 UNK         0.0412 
    112 H112       23.0831  -36.7897  -41.4049 H         1 UNK         0.3472 
    113 H113       22.2762  -38.3213  -41.6307 H         1 UNK         0.3472 
    114 H114       20.3980  -34.6107  -40.4228 H         1 UNK         0.0970 
    115 H115       19.1768  -35.0651  -41.5720 H         1 UNK         0.0970 
    116 H116       18.4301  -33.4589  -43.6750 H         1 UNK         0.0612 
    117 H117       17.5361  -33.4537  -42.1733 H         1 UNK         0.0612 
@<TRIPOS>BOND
     1    1    2 1    
     2    1   62 1    
     3    1   63 1    
     4    1   64 1    
     5    2    3 2    
     6    2    4 am   BACKBONE|DICT|INTERRES
     7    4    5 1    
     8    4   65 1    
     9    5    6 1    
    10    5   25 1    
    11    5   66 1    
    12    6    7 1    
    13    6   67 1    
    14    6   68 1    
    15    7    8 1    
    16    8    9 1    
    17    8   69 1    
    18    8   70 1    
    19    9   10 ar   
    20    9   14 ar   
    21   10   11 ar   
    22   10   71 1    
    23   11   12 ar   
    24   11   61 1    
    25   12   13 ar   
    26   12   72 1    
    27   13   14 ar   
    28   13   15 1    
    29   14   73 1    
    30   15   16 1    
    31   15   74 1    
    32   15   75 1    
    33   16   17 1    
    34   17   18 1    
    35   17   76 1    
    36   17   77 1    
    37   18   19 1    
    38   18   27 1    
    39   18   78 1    
    40   19   20 am   BACKBONE|DICT|INTERRES
    41   19   79 1    
    42   20   21 2    
    43   20   22 1    
    44   22   23 1    
    45   22   24 1    
    46   22   80 1    
    47   23   81 1    
    48   23   82 1    
    49   23   83 1    
    50   24   25 am   BACKBONE|DICT|INTERRES
    51   24   84 1    
    52   25   26 2    
    53   27   28 2    
    54   27   29 am   BACKBONE|DICT|INTERRES
    55   29   30 1    
    56   29   85 1    
    57   30   31 1    
    58   30   32 1    
    59   30   86 1    
    60   31   87 1    
    61   31   88 1    
    62   31   89 1    
    63   32   33 2    
    64   32   34 am   BACKBONE|DICT|INTERRES
    65   34   35 1    
    66   34   90 1    
    67   35   36 1    
    68   35   37 1    
    69   35   91 1    
    70   36   92 1    
    71   36   93 1    
    72   36   94 1    
    73   37   38 2    
    74   37   39 am   BACKBONE|DICT|INTERRES
    75   39   40 1    
    76   39   95 1    
    77   40   41 1    
    78   40   42 1    
    79   40   96 1    
    80   41   97 1    
    81   41   98 1    
    82   41   99 1    
    83   42   43 2    
    84   42   44 am   BACKBONE|DICT|INTERRES
    85   44   45 1    
    86   44  100 1    
    87   45   46 1    
    88   45   47 1    
    89   45  101 1    
    90   46  102 1    
    91   46  103 1    
    92   46  104 1    
    93   47   48 2    
    94   47   49 am   BACKBONE|DICT|INTERRES
    95   49   50 1    
    96   49  105 1    
    97   50   51 1    
    98   50   52 1    
    99   50  106 1    
   100   51  107 1    
   101   51  108 1    
   102   51  109 1    
   103   52   53 2    
   104   52   54 am   BACKBONE|DICT|INTERRES
   105   54   55 1    
   106   54  110 1    
   107   55   56 1    
   108   55   59 1    
   109   55  111 1    
   110   56   57 am   BACKBONE|DICT|INTERRES
   111   56   58 2    
   112   57  112 1    
   113   57  113 1    
   114   59   60 1    
   115   59  114 1    
   116   59  115 1    
   117   60   61 1    
   118   61  116 1    
   119   61  117 1    
@<TRIPOS>SUBSTRUCTURE
     1 UNK         1 GROUP             0       ****    0 ROOT    
