@<TRIPOS>MOLECULE
3R8
117   119    1
SMALL
USER_CHARGES


@<TRIPOS>ATOM
      1 CA         14.4534  -23.5842  -45.4856 C.3       0 UNK        -0.2013 
      2 C          15.6298  -24.5479  -45.4963 C.2       0 UNK         0.4866 
      3 O          16.4505  -24.5064  -46.4142 O.2       0 UNK        -0.5176 
      4 N          15.7287  -25.4144  -44.4805 N.am      1 UNK        -0.4884 
      5 CA         16.7826  -26.4237  -44.3226 C.3       1 UNK         0.0853 
      6 C6         16.3241  -27.6078  -43.4331 C.3       10 UNK        -0.0849 
      7 S7         14.8585  -28.4935  -44.0700 S.3       10 UNK        -0.2776 
      8 C8         15.4354  -29.1706  -45.6687 C.3       10 UNK         0.0316 
      9 C9         16.7844  -29.8809  -45.5941 C.ar      10 UNK        -0.0863 
     10 C10        17.0291  -30.8521  -44.6167 C.ar      10 UNK        -0.1009 
     11 C11        18.2725  -31.4846  -44.5377 C.ar      10 UNK        -0.0712 
     12 C12        19.2639  -31.1707  -45.4707 C.ar      10 UNK        -0.0894 
     13 C13        19.0338  -30.2044  -46.4562 C.ar      10 UNK        -0.0745 
     14 C14        17.7918  -29.5648  -46.5132 C.ar      10 UNK        -0.0972 
     15 C15        20.1304  -29.8512  -47.4557 C.3       10 UNK         0.0209 
     16 S16        20.9646  -28.2751  -47.0635 S.3       10 UNK        -0.2568 
     17 C17        21.7053  -28.6527  -45.4373 C.3       10 UNK        -0.0983 
     18 CA         22.0555  -27.4228  -44.5561 C.3       3 UNK         0.0876 
     19 N          21.0647  -26.3513  -44.6700 N.am      3 UNK        -0.4424 
     20 C          21.1610  -25.1215  -44.1485 C.2       2 UNK         0.4918 
     21 O          22.1413  -24.7178  -43.5228 O.2       2 UNK        -0.4875 
     22 CA         19.9443  -24.1923  -44.3347 C.3       2 UNK         0.0481 
     23 CB         20.2111  -23.1810  -45.4602 C.3       2 UNK        -0.1831 
     24 N          18.6824  -24.8934  -44.6093 N.am      2 UNK        -0.4498 
     25 C          18.0939  -25.7923  -43.8076 C.2       1 UNK         0.5027 
     26 O          18.5619  -26.1308  -42.7192 O.2       1 UNK        -0.4969 
     27 C          22.2445  -27.9197  -43.1069 C.2       3 UNK         0.5005 
     28 O          23.2882  -28.5012  -42.8130 O.2       3 UNK        -0.5279 
     29 N          21.2249  -27.7452  -42.2493 N.am      4 UNK        -0.4463 
     30 CA         21.0635  -28.3954  -40.9424 C.3       4 UNK         0.0283 
     31 CB         19.7530  -27.9147  -40.3008 C.3       4 UNK        -0.1875 
     32 C          22.2289  -28.2551  -39.9493 C.2       4 UNK         0.4949 
     33 O          22.3716  -29.1203  -39.0861 O.2       4 UNK        -0.5039 
     34 N          23.0406  -27.2007  -40.0891 N.am      5 UNK        -0.4663 
     35 CA         24.2429  -26.9733  -39.2847 C.3       5 UNK         0.0242 
     36 CB         24.5427  -25.4653  -39.2641 C.3       5 UNK        -0.1982 
     37 C          25.4766  -27.7541  -39.7793 C.2       5 UNK         0.5017 
     38 O          26.4202  -27.9119  -39.0039 O.2       5 UNK        -0.5012 
     39 N          25.4726  -28.1969  -41.0448 N.am      6 UNK        -0.4439 
     40 CA         26.6084  -28.8389  -41.7168 C.3       6 UNK         0.0297 
     41 CB         26.9722  -28.0212  -42.9673 C.3       6 UNK        -0.2006 
     42 C          26.3207  -30.2968  -42.1078 C.2       6 UNK         0.4892 
     43 O          27.2449  -31.1101  -42.0910 O.2       6 UNK        -0.5089 
     44 N          25.0624  -30.5969  -42.4584 N.am      7 UNK        -0.4243 
     45 CA         24.5599  -31.9145  -42.8572 C.3       7 UNK         0.0196 
     46 CB         23.0702  -31.8181  -43.2372 C.3       7 UNK        -0.2007 
     47 C          24.8275  -33.0764  -41.8717 C.2       7 UNK         0.5020 
     48 O          25.2551  -34.1312  -42.3363 O.2       7 UNK        -0.5147 
     49 N          24.6193  -32.9533  -40.5517 N.am      8 UNK        -0.4734 
     50 CA         23.9728  -31.8797  -39.8004 C.3       8 UNK         0.0238 
     51 CB         24.9434  -31.3706  -38.7182 C.3       8 UNK        -0.1912 
     52 C          22.6865  -32.4539  -39.1971 C.2       8 UNK         0.5038 
     53 O          22.7220  -33.0306  -38.1085 O.2       8 UNK        -0.5046 
     54 N          21.5868  -32.3352  -39.9492 N.am      9 UNK        -0.4200 
     55 CA         20.2441  -32.7935  -39.5669 C.3       9 UNK         0.0839 
     56 C          19.5192  -31.9130  -38.5054 C.2       9 UNK         0.5513 
     57 N          20.0690  -30.7836  -38.0745 N.am      9 UNK        -0.7519 
     58 O          18.4405  -32.2778  -38.0446 O.2       9 UNK        -0.4960 
     59 C59        19.3654  -33.0787  -40.8156 C.3       10 UNK        -0.0876 
     60 S60        19.1934  -31.6570  -41.9486 S.3       10 UNK        -0.2414 
     61 C61        18.5510  -32.4903  -43.4322 C.3       10 UNK         0.0169 
     62 H62        13.8088  -23.7367  -44.6201 H         1 UNK         0.0903 
     63 H63        14.8117  -22.5553  -45.4654 H         1 UNK         0.0903 
     64 H64        13.8516  -23.7180  -46.3841 H         1 UNK         0.0903 
     65 H65        15.0332  -25.3991  -43.7476 H         1 UNK         0.3096 
     66 H66        17.0184  -26.8291  -45.3084 H         1 UNK         0.1121 
     67 H67        17.1326  -28.3305  -43.3061 H         1 UNK         0.0849 
     68 H68        16.0871  -27.2549  -42.4276 H         1 UNK         0.0849 
     69 H69        14.6900  -29.8765  -46.0372 H         1 UNK         0.0865 
     70 H70        15.4656  -28.3585  -46.3968 H         1 UNK         0.0865 
     71 H71        16.2590  -31.0958  -43.8974 H         1 UNK         0.1346 
     72 H72        20.2260  -31.6612  -45.4121 H         1 UNK         0.1412 
     73 H73        17.6158  -28.8171  -47.2748 H         1 UNK         0.1426 
     74 H74        19.6988  -29.7809  -48.4552 H         1 UNK         0.0716 
     75 H75        20.8765  -30.6461  -47.5036 H         1 UNK         0.0716 
     76 H76        21.0091  -29.2956  -44.9006 H         1 UNK         0.0695 
     77 H77        22.5988  -29.2568  -45.6046 H         1 UNK         0.0695 
     78 H78        23.0122  -27.0168  -44.8913 H         1 UNK         0.0983 
     79 H79        20.2419  -26.5788  -45.2083 H         1 UNK         0.3095 
     80 H80        19.8141  -23.6399  -43.4021 H         1 UNK         0.0454 
     81 H81        21.1265  -22.6181  -45.2719 H         1 UNK         0.0851 
     82 H82        20.3242  -23.6737  -46.4267 H         1 UNK         0.0851 
     83 H83        19.4003  -22.4572  -45.5450 H         1 UNK         0.0851 
     84 H84        18.1913  -24.6475  -45.4645 H         1 UNK         0.2976 
     85 H85        20.4193  -27.2220  -42.5747 H         1 UNK         0.3116 
     86 H86        20.9655  -29.4630  -41.1402 H         1 UNK         0.0646 
     87 H87        19.6088  -28.3484  -39.3113 H         1 UNK         0.0847 
     88 H88        18.8907  -28.2025  -40.9027 H         1 UNK         0.0847 
     89 H89        19.7360  -26.8304  -40.1855 H         1 UNK         0.0847 
     90 H90        22.8462  -26.5408  -40.8292 H         1 UNK         0.3040 
     91 H91        24.0477  -27.2951  -38.2588 H         1 UNK         0.1015 
     92 H92        24.7448  -25.0797  -40.2644 H         1 UNK         0.0786 
     93 H93        25.4167  -25.2484  -38.6482 H         1 UNK         0.0786 
     94 H94        23.7080  -24.9006  -38.8482 H         1 UNK         0.0786 
     95 H95        24.6283  -28.0783  -41.5999 H         1 UNK         0.3172 
     96 H96        27.4809  -28.8499  -41.0604 H         1 UNK         0.0595 
     97 H97        27.8172  -28.4666  -43.4944 H         1 UNK         0.0839 
     98 H98        27.2563  -27.0022  -42.7042 H         1 UNK         0.0839 
     99 H99        26.1400  -27.9657  -43.6706 H         1 UNK         0.0839 
    100 H100       24.3904  -29.8336  -42.5144 H         1 UNK         0.2998 
    101 H101       25.1010  -32.1717  -43.7702 H         1 UNK         0.0822 
    102 H102       22.4754  -31.3346  -42.4645 H         1 UNK         0.0787 
    103 H103       22.9407  -31.2414  -44.1526 H         1 UNK         0.0787 
    104 H104       22.6399  -32.8042  -43.4184 H         1 UNK         0.0787 
    105 H105       24.8206  -33.7691  -39.9904 H         1 UNK         0.3055 
    106 H106       23.6921  -31.0346  -40.4240 H         1 UNK         0.1106 
    107 H107       25.2643  -32.1675  -38.0464 H         1 UNK         0.0828 
    108 H108       25.8368  -30.9320  -39.1620 H         1 UNK         0.0828 
    109 H109       24.4746  -30.5978  -38.1077 H         1 UNK         0.0828 
    110 H110       21.6360  -31.8567  -40.8346 H         1 UNK         0.2931 
    111 H111       20.3778  -33.7574  -39.0718 H         1 UNK         0.0412 
    112 H112       19.5857  -30.2448  -37.3741 H         1 UNK         0.3472 
    113 H113       20.9552  -30.4536  -38.4373 H         1 UNK         0.3472 
    114 H114       18.3703  -33.4188  -40.5223 H         1 UNK         0.0970 
    115 H115       19.8035  -33.9081  -41.3733 H         1 UNK         0.0970 
    116 H116       19.2721  -33.2352  -43.7725 H         1 UNK         0.0612 
    117 H117       17.6381  -33.0315  -43.1785 H         1 UNK         0.0612 
@<TRIPOS>BOND
     1    1    2 1    
     2    1   62 1    
     3    1   63 1    
     4    1   64 1    
     5    2    3 2    
     6    2    4 am   BACKBONE|DICT|INTERRES
     7    4    5 1    
     8    4   65 1    
     9    5    6 1    
    10    5   25 1    
    11    5   66 1    
    12    6    7 1    
    13    6   67 1    
    14    6   68 1    
    15    7    8 1    
    16    8    9 1    
    17    8   69 1    
    18    8   70 1    
    19    9   10 ar   
    20    9   14 ar   
    21   10   11 ar   
    22   10   71 1    
    23   11   12 ar   
    24   11   61 1    
    25   12   13 ar   
    26   12   72 1    
    27   13   14 ar   
    28   13   15 1    
    29   14   73 1    
    30   15   16 1    
    31   15   74 1    
    32   15   75 1    
    33   16   17 1    
    34   17   18 1    
    35   17   76 1    
    36   17   77 1    
    37   18   19 1    
    38   18   27 1    
    39   18   78 1    
    40   19   20 am   BACKBONE|DICT|INTERRES
    41   19   79 1    
    42   20   21 2    
    43   20   22 1    
    44   22   23 1    
    45   22   24 1    
    46   22   80 1    
    47   23   81 1    
    48   23   82 1    
    49   23   83 1    
    50   24   25 am   BACKBONE|DICT|INTERRES
    51   24   84 1    
    52   25   26 2    
    53   27   28 2    
    54   27   29 am   BACKBONE|DICT|INTERRES
    55   29   30 1    
    56   29   85 1    
    57   30   31 1    
    58   30   32 1    
    59   30   86 1    
    60   31   87 1    
    61   31   88 1    
    62   31   89 1    
    63   32   33 2    
    64   32   34 am   BACKBONE|DICT|INTERRES
    65   34   35 1    
    66   34   90 1    
    67   35   36 1    
    68   35   37 1    
    69   35   91 1    
    70   36   92 1    
    71   36   93 1    
    72   36   94 1    
    73   37   38 2    
    74   37   39 am   BACKBONE|DICT|INTERRES
    75   39   40 1    
    76   39   95 1    
    77   40   41 1    
    78   40   42 1    
    79   40   96 1    
    80   41   97 1    
    81   41   98 1    
    82   41   99 1    
    83   42   43 2    
    84   42   44 am   BACKBONE|DICT|INTERRES
    85   44   45 1    
    86   44  100 1    
    87   45   46 1    
    88   45   47 1    
    89   45  101 1    
    90   46  102 1    
    91   46  103 1    
    92   46  104 1    
    93   47   48 2    
    94   47   49 am   BACKBONE|DICT|INTERRES
    95   49   50 1    
    96   49  105 1    
    97   50   51 1    
    98   50   52 1    
    99   50  106 1    
   100   51  107 1    
   101   51  108 1    
   102   51  109 1    
   103   52   53 2    
   104   52   54 am   BACKBONE|DICT|INTERRES
   105   54   55 1    
   106   54  110 1    
   107   55   56 1    
   108   55   59 1    
   109   55  111 1    
   110   56   57 am   BACKBONE|DICT|INTERRES
   111   56   58 2    
   112   57  112 1    
   113   57  113 1    
   114   59   60 1    
   115   59  114 1    
   116   59  115 1    
   117   60   61 1    
   118   61  116 1    
   119   61  117 1    
@<TRIPOS>SUBSTRUCTURE
     1 UNK         1 GROUP             0       ****    0 ROOT    
