@<TRIPOS>MOLECULE
3R8
117   119    1
SMALL
USER_CHARGES


@<TRIPOS>ATOM
      1 CA         15.4264  -28.4171  -44.0885 C.3       0 UNK        -0.2013 
      2 C          16.3768  -27.5311  -44.8779 C.2       0 UNK         0.4866 
      3 O          16.0059  -26.4222  -45.2657 O.2       0 UNK        -0.5176 
      4 N          17.6047  -28.0055  -45.1186 N.am      1 UNK        -0.4884 
      5 CA         18.6567  -27.3404  -45.9009 C.3       1 UNK         0.0853 
      6 C6         19.7055  -28.3500  -46.4493 C.3       10 UNK        -0.0849 
      7 S7         18.9909  -29.8423  -47.2213 S.3       10 UNK        -0.2776 
      8 C8         19.5557  -31.1418  -46.0720 C.3       10 UNK         0.0316 
      9 C9         18.7310  -31.1842  -44.7919 C.ar      10 UNK        -0.0863 
     10 C10        17.6080  -32.0125  -44.7195 C.ar      10 UNK        -0.1009 
     11 C11        16.8843  -32.1274  -43.5295 C.ar      10 UNK        -0.0712 
     12 C12        17.2598  -31.3660  -42.4186 C.ar      10 UNK        -0.0894 
     13 C13        18.3685  -30.5188  -42.4833 C.ar      10 UNK        -0.0745 
     14 C14        19.1099  -30.4424  -43.6671 C.ar      10 UNK        -0.0972 
     15 C15        18.7810  -29.7067  -41.2666 C.3       10 UNK         0.0209 
     16 S16        17.9347  -28.0998  -41.2352 S.3       10 UNK        -0.2568 
     17 C17        19.0481  -27.1445  -40.1462 C.3       10 UNK        -0.0983 
     18 CA         20.2744  -26.5863  -40.9191 C.3       3 UNK         0.0876 
     19 N          19.9179  -25.8292  -42.1231 N.am      3 UNK        -0.4424 
     20 C          19.2343  -24.6816  -42.2044 C.2       2 UNK         0.4918 
     21 O          18.8623  -24.0282  -41.2296 O.2       2 UNK        -0.4875 
     22 CA         18.8708  -24.1881  -43.6210 C.3       2 UNK         0.0481 
     23 CB         19.9589  -23.2472  -44.1741 C.3       2 UNK        -0.1831 
     24 N          18.5399  -25.2647  -44.5725 N.am      2 UNK        -0.4498 
     25 C          19.3350  -26.2182  -45.0800 C.2       1 UNK         0.5027 
     26 O          20.5432  -26.2757  -44.8422 O.2       1 UNK        -0.4969 
     27 C          21.2844  -25.8180  -40.0432 C.2       3 UNK         0.5005 
     28 O          21.1551  -25.7674  -38.8183 O.2       3 UNK        -0.5279 
     29 N          22.2854  -25.2415  -40.7155 N.am      4 UNK        -0.4463 
     30 CA         23.4634  -24.5908  -40.1576 C.3       4 UNK         0.0283 
     31 CB         23.2909  -23.0653  -40.2541 C.3       4 UNK        -0.1875 
     32 C          24.6758  -25.0675  -40.9692 C.2       4 UNK         0.4949 
     33 O          24.4973  -25.6728  -42.0296 O.2       4 UNK        -0.5039 
     34 N          25.8856  -24.8039  -40.4560 N.am      5 UNK        -0.4663 
     35 CA         27.1813  -25.1757  -41.0510 C.3       5 UNK         0.0242 
     36 CB         27.4428  -24.3617  -42.3371 C.3       5 UNK        -0.1982 
     37 C          27.3365  -26.6979  -41.2626 C.2       5 UNK         0.5017 
     38 O          27.8784  -27.1323  -42.2802 O.2       5 UNK        -0.5012 
     39 N          26.8379  -27.4704  -40.2858 N.am      6 UNK        -0.4439 
     40 CA         26.8252  -28.9367  -40.2128 C.3       6 UNK         0.0297 
     41 CB         28.2589  -29.5114  -40.2109 C.3       6 UNK        -0.2006 
     42 C          25.9086  -29.6338  -41.2415 C.2       6 UNK         0.4892 
     43 O          26.0569  -30.8403  -41.4460 O.2       6 UNK        -0.5089 
     44 N          24.9550  -28.9036  -41.8418 N.am      7 UNK        -0.4243 
     45 CA         23.8797  -29.4826  -42.6539 C.3       7 UNK         0.0196 
     46 CB         23.1663  -28.3716  -43.4413 C.3       7 UNK        -0.2007 
     47 C          22.8844  -30.2432  -41.7608 C.2       7 UNK         0.5020 
     48 O          22.4910  -29.7220  -40.7148 O.2       7 UNK        -0.5147 
     49 N          22.4903  -31.4466  -42.1870 N.am      8 UNK        -0.4734 
     50 CA         21.6006  -32.3511  -41.4602 C.3       8 UNK         0.0238 
     51 CB         22.4075  -33.1438  -40.4142 C.3       8 UNK        -0.1912 
     52 C          20.9085  -33.2919  -42.4541 C.2       8 UNK         0.5038 
     53 O          21.3822  -33.4366  -43.5848 O.2       8 UNK        -0.5046 
     54 N          19.8121  -33.9173  -42.0058 N.am      9 UNK        -0.4200 
     55 CA         18.9860  -34.8404  -42.8035 C.3       9 UNK         0.0839 
     56 C          19.6136  -36.2455  -43.0459 C.2       9 UNK         0.5513 
     57 N          20.7031  -36.6115  -42.3807 N.am      9 UNK        -0.7519 
     58 O          19.1067  -37.0169  -43.8559 O.2       9 UNK        -0.4960 
     59 C59        17.5357  -34.9356  -42.2378 C.3       10 UNK        -0.0876 
     60 S60        16.2678  -34.8408  -43.5507 S.3       10 UNK        -0.2414 
     61 C61        15.7198  -33.1032  -43.4328 C.3       10 UNK         0.0169 
     62 H62        15.8042  -29.4347  -44.0010 H         1 UNK         0.0903 
     63 H63        15.2867  -28.0170  -43.0846 H         1 UNK         0.0903 
     64 H64        14.4547  -28.4606  -44.5794 H         1 UNK         0.0903 
     65 H65        17.8496  -28.9239  -44.7705 H         1 UNK         0.3096 
     66 H66        18.1838  -26.8612  -46.7612 H         1 UNK         0.1121 
     67 H67        20.3939  -28.6645  -45.6647 H         1 UNK         0.0849 
     68 H68        20.3300  -27.8579  -47.1973 H         1 UNK         0.0849 
     69 H69        19.4887  -32.1053  -46.5797 H         1 UNK         0.0865 
     70 H70        20.6136  -31.0082  -45.8398 H         1 UNK         0.0865 
     71 H71        17.3190  -32.6043  -45.5775 H         1 UNK         0.1346 
     72 H72        16.6984  -31.4418  -41.4974 H         1 UNK         0.1412 
     73 H73        19.9862  -29.8108  -43.7048 H         1 UNK         0.1426 
     74 H74        19.8593  -29.5548  -41.2795 H         1 UNK         0.0716 
     75 H75        18.5584  -30.2513  -40.3478 H         1 UNK         0.0716 
     76 H76        19.3682  -27.7839  -39.3214 H         1 UNK         0.0695 
     77 H77        18.4746  -26.3311  -39.6989 H         1 UNK         0.0695 
     78 H78        20.8345  -27.4497  -41.2783 H         1 UNK         0.0983 
     79 H79        20.2081  -26.2357  -43.0078 H         1 UNK         0.3095 
     80 H80        17.9552  -23.6033  -43.5201 H         1 UNK         0.0454 
     81 H81        20.9247  -23.7439  -44.2690 H         1 UNK         0.0851 
     82 H82        20.1026  -22.3920  -43.5125 H         1 UNK         0.0851 
     83 H83        19.6847  -22.8560  -45.1536 H         1 UNK         0.0851 
     84 H84        17.5488  -25.3698  -44.7781 H         1 UNK         0.2976 
     85 H85        22.3473  -25.3938  -41.7147 H         1 UNK         0.3116 
     86 H86        23.6033  -24.8863  -39.1156 H         1 UNK         0.0646 
     87 H87        22.4058  -22.7338  -39.7107 H         1 UNK         0.0847 
     88 H88        24.1470  -22.5422  -39.8267 H         1 UNK         0.0847 
     89 H89        23.1892  -22.7355  -41.2889 H         1 UNK         0.0847 
     90 H90        25.9344  -24.3074  -39.5758 H         1 UNK         0.3040 
     91 H91        27.9483  -24.8962  -40.3267 H         1 UNK         0.1015 
     92 H92        26.7494  -24.6296  -43.1350 H         1 UNK         0.0786 
     93 H93        28.4520  -24.5361  -42.7124 H         1 UNK         0.0786 
     94 H94        27.3473  -23.2912  -42.1553 H         1 UNK         0.0786 
     95 H95        26.4012  -26.9963  -39.5070 H         1 UNK         0.3172 
     96 H96        26.3890  -29.1704  -39.2406 H         1 UNK         0.0595 
     97 H97        28.7428  -29.4000  -41.1815 H         1 UNK         0.0839 
     98 H98        28.2542  -30.5762  -39.9747 H         1 UNK         0.0839 
     99 H99        28.8840  -29.0208  -39.4648 H         1 UNK         0.0839 
    100 H100       24.8938  -27.9131  -41.6445 H         1 UNK         0.2998 
    101 H101       24.3252  -30.1783  -43.3685 H         1 UNK         0.0822 
    102 H102       22.3804  -28.7821  -44.0759 H         1 UNK         0.0787 
    103 H103       22.7035  -27.6399  -42.7802 H         1 UNK         0.0787 
    104 H104       23.8606  -27.8371  -44.0900 H         1 UNK         0.0787 
    105 H105       22.7943  -31.7995  -43.0868 H         1 UNK         0.3055 
    106 H106       20.8292  -31.7676  -40.9544 H         1 UNK         0.1106 
    107 H107       21.7682  -33.8240  -39.8502 H         1 UNK         0.0828 
    108 H108       23.1918  -33.7411  -40.8809 H         1 UNK         0.0828 
    109 H109       22.8818  -32.4790  -39.6920 H         1 UNK         0.0828 
    110 H110       19.5138  -33.7652  -41.0542 H         1 UNK         0.2931 
    111 H111       18.9296  -34.3890  -43.7958 H         1 UNK         0.0412 
    112 H112       21.1019  -37.5220  -42.5493 H         1 UNK         0.3472 
    113 H113       21.1329  -35.9870  -41.7182 H         1 UNK         0.3472 
    114 H114       17.3843  -35.8576  -41.6728 H         1 UNK         0.0970 
    115 H115       17.3385  -34.1377  -41.5211 H         1 UNK         0.0970 
    116 H116       15.1744  -32.9666  -42.4977 H         1 UNK         0.0612 
    117 H117       15.0107  -32.8991  -44.2361 H         1 UNK         0.0612 
@<TRIPOS>BOND
     1    1    2 1    
     2    1   62 1    
     3    1   63 1    
     4    1   64 1    
     5    2    3 2    
     6    2    4 am   BACKBONE|DICT|INTERRES
     7    4    5 1    
     8    4   65 1    
     9    5    6 1    
    10    5   25 1    
    11    5   66 1    
    12    6    7 1    
    13    6   67 1    
    14    6   68 1    
    15    7    8 1    
    16    8    9 1    
    17    8   69 1    
    18    8   70 1    
    19    9   10 ar   
    20    9   14 ar   
    21   10   11 ar   
    22   10   71 1    
    23   11   12 ar   
    24   11   61 1    
    25   12   13 ar   
    26   12   72 1    
    27   13   14 ar   
    28   13   15 1    
    29   14   73 1    
    30   15   16 1    
    31   15   74 1    
    32   15   75 1    
    33   16   17 1    
    34   17   18 1    
    35   17   76 1    
    36   17   77 1    
    37   18   19 1    
    38   18   27 1    
    39   18   78 1    
    40   19   20 am   BACKBONE|DICT|INTERRES
    41   19   79 1    
    42   20   21 2    
    43   20   22 1    
    44   22   23 1    
    45   22   24 1    
    46   22   80 1    
    47   23   81 1    
    48   23   82 1    
    49   23   83 1    
    50   24   25 am   BACKBONE|DICT|INTERRES
    51   24   84 1    
    52   25   26 2    
    53   27   28 2    
    54   27   29 am   BACKBONE|DICT|INTERRES
    55   29   30 1    
    56   29   85 1    
    57   30   31 1    
    58   30   32 1    
    59   30   86 1    
    60   31   87 1    
    61   31   88 1    
    62   31   89 1    
    63   32   33 2    
    64   32   34 am   BACKBONE|DICT|INTERRES
    65   34   35 1    
    66   34   90 1    
    67   35   36 1    
    68   35   37 1    
    69   35   91 1    
    70   36   92 1    
    71   36   93 1    
    72   36   94 1    
    73   37   38 2    
    74   37   39 am   BACKBONE|DICT|INTERRES
    75   39   40 1    
    76   39   95 1    
    77   40   41 1    
    78   40   42 1    
    79   40   96 1    
    80   41   97 1    
    81   41   98 1    
    82   41   99 1    
    83   42   43 2    
    84   42   44 am   BACKBONE|DICT|INTERRES
    85   44   45 1    
    86   44  100 1    
    87   45   46 1    
    88   45   47 1    
    89   45  101 1    
    90   46  102 1    
    91   46  103 1    
    92   46  104 1    
    93   47   48 2    
    94   47   49 am   BACKBONE|DICT|INTERRES
    95   49   50 1    
    96   49  105 1    
    97   50   51 1    
    98   50   52 1    
    99   50  106 1    
   100   51  107 1    
   101   51  108 1    
   102   51  109 1    
   103   52   53 2    
   104   52   54 am   BACKBONE|DICT|INTERRES
   105   54   55 1    
   106   54  110 1    
   107   55   56 1    
   108   55   59 1    
   109   55  111 1    
   110   56   57 am   BACKBONE|DICT|INTERRES
   111   56   58 2    
   112   57  112 1    
   113   57  113 1    
   114   59   60 1    
   115   59  114 1    
   116   59  115 1    
   117   60   61 1    
   118   61  116 1    
   119   61  117 1    
@<TRIPOS>SUBSTRUCTURE
     1 UNK         1 GROUP             0       ****    0 ROOT    
