@<TRIPOS>MOLECULE
3R8
117   119    1
SMALL
USER_CHARGES


@<TRIPOS>ATOM
      1 CA         20.5140  -29.7265  -42.2315 C.3       0 UNK        -0.2013 
      2 C          19.4036  -28.8005  -41.7709 C.2       0 UNK         0.4866 
      3 O          18.9060  -28.9483  -40.6553 O.2       0 UNK        -0.5176 
      4 N          19.0464  -27.8320  -42.6193 N.am      1 UNK        -0.4884 
      5 CA         18.1111  -26.7451  -42.3219 C.3       1 UNK         0.0853 
      6 C6         16.7184  -26.9259  -42.9912 C.3       10 UNK        -0.0849 
      7 S7         15.8306  -28.4431  -42.4906 S.3       10 UNK        -0.2776 
      8 C8         15.5800  -29.2906  -44.0863 C.3       10 UNK         0.0316 
      9 C9         16.8494  -29.9770  -44.5687 C.ar      10 UNK        -0.0863 
     10 C10        17.1278  -31.2913  -44.1833 C.ar      10 UNK        -0.1009 
     11 C11        18.3054  -31.9201  -44.5998 C.ar      10 UNK        -0.0712 
     12 C12        19.2076  -31.2250  -45.4128 C.ar      10 UNK        -0.0894 
     13 C13        18.9394  -29.9081  -45.7995 C.ar      10 UNK        -0.0745 
     14 C14        17.7510  -29.2980  -45.3921 C.ar      10 UNK        -0.0972 
     15 C15        19.9468  -29.1159  -46.6142 C.3       10 UNK         0.0209 
     16 S16        21.0757  -28.2360  -45.4960 S.3       10 UNK        -0.2568 
     17 C17        21.4013  -26.6970  -46.4210 C.3       10 UNK        -0.0983 
     18 CA         22.4513  -25.7825  -45.7284 C.3       3 UNK         0.0876 
     19 N          22.0066  -25.3777  -44.3940 N.am      3 UNK        -0.4424 
     20 C          21.3896  -24.2359  -44.0822 C.2       2 UNK         0.4918 
     21 O          21.1459  -23.3372  -44.8892 O.2       2 UNK        -0.4875 
     22 CA         20.9458  -24.1183  -42.6127 C.3       2 UNK         0.0481 
     23 CB         20.3650  -22.7341  -42.2509 C.3       2 UNK        -0.1831 
     24 N          20.0295  -25.2105  -42.2562 N.am      2 UNK        -0.4498 
     25 C          18.7903  -25.4225  -42.7326 C.2       1 UNK         0.5027 
     26 O          18.2080  -24.6472  -43.4932 O.2       1 UNK        -0.4969 
     27 C          23.8556  -26.4137  -45.6208 C.2       3 UNK         0.5005 
     28 O          24.5344  -26.2328  -44.6064 O.2       3 UNK        -0.5279 
     29 N          24.2621  -27.1852  -46.6405 N.am      4 UNK        -0.4463 
     30 CA         25.5116  -27.9583  -46.6699 C.3       4 UNK         0.0283 
     31 CB         25.6766  -28.6026  -48.0557 C.3       4 UNK        -0.1875 
     32 C          25.6119  -29.0302  -45.5651 C.2       4 UNK         0.4949 
     33 O          26.7216  -29.3737  -45.1587 O.2       4 UNK        -0.5039 
     34 N          24.4588  -29.5104  -45.0779 N.am      5 UNK        -0.4663 
     35 CA         24.3382  -30.4121  -43.9282 C.3       5 UNK         0.0242 
     36 CB         23.1206  -31.3310  -44.1414 C.3       5 UNK        -0.1982 
     37 C          24.2663  -29.6657  -42.5783 C.2       5 UNK         0.5017 
     38 O          24.0259  -30.3086  -41.5551 O.2       5 UNK        -0.5012 
     39 N          24.4639  -28.3362  -42.5813 N.am      6 UNK        -0.4439 
     40 CA         24.4424  -27.4310  -41.4288 C.3       6 UNK         0.0297 
     41 CB         25.6557  -27.6912  -40.5056 C.3       6 UNK        -0.2006 
     42 C          23.0799  -27.4741  -40.7172 C.2       6 UNK         0.4892 
     43 O          22.1022  -26.9788  -41.2796 O.2       6 UNK        -0.5089 
     44 N          23.0419  -28.0774  -39.5243 N.am      7 UNK        -0.4243 
     45 CA         21.8399  -28.3232  -38.7289 C.3       7 UNK         0.0196 
     46 CB         21.8732  -27.4178  -37.4834 C.3       7 UNK        -0.2007 
     47 C          21.7076  -29.8122  -38.3513 C.2       7 UNK         0.5020 
     48 O          20.9381  -30.1333  -37.4443 O.2       7 UNK        -0.5147 
     49 N          22.4573  -30.7061  -39.0207 N.am      8 UNK        -0.4734 
     50 CA         22.5516  -32.1347  -38.6818 C.3       8 UNK         0.0238 
     51 CB         23.6600  -32.7884  -39.5228 C.3       8 UNK        -0.1912 
     52 C          21.2385  -32.9221  -38.8356 C.2       8 UNK         0.5038 
     53 O          21.0561  -33.9252  -38.1430 O.2       8 UNK        -0.5046 
     54 N          20.3560  -32.4553  -39.7264 N.am      9 UNK        -0.4200 
     55 CA         19.0144  -33.0122  -39.9525 C.3       9 UNK         0.0839 
     56 C          17.9609  -32.5664  -38.8949 C.2       9 UNK         0.5513 
     57 N          18.2768  -31.6787  -37.9572 N.am      9 UNK        -0.7519 
     58 O          16.8322  -33.0516  -38.9171 O.2       9 UNK        -0.4960 
     59 C59        18.5151  -32.7448  -41.3968 C.3       10 UNK        -0.0876 
     60 S60        19.6570  -33.3879  -42.6709 S.3       10 UNK        -0.2414 
     61 C61        18.6084  -33.3448  -44.1588 C.3       10 UNK         0.0169 
     62 H62        20.1216  -30.4860  -42.9023 H         1 UNK         0.0903 
     63 H63        21.2845  -29.1647  -42.7558 H         1 UNK         0.0903 
     64 H64        20.9913  -30.2187  -41.3883 H         1 UNK         0.0903 
     65 H65        19.4955  -27.7822  -43.5253 H         1 UNK         0.3096 
     66 H66        17.9553  -26.6774  -41.2426 H         1 UNK         0.1121 
     67 H67        16.0727  -26.0856  -42.7287 H         1 UNK         0.0849 
     68 H68        16.8095  -26.8919  -44.0765 H         1 UNK         0.0849 
     69 H69        14.7869  -30.0304  -43.9673 H         1 UNK         0.0865 
     70 H70        15.2175  -28.5819  -44.8326 H         1 UNK         0.0865 
     71 H71        16.4335  -31.8201  -43.5448 H         1 UNK         0.1346 
     72 H72        20.1303  -31.6989  -45.7188 H         1 UNK         0.1412 
     73 H73        17.5463  -28.2810  -45.6951 H         1 UNK         0.1426 
     74 H74        19.4271  -28.4067  -47.2606 H         1 UNK         0.0716 
     75 H75        20.5201  -29.7741  -47.2690 H         1 UNK         0.0716 
     76 H76        20.4584  -26.1552  -46.5134 H         1 UNK         0.0695 
     77 H77        21.6968  -26.9424  -47.4423 H         1 UNK         0.0695 
     78 H78        22.5824  -24.8902  -46.3444 H         1 UNK         0.0983 
     79 H79        22.2146  -26.0350  -43.6541 H         1 UNK         0.3095 
     80 H80        21.8406  -24.2604  -42.0047 H         1 UNK         0.0454 
     81 H81        21.1079  -21.9517  -42.4099 H         1 UNK         0.0851 
     82 H82        20.0675  -22.6906  -41.2034 H         1 UNK         0.0851 
     83 H83        19.4966  -22.4774  -42.8578 H         1 UNK         0.0851 
     84 H84        20.4574  -25.9471  -41.7005 H         1 UNK         0.2976 
     85 H85        23.6500  -27.2919  -47.4370 H         1 UNK         0.3116 
     86 H86        26.3358  -27.2580  -46.5180 H         1 UNK         0.0646 
     87 H87        25.7003  -27.8507  -48.8448 H         1 UNK         0.0847 
     88 H88        24.8672  -29.2995  -48.2772 H         1 UNK         0.0847 
     89 H89        26.6118  -29.1612  -48.1169 H         1 UNK         0.0847 
     90 H90        23.5934  -29.1670  -45.4720 H         1 UNK         0.3040 
     91 H91        25.2249  -31.0477  -43.8752 H         1 UNK         0.1015 
     92 H92        22.9653  -31.9960  -43.2903 H         1 UNK         0.0786 
     93 H93        23.2566  -31.9632  -45.0191 H         1 UNK         0.0786 
     94 H94        22.2021  -30.7644  -44.2853 H         1 UNK         0.0786 
     95 H95        24.6131  -27.8735  -43.4726 H         1 UNK         0.3172 
     96 H96        24.5451  -26.4200  -41.8262 H         1 UNK         0.0595 
     97 H97        25.6603  -27.0051  -39.6574 H         1 UNK         0.0839 
     98 H98        26.5903  -27.5337  -41.0442 H         1 UNK         0.0839 
     99 H99        25.6763  -28.7085  -40.1132 H         1 UNK         0.0839 
    100 H100       23.9020  -28.4633  -39.1604 H         1 UNK         0.2998 
    101 H101       20.9497  -28.0679  -39.3045 H         1 UNK         0.0822 
    102 H102       21.9504  -26.3664  -37.7618 H         1 UNK         0.0787 
    103 H103       20.9627  -27.5267  -36.8924 H         1 UNK         0.0787 
    104 H104       22.7167  -27.6568  -36.8341 H         1 UNK         0.0787 
    105 H105       23.0295  -30.3943  -39.8014 H         1 UNK         0.3055 
    106 H106       22.8393  -32.2007  -37.6301 H         1 UNK         0.1106 
    107 H107       24.6155  -32.2819  -39.3872 H         1 UNK         0.0828 
    108 H108       23.8029  -33.8320  -39.2384 H         1 UNK         0.0828 
    109 H109       23.4201  -32.7718  -40.5867 H         1 UNK         0.0828 
    110 H110       20.5834  -31.6151  -40.2322 H         1 UNK         0.2931 
    111 H111       19.0902  -34.0964  -39.8455 H         1 UNK         0.0412 
    112 H112       19.2006  -31.2642  -37.9150 H         1 UNK         0.3472 
    113 H113       17.5781  -31.4086  -37.2832 H         1 UNK         0.3472 
    114 H114       17.5412  -33.2140  -41.5493 H         1 UNK         0.0970 
    115 H115       18.3647  -31.6762  -41.5572 H         1 UNK         0.0970 
    116 H116       17.6847  -33.8947  -43.9717 H         1 UNK         0.0612 
    117 H117       19.1208  -33.8752  -44.9627 H         1 UNK         0.0612 
@<TRIPOS>BOND
     1    1    2 1    
     2    1   62 1    
     3    1   63 1    
     4    1   64 1    
     5    2    3 2    
     6    2    4 am   BACKBONE|DICT|INTERRES
     7    4    5 1    
     8    4   65 1    
     9    5    6 1    
    10    5   25 1    
    11    5   66 1    
    12    6    7 1    
    13    6   67 1    
    14    6   68 1    
    15    7    8 1    
    16    8    9 1    
    17    8   69 1    
    18    8   70 1    
    19    9   10 ar   
    20    9   14 ar   
    21   10   11 ar   
    22   10   71 1    
    23   11   12 ar   
    24   11   61 1    
    25   12   13 ar   
    26   12   72 1    
    27   13   14 ar   
    28   13   15 1    
    29   14   73 1    
    30   15   16 1    
    31   15   74 1    
    32   15   75 1    
    33   16   17 1    
    34   17   18 1    
    35   17   76 1    
    36   17   77 1    
    37   18   19 1    
    38   18   27 1    
    39   18   78 1    
    40   19   20 am   BACKBONE|DICT|INTERRES
    41   19   79 1    
    42   20   21 2    
    43   20   22 1    
    44   22   23 1    
    45   22   24 1    
    46   22   80 1    
    47   23   81 1    
    48   23   82 1    
    49   23   83 1    
    50   24   25 am   BACKBONE|DICT|INTERRES
    51   24   84 1    
    52   25   26 2    
    53   27   28 2    
    54   27   29 am   BACKBONE|DICT|INTERRES
    55   29   30 1    
    56   29   85 1    
    57   30   31 1    
    58   30   32 1    
    59   30   86 1    
    60   31   87 1    
    61   31   88 1    
    62   31   89 1    
    63   32   33 2    
    64   32   34 am   BACKBONE|DICT|INTERRES
    65   34   35 1    
    66   34   90 1    
    67   35   36 1    
    68   35   37 1    
    69   35   91 1    
    70   36   92 1    
    71   36   93 1    
    72   36   94 1    
    73   37   38 2    
    74   37   39 am   BACKBONE|DICT|INTERRES
    75   39   40 1    
    76   39   95 1    
    77   40   41 1    
    78   40   42 1    
    79   40   96 1    
    80   41   97 1    
    81   41   98 1    
    82   41   99 1    
    83   42   43 2    
    84   42   44 am   BACKBONE|DICT|INTERRES
    85   44   45 1    
    86   44  100 1    
    87   45   46 1    
    88   45   47 1    
    89   45  101 1    
    90   46  102 1    
    91   46  103 1    
    92   46  104 1    
    93   47   48 2    
    94   47   49 am   BACKBONE|DICT|INTERRES
    95   49   50 1    
    96   49  105 1    
    97   50   51 1    
    98   50   52 1    
    99   50  106 1    
   100   51  107 1    
   101   51  108 1    
   102   51  109 1    
   103   52   53 2    
   104   52   54 am   BACKBONE|DICT|INTERRES
   105   54   55 1    
   106   54  110 1    
   107   55   56 1    
   108   55   59 1    
   109   55  111 1    
   110   56   57 am   BACKBONE|DICT|INTERRES
   111   56   58 2    
   112   57  112 1    
   113   57  113 1    
   114   59   60 1    
   115   59  114 1    
   116   59  115 1    
   117   60   61 1    
   118   61  116 1    
   119   61  117 1    
@<TRIPOS>SUBSTRUCTURE
     1 UNK         1 GROUP             0       ****    0 ROOT    
