@<TRIPOS>MOLECULE
3R8
117   119    1
SMALL
USER_CHARGES


@<TRIPOS>ATOM
      1 CA         15.1205  -22.5528  -46.4236 C.3       0 UNK        -0.2013 
      2 C          15.8235  -23.8856  -46.6346 C.2       0 UNK         0.4866 
      3 O          16.5318  -24.0529  -47.6283 O.2       0 UNK        -0.5176 
      4 N          15.6272  -24.8366  -45.7124 N.am      1 UNK        -0.4884 
      5 CA         16.2831  -26.1491  -45.7140 C.3       1 UNK         0.0853 
      6 C6         15.4400  -27.1899  -44.9360 C.3       10 UNK        -0.0849 
      7 S7         15.6745  -28.8890  -45.5663 S.3       10 UNK        -0.2776 
      8 C8         15.3188  -29.8962  -44.0909 C.3       10 UNK         0.0316 
      9 C9         16.4864  -29.8921  -43.1164 C.ar      10 UNK        -0.0863 
     10 C10        17.5231  -30.8175  -43.2514 C.ar      10 UNK        -0.1009 
     11 C11        18.6070  -30.8100  -42.3662 C.ar      10 UNK        -0.0712 
     12 C12        18.6574  -29.8487  -41.3488 C.ar      10 UNK        -0.0894 
     13 C13        17.6147  -28.9264  -41.1953 C.ar      10 UNK        -0.0745 
     14 C14        16.5254  -28.9721  -42.0689 C.ar      10 UNK        -0.0972 
     15 C15        17.6241  -27.8967  -40.0727 C.3       10 UNK         0.0209 
     16 S16        17.4460  -26.1976  -40.7171 S.3       10 UNK        -0.2568 
     17 C17        19.1458  -25.5543  -40.6197 C.3       10 UNK        -0.0983 
     18 CA         20.1891  -26.3444  -41.4457 C.3       3 UNK         0.0876 
     19 N          19.8346  -26.4523  -42.8680 N.am      3 UNK        -0.4424 
     20 C          20.4696  -27.2198  -43.7635 C.2       2 UNK         0.4918 
     21 O          21.4550  -27.9007  -43.4743 O.2       2 UNK        -0.4875 
     22 CA         19.9787  -27.1769  -45.2291 C.3       2 UNK         0.0481 
     23 CB         20.5148  -28.3603  -46.0553 C.3       2 UNK        -0.1831 
     24 N          18.5245  -27.1048  -45.4175 N.am      2 UNK        -0.4498 
     25 C          17.7376  -26.0445  -45.1962 C.2       1 UNK         0.5027 
     26 O          18.1249  -25.0230  -44.6209 O.2       1 UNK        -0.4969 
     27 C          21.5912  -25.7473  -41.2083 C.2       3 UNK         0.5005 
     28 O          22.1922  -26.0253  -40.1705 O.2       3 UNK        -0.5279 
     29 N          22.1104  -24.9742  -42.1747 N.am      4 UNK        -0.4463 
     30 CA         23.4651  -24.4102  -42.1725 C.3       4 UNK         0.0283 
     31 CB         23.6314  -23.4920  -43.3939 C.3       4 UNK        -0.1875 
     32 C          24.5849  -25.4696  -42.1419 C.2       4 UNK         0.4949 
     33 O          25.6839  -25.1656  -41.6786 O.2       4 UNK        -0.5039 
     34 N          24.2859  -26.6901  -42.6088 N.am      5 UNK        -0.4663 
     35 CA         25.1780  -27.8495  -42.5476 C.3       5 UNK         0.0242 
     36 CB         24.9561  -28.7014  -43.8076 C.3       5 UNK        -0.1982 
     37 C          24.9959  -28.6831  -41.2611 C.2       5 UNK         0.5017 
     38 O          25.6838  -29.6938  -41.1156 O.2       5 UNK        -0.5012 
     39 N          24.1017  -28.2516  -40.3556 N.am      6 UNK        -0.4439 
     40 CA         23.7332  -28.8862  -39.0846 C.3       6 UNK         0.0297 
     41 CB         24.9330  -28.9032  -38.1088 C.3       6 UNK        -0.2006 
     42 C          23.0626  -30.2606  -39.2881 C.2       6 UNK         0.4892 
     43 O          22.3542  -30.4505  -40.2790 O.2       6 UNK        -0.5089 
     44 N          23.2563  -31.1810  -38.3335 N.am      7 UNK        -0.4243 
     45 CA         22.8017  -32.5700  -38.4162 C.3       7 UNK         0.0196 
     46 CB         22.9058  -33.2220  -37.0279 C.3       7 UNK        -0.2007 
     47 C          23.6329  -33.3512  -39.4468 C.2       7 UNK         0.5020 
     48 O          24.8390  -33.1183  -39.5515 O.2       7 UNK        -0.5147 
     49 N          22.9727  -34.2677  -40.1705 N.am      8 UNK        -0.4734 
     50 CA         23.5081  -35.0325  -41.3086 C.3       8 UNK         0.0238 
     51 CB         24.6011  -36.0242  -40.8525 C.3       8 UNK        -0.1912 
     52 C          23.9633  -34.1068  -42.4565 C.2       8 UNK         0.5038 
     53 O          25.0769  -34.2453  -42.9670 O.2       8 UNK        -0.5046 
     54 N          23.0829  -33.1596  -42.8051 N.am      9 UNK        -0.4200 
     55 CA         23.2489  -32.1504  -43.8590 C.3       9 UNK         0.0839 
     56 C          23.5402  -32.7351  -45.2718 C.2       9 UNK         0.5513 
     57 N          24.2231  -31.9797  -46.1219 N.am      9 UNK        -0.7519 
     58 O          23.1283  -33.8415  -45.6161 O.2       9 UNK        -0.4960 
     59 C59        22.0473  -31.1646  -43.8782 C.3       10 UNK        -0.0876 
     60 S60        20.4301  -31.9774  -44.1302 S.3       10 UNK        -0.2414 
     61 C61        19.6791  -31.8877  -42.4715 C.3       10 UNK         0.0169 
     62 H62        15.8541  -21.7508  -46.3447 H         1 UNK         0.0903 
     63 H63        14.5156  -22.5490  -45.5170 H         1 UNK         0.0903 
     64 H64        14.4669  -22.3352  -47.2679 H         1 UNK         0.0903 
     65 H65        15.0682  -24.6260  -44.8977 H         1 UNK         0.3096 
     66 H66        16.3425  -26.4717  -46.7567 H         1 UNK         0.1121 
     67 H67        15.6419  -27.1288  -43.8676 H         1 UNK         0.0849 
     68 H68        14.3764  -26.9708  -45.0458 H         1 UNK         0.0849 
     69 H69        14.4091  -29.5361  -43.6076 H         1 UNK         0.0865 
     70 H70        15.1080  -30.9194  -44.4058 H         1 UNK         0.0865 
     71 H71        17.4837  -31.5529  -44.0436 H         1 UNK         0.1346 
     72 H72        19.4943  -29.8382  -40.6632 H         1 UNK         0.1412 
     73 H73        15.7104  -28.2746  -41.9345 H         1 UNK         0.1426 
     74 H74        18.5239  -27.9796  -39.4615 H         1 UNK         0.0716 
     75 H75        16.7852  -28.1039  -39.4070 H         1 UNK         0.0716 
     76 H76        19.1194  -24.5118  -40.9431 H         1 UNK         0.0695 
     77 H77        19.4276  -25.5358  -39.5647 H         1 UNK         0.0695 
     78 H78        20.2355  -27.3632  -41.0578 H         1 UNK         0.0983 
     79 H79        19.0576  -25.8856  -43.1950 H         1 UNK         0.3095 
     80 H80        20.4045  -26.2677  -45.6578 H         1 UNK         0.0454 
     81 H81        20.1385  -29.3117  -45.6780 H         1 UNK         0.0851 
     82 H82        20.2275  -28.2777  -47.1035 H         1 UNK         0.0851 
     83 H83        21.6044  -28.4021  -46.0287 H         1 UNK         0.0851 
     84 H84        18.0911  -27.9308  -45.8082 H         1 UNK         0.2976 
     85 H85        21.5417  -24.7907  -42.9888 H         1 UNK         0.3116 
     86 H86        23.5674  -23.8035  -41.2704 H         1 UNK         0.0646 
     87 H87        24.6213  -23.0335  -43.4049 H         1 UNK         0.0847 
     88 H88        22.9027  -22.6812  -43.3856 H         1 UNK         0.0847 
     89 H89        23.5168  -24.0397  -44.3302 H         1 UNK         0.0847 
     90 H90        23.3496  -26.8667  -42.9554 H         1 UNK         0.3040 
     91 H91        26.2167  -27.5113  -42.5545 H         1 UNK         0.1015 
     92 H92        25.1715  -28.1321  -44.7120 H         1 UNK         0.0786 
     93 H93        23.9274  -29.0507  -43.8710 H         1 UNK         0.0786 
     94 H94        25.6077  -29.5760  -43.8138 H         1 UNK         0.0786 
     95 H95        23.5706  -27.4139  -40.5710 H         1 UNK         0.3172 
     96 H96        22.9672  -28.2444  -38.6476 H         1 UNK         0.0595 
     97 H97        25.4064  -27.9228  -38.0528 H         1 UNK         0.0839 
     98 H98        25.6961  -29.6212  -38.4125 H         1 UNK         0.0839 
     99 H99        24.6207  -29.1577  -37.0955 H         1 UNK         0.0839 
    100 H100       23.8753  -30.9548  -37.5694 H         1 UNK         0.2998 
    101 H101       21.7542  -32.5699  -38.7262 H         1 UNK         0.0822 
    102 H102       23.9354  -33.2433  -36.6680 H         1 UNK         0.0787 
    103 H103       22.3030  -32.6890  -36.2922 H         1 UNK         0.0787 
    104 H104       22.5487  -34.2525  -37.0531 H         1 UNK         0.0787 
    105 H105       21.9887  -34.4035  -39.9802 H         1 UNK         0.3055 
    106 H106       22.6814  -35.6231  -41.7075 H         1 UNK         0.1106 
    107 H107       25.4940  -35.5125  -40.4925 H         1 UNK         0.0828 
    108 H108       24.2409  -36.6723  -40.0537 H         1 UNK         0.0828 
    109 H109       24.9096  -36.6679  -41.6771 H         1 UNK         0.0828 
    110 H110       22.1969  -33.1347  -42.3258 H         1 UNK         0.2931 
    111 H111       24.1328  -31.5792  -43.5704 H         1 UNK         0.0412 
    112 H112       24.4111  -32.3345  -47.0468 H         1 UNK         0.3472 
    113 H113       24.5636  -31.0687  -45.8585 H         1 UNK         0.3472 
    114 H114       22.1762  -30.4258  -44.6695 H         1 UNK         0.0970 
    115 H115       22.0259  -30.5851  -42.9540 H         1 UNK         0.0970 
    116 H116       19.2138  -32.8506  -42.2572 H         1 UNK         0.0612 
    117 H117       20.4500  -31.7518  -41.7124 H         1 UNK         0.0612 
@<TRIPOS>BOND
     1    1    2 1    
     2    1   62 1    
     3    1   63 1    
     4    1   64 1    
     5    2    3 2    
     6    2    4 am   BACKBONE|DICT|INTERRES
     7    4    5 1    
     8    4   65 1    
     9    5    6 1    
    10    5   25 1    
    11    5   66 1    
    12    6    7 1    
    13    6   67 1    
    14    6   68 1    
    15    7    8 1    
    16    8    9 1    
    17    8   69 1    
    18    8   70 1    
    19    9   10 ar   
    20    9   14 ar   
    21   10   11 ar   
    22   10   71 1    
    23   11   12 ar   
    24   11   61 1    
    25   12   13 ar   
    26   12   72 1    
    27   13   14 ar   
    28   13   15 1    
    29   14   73 1    
    30   15   16 1    
    31   15   74 1    
    32   15   75 1    
    33   16   17 1    
    34   17   18 1    
    35   17   76 1    
    36   17   77 1    
    37   18   19 1    
    38   18   27 1    
    39   18   78 1    
    40   19   20 am   BACKBONE|DICT|INTERRES
    41   19   79 1    
    42   20   21 2    
    43   20   22 1    
    44   22   23 1    
    45   22   24 1    
    46   22   80 1    
    47   23   81 1    
    48   23   82 1    
    49   23   83 1    
    50   24   25 am   BACKBONE|DICT|INTERRES
    51   24   84 1    
    52   25   26 2    
    53   27   28 2    
    54   27   29 am   BACKBONE|DICT|INTERRES
    55   29   30 1    
    56   29   85 1    
    57   30   31 1    
    58   30   32 1    
    59   30   86 1    
    60   31   87 1    
    61   31   88 1    
    62   31   89 1    
    63   32   33 2    
    64   32   34 am   BACKBONE|DICT|INTERRES
    65   34   35 1    
    66   34   90 1    
    67   35   36 1    
    68   35   37 1    
    69   35   91 1    
    70   36   92 1    
    71   36   93 1    
    72   36   94 1    
    73   37   38 2    
    74   37   39 am   BACKBONE|DICT|INTERRES
    75   39   40 1    
    76   39   95 1    
    77   40   41 1    
    78   40   42 1    
    79   40   96 1    
    80   41   97 1    
    81   41   98 1    
    82   41   99 1    
    83   42   43 2    
    84   42   44 am   BACKBONE|DICT|INTERRES
    85   44   45 1    
    86   44  100 1    
    87   45   46 1    
    88   45   47 1    
    89   45  101 1    
    90   46  102 1    
    91   46  103 1    
    92   46  104 1    
    93   47   48 2    
    94   47   49 am   BACKBONE|DICT|INTERRES
    95   49   50 1    
    96   49  105 1    
    97   50   51 1    
    98   50   52 1    
    99   50  106 1    
   100   51  107 1    
   101   51  108 1    
   102   51  109 1    
   103   52   53 2    
   104   52   54 am   BACKBONE|DICT|INTERRES
   105   54   55 1    
   106   54  110 1    
   107   55   56 1    
   108   55   59 1    
   109   55  111 1    
   110   56   57 am   BACKBONE|DICT|INTERRES
   111   56   58 2    
   112   57  112 1    
   113   57  113 1    
   114   59   60 1    
   115   59  114 1    
   116   59  115 1    
   117   60   61 1    
   118   61  116 1    
   119   61  117 1    
@<TRIPOS>SUBSTRUCTURE
     1 UNK         1 GROUP             0       ****    0 ROOT    
