@<TRIPOS>MOLECULE
3R8
117   119    1
SMALL
USER_CHARGES


@<TRIPOS>ATOM
      1 CA         16.7375  -22.7353  -41.7814 C.3       0 UNK        -0.2013 
      2 C          17.7182  -23.8816  -41.9786 C.2       0 UNK         0.4866 
      3 O          18.7640  -23.9049  -41.3302 O.2       0 UNK        -0.5176 
      4 N          17.3861  -24.8236  -42.8740 N.am      1 UNK        -0.4884 
      5 CA         18.1645  -26.0279  -43.2113 C.3       1 UNK         0.0853 
      6 C6         18.2462  -27.0539  -42.0447 C.3       10 UNK        -0.0849 
      7 S7         16.6066  -27.7933  -41.7260 S.3       10 UNK        -0.2776 
      8 C8         16.9715  -29.5863  -41.6684 C.3       10 UNK         0.0316 
      9 C9         17.6342  -30.1956  -42.9082 C.ar      10 UNK        -0.0863 
     10 C10        18.2599  -31.4380  -42.7762 C.ar      10 UNK        -0.1009 
     11 C11        18.8818  -32.0469  -43.8682 C.ar      10 UNK        -0.0712 
     12 C12        18.9000  -31.3939  -45.1032 C.ar      10 UNK        -0.0894 
     13 C13        18.2959  -30.1386  -45.2565 C.ar      10 UNK        -0.0745 
     14 C14        17.6337  -29.5707  -44.1628 C.ar      10 UNK        -0.0972 
     15 C15        18.3270  -29.3774  -46.5846 C.3       10 UNK         0.0209 
     16 S16        19.8455  -29.6609  -47.5587 S.3       10 UNK        -0.2568 
     17 C17        20.2238  -28.0082  -48.2574 C.3       10 UNK        -0.0983 
     18 CA         21.3379  -27.1532  -47.5671 C.3       3 UNK         0.0876 
     19 N          20.7739  -26.0698  -46.7521 N.am      3 UNK        -0.4424 
     20 C          21.4745  -25.0253  -46.2820 C.2       2 UNK         0.4918 
     21 O          22.6489  -24.8042  -46.5770 O.2       2 UNK        -0.4875 
     22 CA         20.7679  -24.0703  -45.2996 C.3       2 UNK         0.0481 
     23 CB         20.3890  -22.7602  -46.0083 C.3       2 UNK        -0.1831 
     24 N          19.5785  -24.6143  -44.6330 N.am      2 UNK        -0.4498 
     25 C          19.5336  -25.7011  -43.8468 C.2       1 UNK         0.5027 
     26 O          20.5000  -26.4437  -43.6645 O.2       1 UNK        -0.4969 
     27 C          22.3967  -27.9696  -46.7840 C.2       3 UNK         0.5005 
     28 O          23.3949  -28.3920  -47.3710 O.2       3 UNK        -0.5279 
     29 N          22.1560  -28.1601  -45.4787 N.am      4 UNK        -0.4463 
     30 CA         23.0233  -28.8890  -44.5556 C.3       4 UNK         0.0283 
     31 CB         22.1496  -29.8003  -43.6810 C.3       4 UNK        -0.1875 
     32 C          23.8411  -27.9355  -43.6738 C.2       4 UNK         0.4949 
     33 O          24.9584  -28.2836  -43.2916 O.2       4 UNK        -0.5039 
     34 N          23.2638  -26.7715  -43.3388 N.am      5 UNK        -0.4663 
     35 CA         23.7731  -25.6833  -42.4925 C.3       5 UNK         0.0242 
     36 CB         25.0758  -25.0821  -43.0545 C.3       5 UNK        -0.1982 
     37 C          23.9121  -26.0656  -41.0090 C.2       5 UNK         0.5017 
     38 O          23.3705  -25.3670  -40.1524 O.2       5 UNK        -0.5012 
     39 N          24.6084  -27.1747  -40.7332 N.am      6 UNK        -0.4439 
     40 CA         24.7411  -27.7770  -39.4048 C.3       6 UNK         0.0297 
     41 CB         25.9568  -28.7180  -39.3957 C.3       6 UNK        -0.2006 
     42 C          23.4750  -28.5365  -38.9693 C.2       6 UNK         0.4892 
     43 O          23.2360  -28.6589  -37.7681 O.2       6 UNK        -0.5089 
     44 N          22.7092  -29.0441  -39.9507 N.am      7 UNK        -0.4243 
     45 CA         21.4628  -29.8150  -39.8139 C.3       7 UNK         0.0196 
     46 CB         20.3448  -28.9389  -39.2111 C.3       7 UNK        -0.2007 
     47 C          21.6217  -31.1607  -39.0735 C.2       7 UNK         0.5020 
     48 O          20.6296  -31.7165  -38.6001 O.2       7 UNK        -0.5147 
     49 N          22.8546  -31.6873  -39.0119 N.am      8 UNK        -0.4734 
     50 CA         23.2157  -32.9336  -38.3215 C.3       8 UNK         0.0238 
     51 CB         24.7468  -33.0721  -38.3044 C.3       8 UNK        -0.1912 
     52 C          22.5647  -34.1957  -38.9169 C.2       8 UNK         0.5038 
     53 O          22.4052  -35.1883  -38.2055 O.2       8 UNK        -0.5046 
     54 N          22.1889  -34.1230  -40.1982 N.am      9 UNK        -0.4200 
     55 CA         21.3779  -35.1146  -40.9150 C.3       9 UNK         0.0839 
     56 C          19.8833  -35.1752  -40.4774 C.2       9 UNK         0.5513 
     57 N          19.3702  -34.2360  -39.6897 N.am      9 UNK        -0.7519 
     58 O          19.1761  -36.1042  -40.8584 O.2       9 UNK        -0.4960 
     59 C59        21.5298  -34.9534  -42.4524 C.3       10 UNK        -0.0876 
     60 S60        21.2136  -33.2505  -43.0370 S.3       10 UNK        -0.2414 
     61 C61        19.5311  -33.4107  -43.7028 C.3       10 UNK         0.0169 
     62 H62        16.4059  -22.7010  -40.7440 H         1 UNK         0.0903 
     63 H63        17.2178  -21.7859  -42.0170 H         1 UNK         0.0903 
     64 H64        15.8566  -22.8364  -42.4150 H         1 UNK         0.0903 
     65 H65        16.5023  -24.7395  -43.3584 H         1 UNK         0.3096 
     66 H66        17.6158  -26.4979  -44.0266 H         1 UNK         0.1121 
     67 H67        18.6118  -26.5829  -41.1314 H         1 UNK         0.0849 
     68 H68        18.9528  -27.8555  -42.2653 H         1 UNK         0.0849 
     69 H69        17.6005  -29.7712  -40.7969 H         1 UNK         0.0865 
     70 H70        16.0365  -30.1175  -41.4855 H         1 UNK         0.0865 
     71 H71        18.2626  -31.9406  -41.8178 H         1 UNK         0.1346 
     72 H72        19.3937  -31.8661  -45.9407 H         1 UNK         0.1412 
     73 H73        17.1213  -28.6314  -44.2950 H         1 UNK         0.1426 
     74 H74        18.2283  -28.3085  -46.3914 H         1 UNK         0.0716 
     75 H75        17.4626  -29.6674  -47.1831 H         1 UNK         0.0716 
     76 H76        19.2997  -27.4379  -48.3646 H         1 UNK         0.0695 
     77 H77        20.5409  -28.2007  -49.2836 H         1 UNK         0.0695 
     78 H78        21.8882  -26.6561  -48.3698 H         1 UNK         0.0983 
     79 H79        19.8072  -26.1593  -46.4807 H         1 UNK         0.3095 
     80 H80        21.4909  -23.8334  -44.5164 H         1 UNK         0.0454 
     81 H81        19.9937  -22.0269  -45.3051 H         1 UNK         0.0851 
     82 H82        19.6394  -22.9225  -46.7837 H         1 UNK         0.0851 
     83 H83        21.2588  -22.3075  -46.4866 H         1 UNK         0.0851 
     84 H84        18.7301  -24.0737  -44.7243 H         1 UNK         0.2976 
     85 H85        21.3262  -27.7403  -45.0772 H         1 UNK         0.3116 
     86 H86        23.7231  -29.5176  -45.1102 H         1 UNK         0.0646 
     87 H87        21.6042  -30.5174  -44.2941 H         1 UNK         0.0847 
     88 H88        21.4148  -29.2335  -43.1078 H         1 UNK         0.0847 
     89 H89        22.7556  -30.3730  -42.9779 H         1 UNK         0.0847 
     90 H90        22.2947  -26.6431  -43.6233 H         1 UNK         0.3040 
     91 H91        23.0111  -24.9028  -42.5378 H         1 UNK         0.1015 
     92 H92        25.3869  -24.2157  -42.4695 H         1 UNK         0.0786 
     93 H93        24.9420  -24.7478  -44.0835 H         1 UNK         0.0786 
     94 H94        25.9004  -25.7951  -43.0389 H         1 UNK         0.0786 
     95 H95        25.0028  -27.6778  -41.5260 H         1 UNK         0.3172 
     96 H96        24.9190  -26.9817  -38.6777 H         1 UNK         0.0595 
     97 H97        25.8531  -29.5242  -40.1232 H         1 UNK         0.0839 
     98 H98        26.0884  -29.1776  -38.4149 H         1 UNK         0.0839 
     99 H99        26.8762  -28.1783  -39.6239 H         1 UNK         0.0839 
    100 H100       23.0162  -28.8763  -40.8973 H         1 UNK         0.2998 
    101 H101       21.1536  -30.0791  -40.8258 H         1 UNK         0.0822 
    102 H102       20.2194  -28.0147  -39.7748 H         1 UNK         0.0787 
    103 H103       19.3865  -29.4581  -39.2237 H         1 UNK         0.0787 
    104 H104       20.5533  -28.6737  -38.1744 H         1 UNK         0.0787 
    105 H105       23.6112  -31.1656  -39.4289 H         1 UNK         0.3055 
    106 H106       22.8655  -32.8523  -37.2900 H         1 UNK         0.1106 
    107 H107       25.0512  -33.9739  -37.7710 H         1 UNK         0.0828 
    108 H108       25.2170  -32.2272  -37.8007 H         1 UNK         0.0828 
    109 H109       25.1586  -33.1358  -39.3124 H         1 UNK         0.0828 
    110 H110       22.3542  -33.2607  -40.6954 H         1 UNK         0.2931 
    111 H111       21.7885  -36.0940  -40.6622 H         1 UNK         0.0412 
    112 H112       19.9306  -33.4578  -39.3603 H         1 UNK         0.3472 
    113 H113       18.4037  -34.3042  -39.4143 H         1 UNK         0.3472 
    114 H114       22.5512  -35.2097  -42.7377 H         1 UNK         0.0970 
    115 H115       20.8967  -35.6620  -42.9903 H         1 UNK         0.0970 
    116 H116       19.5691  -33.9390  -44.6566 H         1 UNK         0.0612 
    117 H117       18.9228  -34.0214  -43.0345 H         1 UNK         0.0612 
@<TRIPOS>BOND
     1    1    2 1    
     2    1   62 1    
     3    1   63 1    
     4    1   64 1    
     5    2    3 2    
     6    2    4 am   BACKBONE|DICT|INTERRES
     7    4    5 1    
     8    4   65 1    
     9    5    6 1    
    10    5   25 1    
    11    5   66 1    
    12    6    7 1    
    13    6   67 1    
    14    6   68 1    
    15    7    8 1    
    16    8    9 1    
    17    8   69 1    
    18    8   70 1    
    19    9   10 ar   
    20    9   14 ar   
    21   10   11 ar   
    22   10   71 1    
    23   11   12 ar   
    24   11   61 1    
    25   12   13 ar   
    26   12   72 1    
    27   13   14 ar   
    28   13   15 1    
    29   14   73 1    
    30   15   16 1    
    31   15   74 1    
    32   15   75 1    
    33   16   17 1    
    34   17   18 1    
    35   17   76 1    
    36   17   77 1    
    37   18   19 1    
    38   18   27 1    
    39   18   78 1    
    40   19   20 am   BACKBONE|DICT|INTERRES
    41   19   79 1    
    42   20   21 2    
    43   20   22 1    
    44   22   23 1    
    45   22   24 1    
    46   22   80 1    
    47   23   81 1    
    48   23   82 1    
    49   23   83 1    
    50   24   25 am   BACKBONE|DICT|INTERRES
    51   24   84 1    
    52   25   26 2    
    53   27   28 2    
    54   27   29 am   BACKBONE|DICT|INTERRES
    55   29   30 1    
    56   29   85 1    
    57   30   31 1    
    58   30   32 1    
    59   30   86 1    
    60   31   87 1    
    61   31   88 1    
    62   31   89 1    
    63   32   33 2    
    64   32   34 am   BACKBONE|DICT|INTERRES
    65   34   35 1    
    66   34   90 1    
    67   35   36 1    
    68   35   37 1    
    69   35   91 1    
    70   36   92 1    
    71   36   93 1    
    72   36   94 1    
    73   37   38 2    
    74   37   39 am   BACKBONE|DICT|INTERRES
    75   39   40 1    
    76   39   95 1    
    77   40   41 1    
    78   40   42 1    
    79   40   96 1    
    80   41   97 1    
    81   41   98 1    
    82   41   99 1    
    83   42   43 2    
    84   42   44 am   BACKBONE|DICT|INTERRES
    85   44   45 1    
    86   44  100 1    
    87   45   46 1    
    88   45   47 1    
    89   45  101 1    
    90   46  102 1    
    91   46  103 1    
    92   46  104 1    
    93   47   48 2    
    94   47   49 am   BACKBONE|DICT|INTERRES
    95   49   50 1    
    96   49  105 1    
    97   50   51 1    
    98   50   52 1    
    99   50  106 1    
   100   51  107 1    
   101   51  108 1    
   102   51  109 1    
   103   52   53 2    
   104   52   54 am   BACKBONE|DICT|INTERRES
   105   54   55 1    
   106   54  110 1    
   107   55   56 1    
   108   55   59 1    
   109   55  111 1    
   110   56   57 am   BACKBONE|DICT|INTERRES
   111   56   58 2    
   112   57  112 1    
   113   57  113 1    
   114   59   60 1    
   115   59  114 1    
   116   59  115 1    
   117   60   61 1    
   118   61  116 1    
   119   61  117 1    
@<TRIPOS>SUBSTRUCTURE
     1 UNK         1 GROUP             0       ****    0 ROOT    
