@<TRIPOS>MOLECULE
3R8
117   119    1
SMALL
USER_CHARGES


@<TRIPOS>ATOM
      1 CA         17.0067  -24.6735  -48.4071 C.3       0 UNK        -0.2013 
      2 C          18.2047  -25.5897  -48.2088 C.2       0 UNK         0.4866 
      3 O          19.1980  -25.4632  -48.9249 O.2       0 UNK        -0.5176 
      4 N          18.1191  -26.5130  -47.2418 N.am      1 UNK        -0.4884 
      5 CA         19.1684  -27.4934  -46.9266 C.3       1 UNK         0.0853 
      6 C6         18.6472  -28.6307  -46.0105 C.3       10 UNK        -0.0849 
      7 S7         17.2040  -29.5311  -46.6676 S.3       10 UNK        -0.2776 
      8 C8         15.8821  -29.0717  -45.4904 C.3       10 UNK         0.0316 
      9 C9         16.2316  -29.3476  -44.0286 C.ar      10 UNK        -0.0863 
     10 C10        16.6766  -30.6120  -43.6238 C.ar      10 UNK        -0.1009 
     11 C11        16.9864  -30.8616  -42.2829 C.ar      10 UNK        -0.0712 
     12 C12        16.8099  -29.8463  -41.3403 C.ar      10 UNK        -0.0894 
     13 C13        16.4046  -28.5680  -41.7320 C.ar      10 UNK        -0.0745 
     14 C14        16.1082  -28.3272  -43.0773 C.ar      10 UNK        -0.0972 
     15 C15        16.3017  -27.4512  -40.7001 C.3       10 UNK         0.0209 
     16 S16        17.8237  -27.2833  -39.7036 S.3       10 UNK        -0.2568 
     17 C17        18.9913  -26.5145  -40.8798 C.3       10 UNK        -0.0983 
     18 CA         19.7847  -27.5047  -41.7887 C.3       3 UNK         0.0876 
     19 N          20.2089  -26.8482  -43.0289 N.am      3 UNK        -0.4424 
     20 C          21.0256  -25.7912  -43.1568 C.2       2 UNK         0.4918 
     21 O          21.6643  -25.2993  -42.2256 O.2       2 UNK        -0.4875 
     22 CA         21.0623  -25.1029  -44.5407 C.3       2 UNK         0.0481 
     23 CB         22.4967  -24.8702  -45.0575 C.3       2 UNK        -0.1831 
     24 N          20.1846  -25.7406  -45.5377 N.am      2 UNK        -0.4498 
     25 C          20.4019  -26.8587  -46.2497 C.2       1 UNK         0.5027 
     26 O          21.4851  -27.4342  -46.3258 O.2       1 UNK        -0.4969 
     27 C          20.9278  -28.2557  -41.0648 C.2       3 UNK         0.5005 
     28 O          22.0385  -28.3959  -41.5882 O.2       3 UNK        -0.5279 
     29 N          20.6256  -28.7445  -39.8556 N.am      4 UNK        -0.4463 
     30 CA         21.5386  -29.4651  -38.9653 C.3       4 UNK         0.0283 
     31 CB         20.7494  -30.0162  -37.7684 C.3       4 UNK        -0.1875 
     32 C          22.7272  -28.6133  -38.4873 C.2       4 UNK         0.4949 
     33 O          23.7695  -29.1751  -38.1558 O.2       4 UNK        -0.5039 
     34 N          22.5811  -27.2805  -38.5209 N.am      5 UNK        -0.4663 
     35 CA         23.6500  -26.3053  -38.2841 C.3       5 UNK         0.0242 
     36 CB         23.0470  -24.8915  -38.2779 C.3       5 UNK        -0.1982 
     37 C          24.7967  -26.3955  -39.3096 C.2       5 UNK         0.5017 
     38 O          25.9428  -26.1218  -38.9530 O.2       5 UNK        -0.5012 
     39 N          24.4741  -26.8045  -40.5447 N.am      6 UNK        -0.4439 
     40 CA         25.4321  -27.0914  -41.6147 C.3       6 UNK         0.0297 
     41 CB         24.8547  -26.5590  -42.9359 C.3       6 UNK        -0.2006 
     42 C          25.7405  -28.5968  -41.7323 C.2       6 UNK         0.4892 
     43 O          26.4879  -28.9795  -42.6333 O.2       6 UNK        -0.5089 
     44 N          25.1454  -29.4212  -40.8536 N.am      7 UNK        -0.4243 
     45 CA         25.1532  -30.8896  -40.8486 C.3       7 UNK         0.0196 
     46 CB         26.5654  -31.4325  -40.5444 C.3       7 UNK        -0.2007 
     47 C          24.5351  -31.5008  -42.1229 C.2       7 UNK         0.5020 
     48 O          24.9435  -32.5841  -42.5450 O.2       7 UNK        -0.5147 
     49 N          23.5558  -30.8030  -42.7183 N.am      8 UNK        -0.4734 
     50 CA         22.9399  -31.1687  -43.9985 C.3       8 UNK         0.0238 
     51 CB         22.1313  -29.9719  -44.5170 C.3       8 UNK        -0.1912 
     52 C          22.0492  -32.4206  -43.9359 C.2       8 UNK         0.5038 
     53 O          21.8033  -33.0365  -44.9736 O.2       8 UNK        -0.5046 
     54 N          21.5739  -32.7596  -42.7328 N.am      9 UNK        -0.4200 
     55 CA         20.6677  -33.8857  -42.4629 C.3       9 UNK         0.0839 
     56 C          21.3484  -35.2849  -42.4907 C.2       9 UNK         0.5513 
     57 N          22.6707  -35.3831  -42.5699 N.am      9 UNK        -0.7519 
     58 O          20.6603  -36.3011  -42.4426 O.2       9 UNK        -0.4960 
     59 C59        19.8638  -33.6803  -41.1498 C.3       10 UNK        -0.0876 
     60 S60        19.1473  -32.0087  -41.0091 S.3       10 UNK        -0.2414 
     61 C61        17.5437  -32.2112  -41.8504 C.3       10 UNK         0.0169 
     62 H62        16.6174  -24.7797  -49.4193 H         1 UNK         0.0903 
     63 H63        16.2002  -24.8977  -47.7092 H         1 UNK         0.0903 
     64 H64        17.3010  -23.6343  -48.2628 H         1 UNK         0.0903 
     65 H65        17.2652  -26.5955  -46.7093 H         1 UNK         0.3096 
     66 H66        19.5089  -27.9368  -47.8654 H         1 UNK         0.1121 
     67 H67        19.4299  -29.3748  -45.8512 H         1 UNK         0.0849 
     68 H68        18.4084  -28.2392  -45.0217 H         1 UNK         0.0849 
     69 H69        14.9801  -29.6301  -45.7438 H         1 UNK         0.0865 
     70 H70        15.6363  -28.0191  -45.6370 H         1 UNK         0.0865 
     71 H71        16.7965  -31.3960  -44.3591 H         1 UNK         0.1346 
     72 H72        17.0404  -30.0398  -40.3014 H         1 UNK         0.1412 
     73 H73        15.7799  -27.3429  -43.3830 H         1 UNK         0.1426 
     74 H74        15.4693  -27.6733  -40.0312 H         1 UNK         0.0716 
     75 H75        16.0711  -26.4951  -41.1725 H         1 UNK         0.0716 
     76 H76        19.6781  -25.8794  -40.3171 H         1 UNK         0.0695 
     77 H77        18.4102  -25.8279  -41.4978 H         1 UNK         0.0695 
     78 H78        19.1028  -28.2884  -42.1176 H         1 UNK         0.0983 
     79 H79        19.7686  -27.1860  -43.8679 H         1 UNK         0.3095 
     80 H80        20.6269  -24.1159  -44.3791 H         1 UNK         0.0454 
     81 H81        23.0565  -25.8001  -45.1518 H         1 UNK         0.0851 
     82 H82        23.0540  -24.2292  -44.3738 H         1 UNK         0.0851 
     83 H83        22.4938  -24.3790  -46.0303 H         1 UNK         0.0851 
     84 H84        19.2549  -25.3471  -45.5955 H         1 UNK         0.2976 
     85 H85        19.6884  -28.5787  -39.5082 H         1 UNK         0.3116 
     86 H86        21.9457  -30.3099  -39.5249 H         1 UNK         0.0646 
     87 H87        19.9569  -30.6910  -38.0931 H         1 UNK         0.0847 
     88 H88        20.2930  -29.2177  -37.1821 H         1 UNK         0.0847 
     89 H89        21.3994  -30.5819  -37.0993 H         1 UNK         0.0847 
     90 H90        21.6842  -26.9108  -38.8004 H         1 UNK         0.3040 
     91 H91        24.0754  -26.5072  -37.2984 H         1 UNK         0.1015 
     92 H92        23.8143  -24.1411  -38.0819 H         1 UNK         0.0786 
     93 H93        22.2879  -24.7860  -37.5025 H         1 UNK         0.0786 
     94 H94        22.5871  -24.6448  -39.2362 H         1 UNK         0.0786 
     95 H95        23.5039  -27.0168  -40.7543 H         1 UNK         0.3172 
     96 H96        26.3761  -26.5773  -41.4237 H         1 UNK         0.0595 
     97 H97        23.9337  -27.0773  -43.2061 H         1 UNK         0.0839 
     98 H98        25.5584  -26.6926  -43.7585 H         1 UNK         0.0839 
     99 H99        24.6335  -25.4940  -42.8684 H         1 UNK         0.0839 
    100 H100       24.5887  -28.9981  -40.1213 H         1 UNK         0.2998 
    101 H101       24.5029  -31.1925  -40.0268 H         1 UNK         0.0822 
    102 H102       26.9720  -30.9907  -39.6347 H         1 UNK         0.0787 
    103 H103       26.5461  -32.5131  -40.3973 H         1 UNK         0.0787 
    104 H104       27.2623  -31.2286  -41.3579 H         1 UNK         0.0787 
    105 H105       23.2468  -29.9297  -42.3010 H         1 UNK         0.3055 
    106 H106       23.7426  -31.3760  -44.7098 H         1 UNK         0.1106 
    107 H107       21.7569  -30.1638  -45.5231 H         1 UNK         0.0828 
    108 H108       22.7427  -29.0706  -44.5663 H         1 UNK         0.0828 
    109 H109       21.2710  -29.7582  -43.8821 H         1 UNK         0.0828 
    110 H110       21.8234  -32.1868  -41.9414 H         1 UNK         0.2931 
    111 H111       19.9395  -33.9005  -43.2762 H         1 UNK         0.0412 
    112 H112       23.2452  -34.5542  -42.6173 H         1 UNK         0.3472 
    113 H113       23.0987  -36.2956  -42.5900 H         1 UNK         0.3472 
    114 H114       19.0660  -34.4208  -41.0651 H         1 UNK         0.0970 
    115 H115       20.5102  -33.8336  -40.2836 H         1 UNK         0.0970 
    116 H116       16.8389  -32.7033  -41.1790 H         1 UNK         0.0612 
    117 H117       17.6706  -32.8652  -42.7143 H         1 UNK         0.0612 
@<TRIPOS>BOND
     1    1    2 1    
     2    1   62 1    
     3    1   63 1    
     4    1   64 1    
     5    2    3 2    
     6    2    4 am   BACKBONE|DICT|INTERRES
     7    4    5 1    
     8    4   65 1    
     9    5    6 1    
    10    5   25 1    
    11    5   66 1    
    12    6    7 1    
    13    6   67 1    
    14    6   68 1    
    15    7    8 1    
    16    8    9 1    
    17    8   69 1    
    18    8   70 1    
    19    9   10 ar   
    20    9   14 ar   
    21   10   11 ar   
    22   10   71 1    
    23   11   12 ar   
    24   11   61 1    
    25   12   13 ar   
    26   12   72 1    
    27   13   14 ar   
    28   13   15 1    
    29   14   73 1    
    30   15   16 1    
    31   15   74 1    
    32   15   75 1    
    33   16   17 1    
    34   17   18 1    
    35   17   76 1    
    36   17   77 1    
    37   18   19 1    
    38   18   27 1    
    39   18   78 1    
    40   19   20 am   BACKBONE|DICT|INTERRES
    41   19   79 1    
    42   20   21 2    
    43   20   22 1    
    44   22   23 1    
    45   22   24 1    
    46   22   80 1    
    47   23   81 1    
    48   23   82 1    
    49   23   83 1    
    50   24   25 am   BACKBONE|DICT|INTERRES
    51   24   84 1    
    52   25   26 2    
    53   27   28 2    
    54   27   29 am   BACKBONE|DICT|INTERRES
    55   29   30 1    
    56   29   85 1    
    57   30   31 1    
    58   30   32 1    
    59   30   86 1    
    60   31   87 1    
    61   31   88 1    
    62   31   89 1    
    63   32   33 2    
    64   32   34 am   BACKBONE|DICT|INTERRES
    65   34   35 1    
    66   34   90 1    
    67   35   36 1    
    68   35   37 1    
    69   35   91 1    
    70   36   92 1    
    71   36   93 1    
    72   36   94 1    
    73   37   38 2    
    74   37   39 am   BACKBONE|DICT|INTERRES
    75   39   40 1    
    76   39   95 1    
    77   40   41 1    
    78   40   42 1    
    79   40   96 1    
    80   41   97 1    
    81   41   98 1    
    82   41   99 1    
    83   42   43 2    
    84   42   44 am   BACKBONE|DICT|INTERRES
    85   44   45 1    
    86   44  100 1    
    87   45   46 1    
    88   45   47 1    
    89   45  101 1    
    90   46  102 1    
    91   46  103 1    
    92   46  104 1    
    93   47   48 2    
    94   47   49 am   BACKBONE|DICT|INTERRES
    95   49   50 1    
    96   49  105 1    
    97   50   51 1    
    98   50   52 1    
    99   50  106 1    
   100   51  107 1    
   101   51  108 1    
   102   51  109 1    
   103   52   53 2    
   104   52   54 am   BACKBONE|DICT|INTERRES
   105   54   55 1    
   106   54  110 1    
   107   55   56 1    
   108   55   59 1    
   109   55  111 1    
   110   56   57 am   BACKBONE|DICT|INTERRES
   111   56   58 2    
   112   57  112 1    
   113   57  113 1    
   114   59   60 1    
   115   59  114 1    
   116   59  115 1    
   117   60   61 1    
   118   61  116 1    
   119   61  117 1    
@<TRIPOS>SUBSTRUCTURE
     1 UNK         1 GROUP             0       ****    0 ROOT    
