@<TRIPOS>MOLECULE
3R8
117   119    1
SMALL
USER_CHARGES


@<TRIPOS>ATOM
      1 CA         19.4231  -26.1454  -48.5170 C.3       0 UNK        -0.2013 
      2 C          18.3040  -25.2210  -48.0420 C.2       0 UNK         0.4866 
      3 O          18.0553  -24.2031  -48.6848 O.2       0 UNK        -0.5176 
      4 N          17.5920  -25.5200  -46.9447 N.am      1 UNK        -0.4884 
      5 CA         17.7820  -26.6543  -46.0305 C.3       1 UNK         0.0853 
      6 C6         16.6282  -26.7496  -44.9952 C.3       10 UNK        -0.0849 
      7 S7         15.2317  -27.7223  -45.6494 S.3       10 UNK        -0.2776 
      8 C8         14.7492  -28.7409  -44.2089 C.3       10 UNK         0.0316 
      9 C9         15.8936  -29.5632  -43.6200 C.ar      10 UNK        -0.0863 
     10 C10        16.6459  -30.4242  -44.4281 C.ar      10 UNK        -0.1009 
     11 C11        17.6887  -31.1766  -43.8805 C.ar      10 UNK        -0.0712 
     12 C12        17.9678  -31.0726  -42.5174 C.ar      10 UNK        -0.0894 
     13 C13        17.2421  -30.2054  -41.6977 C.ar      10 UNK        -0.0745 
     14 C14        16.1946  -29.4626  -42.2552 C.ar      10 UNK        -0.0972 
     15 C15        17.6135  -30.1085  -40.2178 C.3       10 UNK         0.0209 
     16 S16        17.5526  -28.4276  -39.5014 S.3       10 UNK        -0.2568 
     17 C17        18.5117  -27.3424  -40.6193 C.3       10 UNK        -0.0983 
     18 CA         19.7651  -27.9328  -41.3310 C.3       3 UNK         0.0876 
     19 N          20.1342  -27.1284  -42.4934 N.am      3 UNK        -0.4424 
     20 C          20.5775  -25.8653  -42.5023 C.2       2 UNK         0.4918 
     21 O          20.8797  -25.2413  -41.4847 O.2       2 UNK        -0.4875 
     22 CA         20.6380  -25.1496  -43.8699 C.3       2 UNK         0.0481 
     23 CB         21.9817  -25.3963  -44.5790 C.3       2 UNK        -0.1831 
     24 N          19.4924  -25.4326  -44.7552 N.am      2 UNK        -0.4498 
     25 C          19.1372  -26.6050  -45.3052 C.2       1 UNK         0.5027 
     26 O          19.8085  -27.6327  -45.2236 O.2       1 UNK        -0.4969 
     27 C          20.9965  -28.1784  -40.4411 C.2       3 UNK         0.5005 
     28 O          21.9647  -28.7704  -40.9242 O.2       3 UNK        -0.5279 
     29 N          20.9752  -27.7119  -39.1856 N.am      4 UNK        -0.4463 
     30 CA         22.0801  -27.8216  -38.2261 C.3       4 UNK         0.0283 
     31 CB         21.6605  -27.1900  -36.8901 C.3       4 UNK        -0.1875 
     32 C          23.4064  -27.2099  -38.7170 C.2       4 UNK         0.4949 
     33 O          24.4676  -27.7317  -38.3761 O.2       4 UNK        -0.5039 
     34 N          23.3314  -26.1623  -39.5527 N.am      5 UNK        -0.4663 
     35 CA         24.4915  -25.5264  -40.1883 C.3       5 UNK         0.0242 
     36 CB         24.0712  -24.1710  -40.7793 C.3       5 UNK        -0.1982 
     37 C          25.1665  -26.4000  -41.2640 C.2       5 UNK         0.5017 
     38 O          26.3222  -26.1403  -41.5994 O.2       5 UNK        -0.5012 
     39 N          24.4534  -27.4157  -41.7700 N.am      6 UNK        -0.4439 
     40 CA         24.9484  -28.4152  -42.7183 C.3       6 UNK         0.0297 
     41 CB         24.0380  -28.4185  -43.9596 C.3       6 UNK        -0.2006 
     42 C          25.0347  -29.8106  -42.0738 C.2       6 UNK         0.4892 
     43 O          25.0762  -30.8013  -42.8035 O.2       6 UNK        -0.5089 
     44 N          25.0364  -29.8751  -40.7309 N.am      7 UNK        -0.4243 
     45 CA         25.0666  -31.0892  -39.9036 C.3       7 UNK         0.0196 
     46 CB         26.4458  -31.7754  -39.9997 C.3       7 UNK        -0.2007 
     47 C          23.8966  -32.0476  -40.2058 C.2       7 UNK         0.5020 
     48 O          24.0994  -33.2572  -40.3239 O.2       7 UNK        -0.5147 
     49 N          22.6955  -31.4728  -40.3664 N.am      8 UNK        -0.4734 
     50 CA         21.4379  -32.1310  -40.7412 C.3       8 UNK         0.0238 
     51 CB         20.9550  -33.0893  -39.6325 C.3       8 UNK        -0.1912 
     52 C          21.4916  -32.7869  -42.1353 C.2       8 UNK         0.5038 
     53 O          20.8727  -33.8304  -42.3486 O.2       8 UNK        -0.5046 
     54 N          22.2287  -32.1469  -43.0518 N.am      9 UNK        -0.4200 
     55 CA         22.4989  -32.5820  -44.4318 C.3       9 UNK         0.0839 
     56 C          23.4644  -33.8019  -44.5372 C.2       9 UNK         0.5513 
     57 N          24.1435  -34.2135  -43.4720 N.am      9 UNK        -0.7519 
     58 O          23.6230  -34.3741  -45.6128 O.2       9 UNK        -0.4960 
     59 C59        21.2220  -32.7559  -45.3107 C.3       10 UNK        -0.0876 
     60 S60        20.0853  -31.3235  -45.2459 S.3       10 UNK        -0.2414 
     61 C61        18.5216  -32.1123  -44.7414 C.3       10 UNK         0.0169 
     62 H62        20.3329  -25.9718  -47.9430 H         1 UNK         0.0903 
     63 H63        19.1493  -27.1961  -48.4343 H         1 UNK         0.0903 
     64 H64        19.6512  -25.9531  -49.5653 H         1 UNK         0.0903 
     65 H65        16.8382  -24.8957  -46.6945 H         1 UNK         0.3096 
     66 H66        17.7894  -27.5724  -46.6221 H         1 UNK         0.1121 
     67 H67        16.2690  -25.7601  -44.7071 H         1 UNK         0.0849 
     68 H68        16.9641  -27.2101  -44.0644 H         1 UNK         0.0849 
     69 H69        14.3184  -28.0831  -43.4524 H         1 UNK         0.0865 
     70 H70        13.9504  -29.4195  -44.5111 H         1 UNK         0.0865 
     71 H71        16.4225  -30.5031  -45.4833 H         1 UNK         0.1346 
     72 H72        18.7638  -31.6703  -42.0998 H         1 UNK         0.1412 
     73 H73        15.6177  -28.8001  -41.6244 H         1 UNK         0.1426 
     74 H74        16.9305  -30.7443  -39.6532 H         1 UNK         0.0716 
     75 H75        18.6110  -30.5118  -40.0421 H         1 UNK         0.0716 
     76 H76        18.7608  -26.4265  -40.0809 H         1 UNK         0.0695 
     77 H77        17.8000  -27.0247  -41.3833 H         1 UNK         0.0695 
     78 H78        19.5180  -28.9036  -41.7504 H         1 UNK         0.0983 
     79 H79        19.9898  -27.5655  -43.4009 H         1 UNK         0.3095 
     80 H80        20.5818  -24.0815  -43.6539 H         1 UNK         0.0454 
     81 H81        22.0890  -24.7530  -45.4522 H         1 UNK         0.0851 
     82 H82        22.0820  -26.4271  -44.9143 H         1 UNK         0.0851 
     83 H83        22.8217  -25.1855  -43.9160 H         1 UNK         0.0851 
     84 H84        18.8580  -24.6564  -44.8876 H         1 UNK         0.2976 
     85 H85        20.1394  -27.2417  -38.8669 H         1 UNK         0.3116 
     86 H86        22.2578  -28.8860  -38.0585 H         1 UNK         0.0646 
     87 H87        20.7792  -27.6809  -36.4768 H         1 UNK         0.0847 
     88 H88        22.4559  -27.2807  -36.1488 H         1 UNK         0.0847 
     89 H89        21.4357  -26.1281  -36.9976 H         1 UNK         0.0847 
     90 H90        22.4183  -25.8140  -39.8199 H         1 UNK         0.3040 
     91 H91        25.2382  -25.3406  -39.4127 H         1 UNK         0.1015 
     92 H92        23.3545  -24.2874  -41.5920 H         1 UNK         0.0786 
     93 H93        24.9335  -23.6385  -41.1831 H         1 UNK         0.0786 
     94 H94        23.6206  -23.5285  -40.0227 H         1 UNK         0.0786 
     95 H95        23.5198  -27.5870  -41.4074 H         1 UNK         0.3172 
     96 H96        25.9599  -28.1674  -43.0452 H         1 UNK         0.0595 
     97 H97        22.9960  -28.6111  -43.6994 H         1 UNK         0.0839 
     98 H98        24.3426  -29.1790  -44.6798 H         1 UNK         0.0839 
     99 H99        24.0920  -27.4616  -44.4760 H         1 UNK         0.0839 
    100 H100       24.9859  -29.0042  -40.2168 H         1 UNK         0.2998 
    101 H101       24.9313  -30.7610  -38.8718 H         1 UNK         0.0822 
    102 H102       26.5156  -32.6125  -39.3040 H         1 UNK         0.0787 
    103 H103       26.6339  -32.1676  -40.9998 H         1 UNK         0.0787 
    104 H104       27.2510  -31.0831  -39.7539 H         1 UNK         0.0787 
    105 H105       22.6482  -30.4565  -40.3407 H         1 UNK         0.3055 
    106 H106       20.7042  -31.3304  -40.8230 H         1 UNK         0.1106 
    107 H107       20.9074  -32.5868  -38.6666 H         1 UNK         0.0828 
    108 H108       19.9548  -33.4664  -39.8497 H         1 UNK         0.0828 
    109 H109       21.6114  -33.9538  -39.5302 H         1 UNK         0.0828 
    110 H110       22.7494  -31.3332  -42.7561 H         1 UNK         0.2931 
    111 H111       23.0629  -31.7551  -44.8651 H         1 UNK         0.0412 
    112 H112       24.7715  -34.9964  -43.5600 H         1 UNK         0.3472 
    113 H113       24.0407  -33.7467  -42.5809 H         1 UNK         0.3472 
    114 H114       20.6963  -33.6697  -45.0315 H         1 UNK         0.0970 
    115 H115       21.5066  -32.8930  -46.3553 H         1 UNK         0.0970 
    116 H116       18.7197  -33.0237  -44.1757 H         1 UNK         0.0612 
    117 H117       17.9686  -32.4155  -45.6315 H         1 UNK         0.0612 
@<TRIPOS>BOND
     1    1    2 1    
     2    1   62 1    
     3    1   63 1    
     4    1   64 1    
     5    2    3 2    
     6    2    4 am   BACKBONE|DICT|INTERRES
     7    4    5 1    
     8    4   65 1    
     9    5    6 1    
    10    5   25 1    
    11    5   66 1    
    12    6    7 1    
    13    6   67 1    
    14    6   68 1    
    15    7    8 1    
    16    8    9 1    
    17    8   69 1    
    18    8   70 1    
    19    9   10 ar   
    20    9   14 ar   
    21   10   11 ar   
    22   10   71 1    
    23   11   12 ar   
    24   11   61 1    
    25   12   13 ar   
    26   12   72 1    
    27   13   14 ar   
    28   13   15 1    
    29   14   73 1    
    30   15   16 1    
    31   15   74 1    
    32   15   75 1    
    33   16   17 1    
    34   17   18 1    
    35   17   76 1    
    36   17   77 1    
    37   18   19 1    
    38   18   27 1    
    39   18   78 1    
    40   19   20 am   BACKBONE|DICT|INTERRES
    41   19   79 1    
    42   20   21 2    
    43   20   22 1    
    44   22   23 1    
    45   22   24 1    
    46   22   80 1    
    47   23   81 1    
    48   23   82 1    
    49   23   83 1    
    50   24   25 am   BACKBONE|DICT|INTERRES
    51   24   84 1    
    52   25   26 2    
    53   27   28 2    
    54   27   29 am   BACKBONE|DICT|INTERRES
    55   29   30 1    
    56   29   85 1    
    57   30   31 1    
    58   30   32 1    
    59   30   86 1    
    60   31   87 1    
    61   31   88 1    
    62   31   89 1    
    63   32   33 2    
    64   32   34 am   BACKBONE|DICT|INTERRES
    65   34   35 1    
    66   34   90 1    
    67   35   36 1    
    68   35   37 1    
    69   35   91 1    
    70   36   92 1    
    71   36   93 1    
    72   36   94 1    
    73   37   38 2    
    74   37   39 am   BACKBONE|DICT|INTERRES
    75   39   40 1    
    76   39   95 1    
    77   40   41 1    
    78   40   42 1    
    79   40   96 1    
    80   41   97 1    
    81   41   98 1    
    82   41   99 1    
    83   42   43 2    
    84   42   44 am   BACKBONE|DICT|INTERRES
    85   44   45 1    
    86   44  100 1    
    87   45   46 1    
    88   45   47 1    
    89   45  101 1    
    90   46  102 1    
    91   46  103 1    
    92   46  104 1    
    93   47   48 2    
    94   47   49 am   BACKBONE|DICT|INTERRES
    95   49   50 1    
    96   49  105 1    
    97   50   51 1    
    98   50   52 1    
    99   50  106 1    
   100   51  107 1    
   101   51  108 1    
   102   51  109 1    
   103   52   53 2    
   104   52   54 am   BACKBONE|DICT|INTERRES
   105   54   55 1    
   106   54  110 1    
   107   55   56 1    
   108   55   59 1    
   109   55  111 1    
   110   56   57 am   BACKBONE|DICT|INTERRES
   111   56   58 2    
   112   57  112 1    
   113   57  113 1    
   114   59   60 1    
   115   59  114 1    
   116   59  115 1    
   117   60   61 1    
   118   61  116 1    
   119   61  117 1    
@<TRIPOS>SUBSTRUCTURE
     1 UNK         1 GROUP             0       ****    0 ROOT    
