@<TRIPOS>MOLECULE
3R8
117   119    1
SMALL
USER_CHARGES


@<TRIPOS>ATOM
      1 CA         14.1089  -21.8059  -45.8117 C.3       0 UNK        -0.2013 
      2 C          14.9758  -22.9215  -46.3760 C.2       0 UNK         0.4866 
      3 O          14.8423  -23.2678  -47.5500 O.2       0 UNK        -0.5176 
      4 N          15.8635  -23.4856  -45.5517 N.am      1 UNK        -0.4884 
      5 CA         16.8044  -24.5438  -45.9114 C.3       1 UNK         0.0853 
      6 C6         16.1355  -25.9435  -45.8946 C.3       10 UNK        -0.0849 
      7 S7         17.0628  -27.1782  -46.8660 S.3       10 UNK        -0.2776 
      8 C8         16.1112  -28.6907  -46.5186 C.3       10 UNK         0.0316 
      9 C9         16.5309  -29.3458  -45.2095 C.ar      10 UNK        -0.0863 
     10 C10        17.5610  -30.2915  -45.1989 C.ar      10 UNK        -0.1009 
     11 C11        17.9214  -30.9374  -44.0122 C.ar      10 UNK        -0.0712 
     12 C12        17.2486  -30.6276  -42.8279 C.ar      10 UNK        -0.0894 
     13 C13        16.2405  -29.6581  -42.8189 C.ar      10 UNK        -0.0745 
     14 C14        15.8758  -29.0317  -44.0149 C.ar      10 UNK        -0.0972 
     15 C15        15.5567  -29.2753  -41.5140 C.3       10 UNK         0.0209 
     16 S16        16.7298  -28.5829  -40.3021 S.3       10 UNK        -0.2568 
     17 C17        17.4168  -27.1454  -41.1981 C.3       10 UNK        -0.0983 
     18 CA         18.7935  -27.4351  -41.8522 C.3       3 UNK         0.0876 
     19 N          19.1870  -26.3555  -42.7559 N.am      3 UNK        -0.4424 
     20 C          20.2505  -26.3464  -43.5705 C.2       2 UNK         0.4918 
     21 O          21.0948  -27.2441  -43.6084 O.2       2 UNK        -0.4875 
     22 CA         20.3555  -25.1393  -44.5273 C.3       2 UNK         0.0481 
     23 CB         21.5686  -25.2311  -45.4713 C.3       2 UNK        -0.1831 
     24 N          19.1439  -24.9993  -45.3405 N.am      2 UNK        -0.4498 
     25 C          17.9864  -24.4657  -44.9318 C.2       1 UNK         0.5027 
     26 O          17.8211  -23.9735  -43.8106 O.2       1 UNK        -0.4969 
     27 C          19.8965  -27.7253  -40.8158 C.2       3 UNK         0.5005 
     28 O          20.1443  -26.8913  -39.9415 O.2       3 UNK        -0.5279 
     29 N          20.5454  -28.8906  -40.9639 N.am      4 UNK        -0.4463 
     30 CA         21.6423  -29.4072  -40.1393 C.3       4 UNK         0.0283 
     31 CB         21.1415  -29.7469  -38.7200 C.3       4 UNK        -0.1875 
     32 C          22.8980  -28.5105  -40.1316 C.2       4 UNK         0.4949 
     33 O          23.6495  -28.5305  -39.1568 O.2       4 UNK        -0.5039 
     34 N          23.1222  -27.7499  -41.2160 N.am      5 UNK        -0.4663 
     35 CA         24.2749  -26.8527  -41.3641 C.3       5 UNK         0.0242 
     36 CB         24.0861  -25.9622  -42.6004 C.3       5 UNK        -0.1982 
     37 C          25.6096  -27.6112  -41.4351 C.2       5 UNK         0.5017 
     38 O          26.5759  -27.2104  -40.7860 O.2       5 UNK        -0.5012 
     39 N          25.6175  -28.7274  -42.1749 N.am      6 UNK        -0.4439 
     40 CA         26.7239  -29.6823  -42.2464 C.3       6 UNK         0.0297 
     41 CB         26.8039  -30.2550  -43.6739 C.3       6 UNK        -0.2006 
     42 C          26.5416  -30.7714  -41.1745 C.2       6 UNK         0.4892 
     43 O          26.3935  -31.9478  -41.5138 O.2       6 UNK        -0.5089 
     44 N          26.4899  -30.3445  -39.9037 N.am      7 UNK        -0.4243 
     45 CA         26.2822  -31.1117  -38.6638 C.3       7 UNK         0.0196 
     46 CB         27.4171  -32.1298  -38.4374 C.3       7 UNK        -0.2007 
     47 C          24.9020  -31.7860  -38.5432 C.2       7 UNK         0.5020 
     48 O          24.2299  -31.6185  -37.5262 O.2       7 UNK        -0.5147 
     49 N          24.5099  -32.5345  -39.5757 N.am      8 UNK        -0.4734 
     50 CA         23.2363  -33.2389  -39.7158 C.3       8 UNK         0.0238 
     51 CB         23.2639  -34.5540  -38.9099 C.3       8 UNK        -0.1912 
     52 C          22.9243  -33.4527  -41.2074 C.2       8 UNK         0.5038 
     53 O          22.4232  -34.5142  -41.5812 O.2       8 UNK        -0.5046 
     54 N          23.2562  -32.4477  -42.0324 N.am      9 UNK        -0.4200 
     55 CA         23.1788  -32.4683  -43.5040 C.3       9 UNK         0.0839 
     56 C          24.1726  -33.4775  -44.1582 C.2       9 UNK         0.5513 
     57 N          25.3608  -33.6708  -43.5983 N.am      9 UNK        -0.7519 
     58 O          23.8809  -34.0811  -45.1879 O.2       9 UNK        -0.4960 
     59 C59        21.7271  -32.6038  -44.0475 C.3       10 UNK        -0.0876 
     60 S60        20.6213  -31.2573  -43.5107 S.3       10 UNK        -0.2414 
     61 C61        19.0291  -31.9773  -44.0131 C.3       10 UNK         0.0169 
     62 H62        14.3309  -21.6076  -44.7632 H         1 UNK         0.0903 
     63 H63        14.2697  -20.8854  -46.3723 H         1 UNK         0.0903 
     64 H64        13.0555  -22.0733  -45.8902 H         1 UNK         0.0903 
     65 H65        15.9808  -23.1483  -44.6028 H         1 UNK         0.3096 
     66 H66        17.1842  -24.3287  -46.9134 H         1 UNK         0.1121 
     67 H67        15.1359  -25.8857  -46.3285 H         1 UNK         0.0849 
     68 H68        15.9975  -26.2968  -44.8716 H         1 UNK         0.0849 
     69 H69        15.0434  -28.4659  -46.5100 H         1 UNK         0.0865 
     70 H70        16.2606  -29.3916  -47.3413 H         1 UNK         0.0865 
     71 H71        18.0769  -30.5323  -46.1186 H         1 UNK         0.1346 
     72 H72        17.5287  -31.1195  -41.9061 H         1 UNK         0.1412 
     73 H73        15.0813  -28.2984  -44.0160 H         1 UNK         0.1426 
     74 H74        15.0848  -30.1602  -41.0851 H         1 UNK         0.0716 
     75 H75        14.7577  -28.5525  -41.6865 H         1 UNK         0.0716 
     76 H76        17.4902  -26.3076  -40.5022 H         1 UNK         0.0695 
     77 H77        16.6983  -26.8357  -41.9589 H         1 UNK         0.0695 
     78 H78        18.6831  -28.3157  -42.4859 H         1 UNK         0.0983 
     79 H79        18.5707  -25.5514  -42.7943 H         1 UNK         0.3095 
     80 H80        20.4777  -24.2446  -43.9134 H         1 UNK         0.0454 
     81 H81        21.5324  -26.1280  -46.0910 H         1 UNK         0.0851 
     82 H82        22.5019  -25.2600  -44.9109 H         1 UNK         0.0851 
     83 H83        21.6224  -24.3674  -46.1340 H         1 UNK         0.0851 
     84 H84        19.1667  -25.4445  -46.2479 H         1 UNK         0.2976 
     85 H85        20.2956  -29.4727  -41.7543 H         1 UNK         0.3116 
     86 H86        21.9492  -30.3421  -40.6069 H         1 UNK         0.0646 
     87 H87        20.8622  -28.8508  -38.1652 H         1 UNK         0.0847 
     88 H88        21.9124  -30.2570  -38.1415 H         1 UNK         0.0847 
     89 H89        20.2740  -30.4060  -38.7515 H         1 UNK         0.0847 
     90 H90        22.4436  -27.7591  -41.9703 H         1 UNK         0.3040 
     91 H91        24.3118  -26.2077  -40.4831 H         1 UNK         0.1015 
     92 H92        24.0009  -26.5531  -43.5132 H         1 UNK         0.0786 
     93 H93        24.9305  -25.2832  -42.7270 H         1 UNK         0.0786 
     94 H94        23.1896  -25.3489  -42.5094 H         1 UNK         0.0786 
     95 H95        24.7650  -28.9787  -42.6537 H         1 UNK         0.3172 
     96 H96        27.6700  -29.1773  -42.0402 H         1 UNK         0.0595 
     97 H97        27.6144  -30.9802  -43.7595 H         1 UNK         0.0839 
     98 H98        26.9973  -29.4689  -44.4039 H         1 UNK         0.0839 
     99 H99        25.8836  -30.7603  -43.9648 H         1 UNK         0.0839 
    100 H100       26.5627  -29.3434  -39.7679 H         1 UNK         0.2998 
    101 H101       26.3366  -30.3787  -37.8571 H         1 UNK         0.0822 
    102 H102       27.2977  -32.6378  -37.4794 H         1 UNK         0.0787 
    103 H103       27.4396  -32.8989  -39.2100 H         1 UNK         0.0787 
    104 H104       28.3908  -31.6401  -38.4249 H         1 UNK         0.0787 
    105 H105       25.1580  -32.6028  -40.3594 H         1 UNK         0.3055 
    106 H106       22.4388  -32.6079  -39.3178 H         1 UNK         0.1106 
    107 H107       22.3093  -35.0773  -38.9781 H         1 UNK         0.0828 
    108 H108       24.0366  -35.2308  -39.2760 H         1 UNK         0.0828 
    109 H109       23.4525  -34.3709  -37.8522 H         1 UNK         0.0828 
    110 H110       23.6867  -31.6302  -41.6312 H         1 UNK         0.2931 
    111 H111       23.5372  -31.4898  -43.8251 H         1 UNK         0.0412 
    112 H112       25.6562  -33.1336  -42.7888 H         1 UNK         0.3472 
    113 H113       26.0009  -34.3222  -44.0234 H         1 UNK         0.3472 
    114 H114       21.2969  -33.5636  -43.7576 H         1 UNK         0.0970 
    115 H115       21.7306  -32.5947  -45.1390 H         1 UNK         0.0970 
    116 H116       19.1255  -32.4149  -45.0082 H         1 UNK         0.0612 
    117 H117       18.7754  -32.7968  -43.3388 H         1 UNK         0.0612 
@<TRIPOS>BOND
     1    1    2 1    
     2    1   62 1    
     3    1   63 1    
     4    1   64 1    
     5    2    3 2    
     6    2    4 am   BACKBONE|DICT|INTERRES
     7    4    5 1    
     8    4   65 1    
     9    5    6 1    
    10    5   25 1    
    11    5   66 1    
    12    6    7 1    
    13    6   67 1    
    14    6   68 1    
    15    7    8 1    
    16    8    9 1    
    17    8   69 1    
    18    8   70 1    
    19    9   10 ar   
    20    9   14 ar   
    21   10   11 ar   
    22   10   71 1    
    23   11   12 ar   
    24   11   61 1    
    25   12   13 ar   
    26   12   72 1    
    27   13   14 ar   
    28   13   15 1    
    29   14   73 1    
    30   15   16 1    
    31   15   74 1    
    32   15   75 1    
    33   16   17 1    
    34   17   18 1    
    35   17   76 1    
    36   17   77 1    
    37   18   19 1    
    38   18   27 1    
    39   18   78 1    
    40   19   20 am   BACKBONE|DICT|INTERRES
    41   19   79 1    
    42   20   21 2    
    43   20   22 1    
    44   22   23 1    
    45   22   24 1    
    46   22   80 1    
    47   23   81 1    
    48   23   82 1    
    49   23   83 1    
    50   24   25 am   BACKBONE|DICT|INTERRES
    51   24   84 1    
    52   25   26 2    
    53   27   28 2    
    54   27   29 am   BACKBONE|DICT|INTERRES
    55   29   30 1    
    56   29   85 1    
    57   30   31 1    
    58   30   32 1    
    59   30   86 1    
    60   31   87 1    
    61   31   88 1    
    62   31   89 1    
    63   32   33 2    
    64   32   34 am   BACKBONE|DICT|INTERRES
    65   34   35 1    
    66   34   90 1    
    67   35   36 1    
    68   35   37 1    
    69   35   91 1    
    70   36   92 1    
    71   36   93 1    
    72   36   94 1    
    73   37   38 2    
    74   37   39 am   BACKBONE|DICT|INTERRES
    75   39   40 1    
    76   39   95 1    
    77   40   41 1    
    78   40   42 1    
    79   40   96 1    
    80   41   97 1    
    81   41   98 1    
    82   41   99 1    
    83   42   43 2    
    84   42   44 am   BACKBONE|DICT|INTERRES
    85   44   45 1    
    86   44  100 1    
    87   45   46 1    
    88   45   47 1    
    89   45  101 1    
    90   46  102 1    
    91   46  103 1    
    92   46  104 1    
    93   47   48 2    
    94   47   49 am   BACKBONE|DICT|INTERRES
    95   49   50 1    
    96   49  105 1    
    97   50   51 1    
    98   50   52 1    
    99   50  106 1    
   100   51  107 1    
   101   51  108 1    
   102   51  109 1    
   103   52   53 2    
   104   52   54 am   BACKBONE|DICT|INTERRES
   105   54   55 1    
   106   54  110 1    
   107   55   56 1    
   108   55   59 1    
   109   55  111 1    
   110   56   57 am   BACKBONE|DICT|INTERRES
   111   56   58 2    
   112   57  112 1    
   113   57  113 1    
   114   59   60 1    
   115   59  114 1    
   116   59  115 1    
   117   60   61 1    
   118   61  116 1    
   119   61  117 1    
@<TRIPOS>SUBSTRUCTURE
     1 UNK         1 GROUP             0       ****    0 ROOT    
