@<TRIPOS>MOLECULE
3R8
117   119    1
SMALL
USER_CHARGES


@<TRIPOS>ATOM
      1 CA         14.5099  -23.4876  -41.3812 C.3       0 UNK        -0.2013 
      2 C          15.4362  -23.8687  -42.5264 C.2       0 UNK         0.4866 
      3 O          15.5825  -23.1003  -43.4776 O.2       0 UNK        -0.5176 
      4 N          16.0555  -25.0529  -42.4479 N.am      1 UNK        -0.4884 
      5 CA         17.0134  -25.5673  -43.4315 C.3       1 UNK         0.0853 
      6 C6         17.2983  -27.0737  -43.2235 C.3       10 UNK        -0.0849 
      7 S7         15.8039  -28.1116  -43.3873 S.3       10 UNK        -0.2776 
      8 C8         15.9883  -28.8210  -45.0587 C.3       10 UNK         0.0316 
      9 C9         17.2859  -29.6022  -45.2189 C.ar      10 UNK        -0.0863 
     10 C10        17.5314  -30.7331  -44.4373 C.ar      10 UNK        -0.1009 
     11 C11        18.7402  -31.4243  -44.5493 C.ar      10 UNK        -0.0712 
     12 C12        19.7004  -30.9887  -45.4690 C.ar      10 UNK        -0.0894 
     13 C13        19.4712  -29.8563  -46.2591 C.ar      10 UNK        -0.0745 
     14 C14        18.2508  -29.1800  -46.1371 C.ar      10 UNK        -0.0972 
     15 C15        20.5304  -29.4013  -47.2631 C.3       10 UNK         0.0209 
     16 S16        20.6487  -27.5834  -47.4279 S.3       10 UNK        -0.2568 
     17 C17        22.3070  -27.1665  -46.7736 C.3       10 UNK        -0.0983 
     18 CA         22.3124  -26.3695  -45.4384 C.3       3 UNK         0.0876 
     19 N          21.2338  -25.3826  -45.3520 N.am      3 UNK        -0.4424 
     20 C          21.2490  -24.2909  -44.5766 C.2       2 UNK         0.4918 
     21 O          22.1959  -23.9646  -43.8609 O.2       2 UNK        -0.4875 
     22 CA         19.9881  -23.4119  -44.6133 C.3       2 UNK         0.0481 
     23 CB         19.9516  -22.5638  -45.8953 C.3       2 UNK        -0.1831 
     24 N          18.7548  -24.1965  -44.5027 N.am      2 UNK        -0.4498 
     25 C          18.3283  -24.7645  -43.3655 C.2       1 UNK         0.5027 
     26 O          18.9284  -24.6842  -42.2910 O.2       1 UNK        -0.4969 
     27 C          22.3305  -27.2874  -44.2054 C.2       3 UNK         0.5005 
     28 O          23.3649  -27.3950  -43.5438 O.2       3 UNK        -0.5279 
     29 N          21.1953  -27.9498  -43.9317 N.am      4 UNK        -0.4463 
     30 CA         20.9540  -28.8615  -42.8009 C.3       4 UNK         0.0283 
     31 CB         20.8367  -28.0557  -41.4914 C.3       4 UNK        -0.1875 
     32 C          21.9748  -30.0181  -42.6884 C.2       4 UNK         0.4949 
     33 O          22.2462  -30.4956  -41.5849 O.2       4 UNK        -0.5039 
     34 N          22.5564  -30.4183  -43.8303 N.am      5 UNK        -0.4663 
     35 CA         23.6592  -31.3784  -43.9741 C.3       5 UNK         0.0242 
     36 CB         23.1874  -32.8046  -43.6154 C.3       5 UNK        -0.1982 
     37 C          24.9324  -30.9444  -43.2137 C.2       5 UNK         0.5017 
     38 O          25.6354  -31.7931  -42.6663 O.2       5 UNK        -0.5012 
     39 N          25.1876  -29.6254  -43.1878 N.am      6 UNK        -0.4439 
     40 CA         26.2062  -28.9245  -42.3961 C.3       6 UNK         0.0297 
     41 CB         27.6365  -29.3977  -42.7364 C.3       6 UNK        -0.2006 
     42 C          25.8793  -28.9690  -40.8910 C.2       6 UNK         0.4892 
     43 O          26.7651  -29.2227  -40.0728 O.2       6 UNK        -0.5089 
     44 N          24.5992  -28.7165  -40.5727 N.am      7 UNK        -0.4243 
     45 CA         23.9784  -28.7477  -39.2415 C.3       7 UNK         0.0196 
     46 CB         24.5041  -27.5890  -38.3677 C.3       7 UNK        -0.2007 
     47 C          24.0994  -30.1262  -38.5626 C.2       7 UNK         0.5020 
     48 O          24.4764  -30.2063  -37.3916 O.2       7 UNK        -0.5147 
     49 N          23.7923  -31.1856  -39.3209 N.am      8 UNK        -0.4734 
     50 CA         23.9127  -32.5790  -38.8890 C.3       8 UNK         0.0238 
     51 CB         24.8633  -33.3284  -39.8354 C.3       8 UNK        -0.1912 
     52 C          22.5600  -33.2990  -38.8167 C.2       8 UNK         0.5038 
     53 O          22.4014  -34.1463  -37.9359 O.2       8 UNK        -0.5046 
     54 N          21.6207  -32.9888  -39.7240 N.am      9 UNK        -0.4200 
     55 CA         20.2837  -33.6072  -39.7346 C.3       9 UNK         0.0839 
     56 C          19.3118  -32.9730  -38.6985 C.2       9 UNK         0.5513 
     57 N          18.2071  -33.6434  -38.3983 N.am      9 UNK        -0.7519 
     58 O          19.5372  -31.8850  -38.1714 O.2       9 UNK        -0.4960 
     59 C59        19.6881  -33.7105  -41.1649 C.3       10 UNK        -0.0876 
     60 S60        19.2722  -32.1147  -41.9350 S.3       10 UNK        -0.2414 
     61 C61        19.0072  -32.6282  -43.6595 C.3       10 UNK         0.0169 
     62 H62        13.4994  -23.3240  -41.7546 H         1 UNK         0.0903 
     63 H63        14.4669  -24.2624  -40.6159 H         1 UNK         0.0903 
     64 H64        14.8534  -22.5662  -40.9119 H         1 UNK         0.0903 
     65 H65        15.9022  -25.6438  -41.6431 H         1 UNK         0.3096 
     66 H66        16.5747  -25.4388  -44.4237 H         1 UNK         0.1121 
     67 H67        18.0646  -27.4153  -43.9191 H         1 UNK         0.0849 
     68 H68        17.7093  -27.2489  -42.2275 H         1 UNK         0.0849 
     69 H69        15.1460  -29.4855  -45.2564 H         1 UNK         0.0865 
     70 H70        15.9216  -28.0168  -45.7931 H         1 UNK         0.0865 
     71 H71        16.7917  -31.0597  -43.7188 H         1 UNK         0.1346 
     72 H72        20.6299  -31.5327  -45.5643 H         1 UNK         0.1412 
     73 H73        18.0507  -28.3148  -46.7538 H         1 UNK         0.1426 
     74 H74        20.2708  -29.8147  -48.2384 H         1 UNK         0.0716 
     75 H75        21.5053  -29.8183  -47.0088 H         1 UNK         0.0716 
     76 H76        22.7813  -26.5499  -47.5387 H         1 UNK         0.0695 
     77 H77        22.9333  -28.0583  -46.7114 H         1 UNK         0.0695 
     78 H78        23.2567  -25.8200  -45.4095 H         1 UNK         0.0983 
     79 H79        20.4243  -25.5666  -45.9265 H         1 UNK         0.3095 
     80 H80        20.0346  -22.7264  -43.7641 H         1 UNK         0.0454 
     81 H81        20.8565  -21.9616  -45.9892 H         1 UNK         0.0851 
     82 H82        19.1069  -21.8747  -45.8900 H         1 UNK         0.0851 
     83 H83        19.8766  -23.1794  -46.7925 H         1 UNK         0.0851 
     84 H84        18.1931  -24.2825  -45.3379 H         1 UNK         0.2976 
     85 H85        20.4230  -27.8352  -44.5732 H         1 UNK         0.3116 
     86 H86        19.9858  -29.3278  -42.9840 H         1 UNK         0.0646 
     87 H87        21.7728  -27.5591  -41.2379 H         1 UNK         0.0847 
     88 H88        20.0690  -27.2865  -41.5673 H         1 UNK         0.0847 
     89 H89        20.5644  -28.6999  -40.6541 H         1 UNK         0.0847 
     90 H90        22.2667  -29.9515  -44.6766 H         1 UNK         0.3040 
     91 H91        23.9351  -31.3821  -45.0298 H         1 UNK         0.1015 
     92 H92        23.9805  -33.5355  -43.7781 H         1 UNK         0.0786 
     93 H93        22.3431  -33.1064  -44.2340 H         1 UNK         0.0786 
     94 H94        22.8798  -32.8839  -42.5733 H         1 UNK         0.0786 
     95 H95        24.5092  -29.0071  -43.6237 H         1 UNK         0.3172 
     96 H96        26.1376  -27.8750  -42.6868 H         1 UNK         0.0595 
     97 H97        27.8248  -30.4153  -42.3935 H         1 UNK         0.0839 
     98 H98        28.3788  -28.7572  -42.2587 H         1 UNK         0.0839 
     99 H99        27.8221  -29.3639  -43.8098 H         1 UNK         0.0839 
    100 H100       23.9648  -28.5410  -41.3404 H         1 UNK         0.2998 
    101 H101       22.9109  -28.5853  -39.3915 H         1 UNK         0.0822 
    102 H102       23.9688  -27.5417  -37.4185 H         1 UNK         0.0787 
    103 H103       24.3697  -26.6272  -38.8625 H         1 UNK         0.0787 
    104 H104       25.5639  -27.7031  -38.1377 H         1 UNK         0.0787 
    105 H105       23.4249  -31.0134  -40.2549 H         1 UNK         0.3055 
    106 H106       24.3462  -32.6251  -37.8874 H         1 UNK         0.1106 
    107 H107       25.8358  -32.8385  -39.8906 H         1 UNK         0.0828 
    108 H108       25.0320  -34.3496  -39.4914 H         1 UNK         0.0828 
    109 H109       24.4635  -33.3887  -40.8471 H         1 UNK         0.0828 
    110 H110       21.7740  -32.2344  -40.3822 H         1 UNK         0.2931 
    111 H111       20.4142  -34.6415  -39.4086 H         1 UNK         0.0412 
    112 H112       17.5611  -33.2479  -37.7328 H         1 UNK         0.3472 
    113 H113       18.0072  -34.5382  -38.8176 H         1 UNK         0.3472 
    114 H114       20.3950  -34.2347  -41.8099 H         1 UNK         0.0970 
    115 H115       18.7880  -34.3273  -41.1553 H         1 UNK         0.0970 
    116 H116       19.8797  -33.1800  -44.0116 H         1 UNK         0.0612 
    117 H117       18.1609  -33.3149  -43.7075 H         1 UNK         0.0612 
@<TRIPOS>BOND
     1    1    2 1    
     2    1   62 1    
     3    1   63 1    
     4    1   64 1    
     5    2    3 2    
     6    2    4 am   BACKBONE|DICT|INTERRES
     7    4    5 1    
     8    4   65 1    
     9    5    6 1    
    10    5   25 1    
    11    5   66 1    
    12    6    7 1    
    13    6   67 1    
    14    6   68 1    
    15    7    8 1    
    16    8    9 1    
    17    8   69 1    
    18    8   70 1    
    19    9   10 ar   
    20    9   14 ar   
    21   10   11 ar   
    22   10   71 1    
    23   11   12 ar   
    24   11   61 1    
    25   12   13 ar   
    26   12   72 1    
    27   13   14 ar   
    28   13   15 1    
    29   14   73 1    
    30   15   16 1    
    31   15   74 1    
    32   15   75 1    
    33   16   17 1    
    34   17   18 1    
    35   17   76 1    
    36   17   77 1    
    37   18   19 1    
    38   18   27 1    
    39   18   78 1    
    40   19   20 am   BACKBONE|DICT|INTERRES
    41   19   79 1    
    42   20   21 2    
    43   20   22 1    
    44   22   23 1    
    45   22   24 1    
    46   22   80 1    
    47   23   81 1    
    48   23   82 1    
    49   23   83 1    
    50   24   25 am   BACKBONE|DICT|INTERRES
    51   24   84 1    
    52   25   26 2    
    53   27   28 2    
    54   27   29 am   BACKBONE|DICT|INTERRES
    55   29   30 1    
    56   29   85 1    
    57   30   31 1    
    58   30   32 1    
    59   30   86 1    
    60   31   87 1    
    61   31   88 1    
    62   31   89 1    
    63   32   33 2    
    64   32   34 am   BACKBONE|DICT|INTERRES
    65   34   35 1    
    66   34   90 1    
    67   35   36 1    
    68   35   37 1    
    69   35   91 1    
    70   36   92 1    
    71   36   93 1    
    72   36   94 1    
    73   37   38 2    
    74   37   39 am   BACKBONE|DICT|INTERRES
    75   39   40 1    
    76   39   95 1    
    77   40   41 1    
    78   40   42 1    
    79   40   96 1    
    80   41   97 1    
    81   41   98 1    
    82   41   99 1    
    83   42   43 2    
    84   42   44 am   BACKBONE|DICT|INTERRES
    85   44   45 1    
    86   44  100 1    
    87   45   46 1    
    88   45   47 1    
    89   45  101 1    
    90   46  102 1    
    91   46  103 1    
    92   46  104 1    
    93   47   48 2    
    94   47   49 am   BACKBONE|DICT|INTERRES
    95   49   50 1    
    96   49  105 1    
    97   50   51 1    
    98   50   52 1    
    99   50  106 1    
   100   51  107 1    
   101   51  108 1    
   102   51  109 1    
   103   52   53 2    
   104   52   54 am   BACKBONE|DICT|INTERRES
   105   54   55 1    
   106   54  110 1    
   107   55   56 1    
   108   55   59 1    
   109   55  111 1    
   110   56   57 am   BACKBONE|DICT|INTERRES
   111   56   58 2    
   112   57  112 1    
   113   57  113 1    
   114   59   60 1    
   115   59  114 1    
   116   59  115 1    
   117   60   61 1    
   118   61  116 1    
   119   61  117 1    
@<TRIPOS>SUBSTRUCTURE
     1 UNK         1 GROUP             0       ****    0 ROOT    
