@<TRIPOS>MOLECULE
3R8
117   119    1
SMALL
USER_CHARGES


@<TRIPOS>ATOM
      1 CA         15.7862  -25.1040  -45.8841 C.3       0 UNK        -0.2013 
      2 C          17.2029  -25.2688  -46.4108 C.2       0 UNK         0.4866 
      3 O          17.9240  -24.2797  -46.5417 O.2       0 UNK        -0.5176 
      4 N          17.5957  -26.5056  -46.7450 N.am      1 UNK        -0.4884 
      5 CA         18.8612  -26.8141  -47.4202 C.3       1 UNK         0.0853 
      6 C6         18.7998  -28.1776  -48.1655 C.3       10 UNK        -0.0849 
      7 S7         19.2081  -29.6860  -47.2128 S.3       10 UNK        -0.2776 
      8 C8         17.6683  -30.0510  -46.3072 C.3       10 UNK         0.0316 
      9 C9         17.8080  -29.7865  -44.8115 C.ar      10 UNK        -0.0863 
     10 C10        18.7894  -30.4580  -44.0746 C.ar      10 UNK        -0.1009 
     11 C11        18.8981  -30.2726  -42.6945 C.ar      10 UNK        -0.0712 
     12 C12        18.0151  -29.4059  -42.0459 C.ar      10 UNK        -0.0894 
     13 C13        17.0411  -28.7110  -42.7686 C.ar      10 UNK        -0.0745 
     14 C14        16.9362  -28.9136  -44.1505 C.ar      10 UNK        -0.0972 
     15 C15        16.0805  -27.7679  -42.0533 C.3       10 UNK         0.0209 
     16 S16        16.2828  -26.0405  -42.5955 S.3       10 UNK        -0.2568 
     17 C17        17.4409  -25.3110  -41.3861 C.3       10 UNK        -0.0983 
     18 CA         18.8298  -25.9891  -41.3042 C.3       3 UNK         0.0876 
     19 N          19.4426  -26.2039  -42.6184 N.am      3 UNK        -0.4424 
     20 C          20.5497  -26.9311  -42.8201 C.2       2 UNK         0.4918 
     21 O          21.1512  -27.5130  -41.9136 O.2       2 UNK        -0.4875 
     22 CA         21.0714  -27.0213  -44.2612 C.3       2 UNK         0.0481 
     23 CB         21.9661  -28.2561  -44.4834 C.3       2 UNK        -0.1831 
     24 N          19.9760  -27.0097  -45.2321 N.am      2 UNK        -0.4498 
     25 C          20.1021  -26.6469  -46.5161 C.2       1 UNK         0.5027 
     26 O          21.1415  -26.1963  -47.0017 O.2       1 UNK        -0.4969 
     27 C          19.7844  -25.1857  -40.3975 C.2       3 UNK         0.5005 
     28 O          20.4155  -24.2383  -40.8733 O.2       3 UNK        -0.5279 
     29 N          19.9184  -25.6114  -39.1332 N.am      4 UNK        -0.4463 
     30 CA         20.8586  -25.1353  -38.1033 C.3       4 UNK         0.0283 
     31 CB         20.6748  -23.6349  -37.8008 C.3       4 UNK        -0.1875 
     32 C          22.3395  -25.4717  -38.3790 C.2       4 UNK         0.4949 
     33 O          23.0713  -25.7428  -37.4271 O.2       4 UNK        -0.5039 
     34 N          22.7558  -25.4779  -39.6531 N.am      5 UNK        -0.4663 
     35 CA         24.0836  -25.9014  -40.1099 C.3       5 UNK         0.0242 
     36 CB         24.2645  -25.5154  -41.5873 C.3       5 UNK        -0.1982 
     37 C          24.3262  -27.4077  -39.9102 C.2       5 UNK         0.5017 
     38 O          25.4405  -27.7981  -39.5620 O.2       5 UNK        -0.5012 
     39 N          23.2727  -28.2112  -40.1222 N.am      6 UNK        -0.4439 
     40 CA         23.1915  -29.6615  -39.9152 C.3       6 UNK         0.0297 
     41 CB         23.4099  -30.0285  -38.4324 C.3       6 UNK        -0.2006 
     42 C          24.0656  -30.4993  -40.8682 C.2       6 UNK         0.4892 
     43 O          24.3329  -31.6658  -40.5719 O.2       6 UNK        -0.5089 
     44 N          24.4617  -29.9241  -42.0132 N.am      7 UNK        -0.4243 
     45 CA         25.1397  -30.6362  -43.0999 C.3       7 UNK         0.0196 
     46 CB         25.6148  -29.6357  -44.1654 C.3       7 UNK        -0.2007 
     47 C          24.2075  -31.6951  -43.7113 C.2       7 UNK         0.5020 
     48 O          23.0134  -31.4354  -43.8618 O.2       7 UNK        -0.5147 
     49 N          24.7548  -32.8825  -43.9969 N.am      8 UNK        -0.4734 
     50 CA         24.0727  -34.1182  -44.4194 C.3       8 UNK         0.0238 
     51 CB         23.2612  -33.9229  -45.7166 C.3       8 UNK        -0.1912 
     52 C          23.2188  -34.7814  -43.3185 C.2       8 UNK         0.5038 
     53 O          23.2011  -36.0113  -43.2507 O.2       8 UNK        -0.5046 
     54 N          22.5537  -33.9844  -42.4714 N.am      9 UNK        -0.4200 
     55 CA         21.8296  -34.4421  -41.2751 C.3       9 UNK         0.0839 
     56 C          22.7645  -35.0516  -40.1946 C.2       9 UNK         0.5513 
     57 N          23.9075  -34.4405  -39.9087 N.am      9 UNK        -0.7519 
     58 O          22.4488  -36.0868  -39.6138 O.2       9 UNK        -0.4960 
     59 C59        20.9464  -33.3293  -40.6550 C.3       10 UNK        -0.0876 
     60 S60        19.6134  -32.7774  -41.7705 S.3       10 UNK        -0.2414 
     61 C61        19.9753  -31.0009  -41.9071 C.3       10 UNK         0.0169 
     62 H62        15.7745  -24.4149  -45.0402 H         1 UNK         0.0903 
     63 H63        15.1444  -24.6929  -46.6627 H         1 UNK         0.0903 
     64 H64        15.3602  -26.0515  -45.5554 H         1 UNK         0.0903 
     65 H65        16.9599  -27.2786  -46.6228 H         1 UNK         0.3096 
     66 H66        18.9725  -26.0548  -48.1989 H         1 UNK         0.1121 
     67 H67        17.8300  -28.3084  -48.6484 H         1 UNK         0.0849 
     68 H68        19.5148  -28.1459  -48.9897 H         1 UNK         0.0849 
     69 H69        16.8336  -29.4943  -46.7341 H         1 UNK         0.0865 
     70 H70        17.4274  -31.1056  -46.4483 H         1 UNK         0.0865 
     71 H71        19.4685  -31.1361  -44.5742 H         1 UNK         0.1346 
     72 H72        18.0912  -29.2708  -40.9762 H         1 UNK         0.1412 
     73 H73        16.1618  -28.3985  -44.7015 H         1 UNK         0.1426 
     74 H74        16.1911  -27.8297  -40.9697 H         1 UNK         0.0716 
     75 H75        15.0590  -28.0818  -42.2723 H         1 UNK         0.0716 
     76 H76        16.9585  -25.3211  -40.4069 H         1 UNK         0.0695 
     77 H77        17.5516  -24.2583  -41.6546 H         1 UNK         0.0695 
     78 H78        18.6959  -26.9719  -40.8522 H         1 UNK         0.0983 
     79 H79        19.0205  -25.7166  -43.3940 H         1 UNK         0.3095 
     80 H80        21.6800  -26.1275  -44.4108 H         1 UNK         0.0454 
     81 H81        21.4086  -29.1834  -44.3507 H         1 UNK         0.0851 
     82 H82        22.7939  -28.2711  -43.7762 H         1 UNK         0.0851 
     83 H83        22.3979  -28.2682  -45.4836 H         1 UNK         0.0851 
     84 H84        19.0958  -27.4011  -44.9229 H         1 UNK         0.2976 
     85 H85        19.3694  -26.4125  -38.8515 H         1 UNK         0.3116 
     86 H86        20.5880  -25.6799  -37.1971 H         1 UNK         0.0646 
     87 H87        19.6377  -23.4015  -37.5605 H         1 UNK         0.0847 
     88 H88        21.2805  -23.3369  -36.9440 H         1 UNK         0.0847 
     89 H89        20.9760  -23.0058  -38.6387 H         1 UNK         0.0847 
     90 H90        22.0892  -25.1821  -40.3593 H         1 UNK         0.3040 
     91 H91        24.8302  -25.3659  -39.5190 H         1 UNK         0.1015 
     92 H92        23.5318  -26.0057  -42.2288 H         1 UNK         0.0786 
     93 H93        25.2547  -25.7998  -41.9463 H         1 UNK         0.0786 
     94 H94        24.1664  -24.4390  -41.7298 H         1 UNK         0.0786 
     95 H95        22.4320  -27.7877  -40.5098 H         1 UNK         0.3172 
     96 H96        22.1637  -29.9246  -40.1604 H         1 UNK         0.0595 
     97 H97        24.4423  -29.8636  -38.1228 H         1 UNK         0.0839 
     98 H98        22.7651  -29.4412  -37.7787 H         1 UNK         0.0839 
     99 H99        23.1822  -31.0796  -38.2506 H         1 UNK         0.0839 
    100 H100       24.1736  -28.9748  -42.1920 H         1 UNK         0.2998 
    101 H101       26.0152  -31.1322  -42.6751 H         1 UNK         0.0822 
    102 H102       26.2019  -30.1403  -44.9338 H         1 UNK         0.0787 
    103 H103       24.7810  -29.1474  -44.6690 H         1 UNK         0.0787 
    104 H104       26.2479  -28.8614  -43.7316 H         1 UNK         0.0787 
    105 H105       25.7434  -32.9927  -43.8133 H         1 UNK         0.3055 
    106 H106       24.8728  -34.8253  -44.6462 H         1 UNK         0.1106 
    107 H107       23.8715  -33.4830  -46.5051 H         1 UNK         0.0828 
    108 H108       22.8919  -34.8796  -46.0879 H         1 UNK         0.0828 
    109 H109       22.3918  -33.2822  -45.5670 H         1 UNK         0.0828 
    110 H110       22.5928  -32.9852  -42.6346 H         1 UNK         0.2931 
    111 H111       21.1617  -35.2433  -41.5987 H         1 UNK         0.0412 
    112 H112       24.5174  -34.8364  -39.2116 H         1 UNK         0.3472 
    113 H113       24.1288  -33.5356  -40.3163 H         1 UNK         0.3472 
    114 H114       20.4678  -33.6892  -39.7420 H         1 UNK         0.0970 
    115 H115       21.5622  -32.4802  -40.3540 H         1 UNK         0.0970 
    116 H116       20.0562  -30.5782  -40.9052 H         1 UNK         0.0612 
    117 H117       20.9423  -30.8548  -42.3879 H         1 UNK         0.0612 
@<TRIPOS>BOND
     1    1    2 1    
     2    1   62 1    
     3    1   63 1    
     4    1   64 1    
     5    2    3 2    
     6    2    4 am   BACKBONE|DICT|INTERRES
     7    4    5 1    
     8    4   65 1    
     9    5    6 1    
    10    5   25 1    
    11    5   66 1    
    12    6    7 1    
    13    6   67 1    
    14    6   68 1    
    15    7    8 1    
    16    8    9 1    
    17    8   69 1    
    18    8   70 1    
    19    9   10 ar   
    20    9   14 ar   
    21   10   11 ar   
    22   10   71 1    
    23   11   12 ar   
    24   11   61 1    
    25   12   13 ar   
    26   12   72 1    
    27   13   14 ar   
    28   13   15 1    
    29   14   73 1    
    30   15   16 1    
    31   15   74 1    
    32   15   75 1    
    33   16   17 1    
    34   17   18 1    
    35   17   76 1    
    36   17   77 1    
    37   18   19 1    
    38   18   27 1    
    39   18   78 1    
    40   19   20 am   BACKBONE|DICT|INTERRES
    41   19   79 1    
    42   20   21 2    
    43   20   22 1    
    44   22   23 1    
    45   22   24 1    
    46   22   80 1    
    47   23   81 1    
    48   23   82 1    
    49   23   83 1    
    50   24   25 am   BACKBONE|DICT|INTERRES
    51   24   84 1    
    52   25   26 2    
    53   27   28 2    
    54   27   29 am   BACKBONE|DICT|INTERRES
    55   29   30 1    
    56   29   85 1    
    57   30   31 1    
    58   30   32 1    
    59   30   86 1    
    60   31   87 1    
    61   31   88 1    
    62   31   89 1    
    63   32   33 2    
    64   32   34 am   BACKBONE|DICT|INTERRES
    65   34   35 1    
    66   34   90 1    
    67   35   36 1    
    68   35   37 1    
    69   35   91 1    
    70   36   92 1    
    71   36   93 1    
    72   36   94 1    
    73   37   38 2    
    74   37   39 am   BACKBONE|DICT|INTERRES
    75   39   40 1    
    76   39   95 1    
    77   40   41 1    
    78   40   42 1    
    79   40   96 1    
    80   41   97 1    
    81   41   98 1    
    82   41   99 1    
    83   42   43 2    
    84   42   44 am   BACKBONE|DICT|INTERRES
    85   44   45 1    
    86   44  100 1    
    87   45   46 1    
    88   45   47 1    
    89   45  101 1    
    90   46  102 1    
    91   46  103 1    
    92   46  104 1    
    93   47   48 2    
    94   47   49 am   BACKBONE|DICT|INTERRES
    95   49   50 1    
    96   49  105 1    
    97   50   51 1    
    98   50   52 1    
    99   50  106 1    
   100   51  107 1    
   101   51  108 1    
   102   51  109 1    
   103   52   53 2    
   104   52   54 am   BACKBONE|DICT|INTERRES
   105   54   55 1    
   106   54  110 1    
   107   55   56 1    
   108   55   59 1    
   109   55  111 1    
   110   56   57 am   BACKBONE|DICT|INTERRES
   111   56   58 2    
   112   57  112 1    
   113   57  113 1    
   114   59   60 1    
   115   59  114 1    
   116   59  115 1    
   117   60   61 1    
   118   61  116 1    
   119   61  117 1    
@<TRIPOS>SUBSTRUCTURE
     1 UNK         1 GROUP             0       ****    0 ROOT    
