@<TRIPOS>MOLECULE
3R8
117   119    1
SMALL
USER_CHARGES


@<TRIPOS>ATOM
      1 CA         14.9617  -24.3302  -47.2642 C.3       0 UNK        -0.2013 
      2 C          15.9274  -25.0567  -46.3400 C.2       0 UNK         0.4866 
      3 O          16.9318  -25.5954  -46.8066 O.2       0 UNK        -0.5176 
      4 N          15.6238  -25.0862  -45.0364 N.am      1 UNK        -0.4884 
      5 CA         16.4667  -25.6891  -43.9981 C.3       1 UNK         0.0853 
      6 C6         15.6242  -26.2494  -42.8200 C.3       10 UNK        -0.0849 
      7 S7         14.4285  -27.5668  -43.2479 S.3       10 UNK        -0.2776 
      8 C8         15.2571  -28.5756  -44.5313 C.3       10 UNK         0.0316 
      9 C9         16.6359  -29.1030  -44.1341 C.ar      10 UNK        -0.0863 
     10 C10        16.8544  -29.6962  -42.8851 C.ar      10 UNK        -0.1009 
     11 C11        18.1152  -30.1973  -42.5466 C.ar      10 UNK        -0.0712 
     12 C12        19.1582  -30.1148  -43.4734 C.ar      10 UNK        -0.0894 
     13 C13        18.9577  -29.5249  -44.7250 C.ar      10 UNK        -0.0745 
     14 C14        17.6942  -29.0227  -45.0480 C.ar      10 UNK        -0.0972 
     15 C15        20.0850  -29.4980  -45.7506 C.3       10 UNK         0.0209 
     16 S16        21.5974  -28.7004  -45.1207 S.3       10 UNK        -0.2568 
     17 C17        21.5258  -27.0142  -45.8292 C.3       10 UNK        -0.0983 
     18 CA         21.9194  -25.8683  -44.8538 C.3       3 UNK         0.0876 
     19 N          20.8554  -25.6249  -43.8806 N.am      3 UNK        -0.4424 
     20 C          20.7221  -24.5199  -43.1341 C.2       2 UNK         0.4918 
     21 O          21.4169  -23.5106  -43.2669 O.2       2 UNK        -0.4875 
     22 CA         19.6171  -24.5729  -42.0614 C.3       2 UNK         0.0481 
     23 CB         19.3373  -23.2085  -41.3946 C.3       2 UNK        -0.1831 
     24 N          18.3916  -25.1990  -42.5736 N.am      2 UNK        -0.4498 
     25 C          17.5685  -24.7195  -43.5204 C.2       1 UNK         0.5027 
     26 O          17.6680  -23.5936  -44.0155 O.2       1 UNK        -0.4969 
     27 C          23.2755  -26.1143  -44.1483 C.2       3 UNK         0.5005 
     28 O          23.3161  -26.3257  -42.9329 O.2       3 UNK        -0.5279 
     29 N          24.3654  -26.1559  -44.9274 N.am      4 UNK        -0.4463 
     30 CA         25.7252  -26.4333  -44.4415 C.3       4 UNK         0.0283 
     31 CB         26.7185  -26.2863  -45.6055 C.3       4 UNK        -0.1875 
     32 C          25.8978  -27.8086  -43.7622 C.2       4 UNK         0.4949 
     33 O          26.7941  -27.9599  -42.9321 O.2       4 UNK        -0.5039 
     34 N          25.0389  -28.7747  -44.1132 N.am      5 UNK        -0.4663 
     35 CA         25.0166  -30.1253  -43.5498 C.3       5 UNK         0.0242 
     36 CB         24.7078  -31.1226  -44.6800 C.3       5 UNK        -0.1982 
     37 C          24.0025  -30.2902  -42.4036 C.2       5 UNK         0.5017 
     38 O          23.9208  -31.3883  -41.8509 O.2       5 UNK        -0.5012 
     39 N          23.2367  -29.2426  -42.0534 N.am      6 UNK        -0.4439 
     40 CA         22.1149  -29.3184  -41.1045 C.3       6 UNK         0.0297 
     41 CB         21.2713  -28.0372  -41.1731 C.3       6 UNK        -0.2006 
     42 C          22.4950  -29.6456  -39.6505 C.2       6 UNK         0.4892 
     43 O          21.6163  -30.0347  -38.8809 O.2       6 UNK        -0.5089 
     44 N          23.7859  -29.5302  -39.3081 N.am      7 UNK        -0.4243 
     45 CA         24.3586  -30.0203  -38.0515 C.3       7 UNK         0.0196 
     46 CB         25.8143  -29.5406  -37.9363 C.3       7 UNK        -0.2007 
     47 C          24.2823  -31.5543  -37.9177 C.2       7 UNK         0.5020 
     48 O          24.1722  -32.0538  -36.7978 O.2       7 UNK        -0.5147 
     49 N          24.3260  -32.2656  -39.0529 N.am      8 UNK        -0.4734 
     50 CA         24.1137  -33.7104  -39.1427 C.3       8 UNK         0.0238 
     51 CB         25.1685  -34.3219  -40.0801 C.3       8 UNK        -0.1912 
     52 C          22.6977  -34.0291  -39.6470 C.2       8 UNK         0.5038 
     53 O          22.0734  -34.9561  -39.1301 O.2       8 UNK        -0.5046 
     54 N          22.2214  -33.2620  -40.6399 N.am      9 UNK        -0.4200 
     55 CA         20.9376  -33.4472  -41.3365 C.3       9 UNK         0.0839 
     56 C          20.8683  -34.7658  -42.1715 C.2       9 UNK         0.5513 
     57 N          21.9896  -35.2679  -42.6768 N.am      9 UNK        -0.7519 
     58 O          19.8032  -35.3411  -42.3779 O.2       9 UNK        -0.4960 
     59 C59        19.7172  -33.2057  -40.3986 C.3       10 UNK        -0.0876 
     60 S60        18.2230  -32.6505  -41.2944 S.3       10 UNK        -0.2414 
     61 C61        18.3514  -30.8391  -41.1875 C.3       10 UNK         0.0169 
     62 H62        15.4714  -23.5090  -47.7674 H         1 UNK         0.0903 
     63 H63        14.5836  -25.0138  -48.0240 H         1 UNK         0.0903 
     64 H64        14.1093  -23.9198  -46.7232 H         1 UNK         0.0903 
     65 H65        14.7977  -24.6081  -44.7059 H         1 UNK         0.3096 
     66 H66        17.0236  -26.5069  -44.4480 H         1 UNK         0.1121 
     67 H67        16.2660  -26.6737  -42.0465 H         1 UNK         0.0849 
     68 H68        15.0736  -25.4412  -42.3350 H         1 UNK         0.0849 
     69 H69        15.3142  -27.9923  -45.4514 H         1 UNK         0.0865 
     70 H70        14.6186  -29.4296  -44.7607 H         1 UNK         0.0865 
     71 H71        16.0402  -29.7735  -42.1775 H         1 UNK         0.1346 
     72 H72        20.1277  -30.5246  -43.2301 H         1 UNK         0.1412 
     73 H73        17.5299  -28.5798  -46.0216 H         1 UNK         0.1426 
     74 H74        19.7692  -29.0181  -46.6781 H         1 UNK         0.0716 
     75 H75        20.3286  -30.5281  -46.0136 H         1 UNK         0.0716 
     76 H76        20.5248  -26.8280  -46.2224 H         1 UNK         0.0695 
     77 H77        22.1827  -26.9997  -46.7003 H         1 UNK         0.0695 
     78 H78        22.0310  -24.9547  -45.4421 H         1 UNK         0.0983 
     79 H79        20.2533  -26.4110  -43.6936 H         1 UNK         0.3095 
     80 H80        19.9894  -25.2383  -41.2813 H         1 UNK         0.0454 
     81 H81        18.5446  -23.2844  -40.6507 H         1 UNK         0.0851 
     82 H82        19.0470  -22.4480  -42.1197 H         1 UNK         0.0851 
     83 H83        20.2267  -22.8391  -40.8829 H         1 UNK         0.0851 
     84 H84        18.2085  -26.1268  -42.2174 H         1 UNK         0.2976 
     85 H85        24.2645  -25.9938  -45.9196 H         1 UNK         0.3116 
     86 H86        25.9644  -25.6748  -43.6930 H         1 UNK         0.0646 
     87 H87        27.7421  -26.4577  -45.2691 H         1 UNK         0.0847 
     88 H88        26.6859  -25.2845  -46.0339 H         1 UNK         0.0847 
     89 H89        26.5151  -27.0019  -46.4032 H         1 UNK         0.0847 
     90 H90        24.3198  -28.5565  -44.7893 H         1 UNK         0.3040 
     91 H91        25.9990  -30.3731  -43.1416 H         1 UNK         0.1015 
     92 H92        25.4383  -31.0469  -45.4857 H         1 UNK         0.0786 
     93 H93        23.7182  -30.9573  -45.1075 H         1 UNK         0.0786 
     94 H94        24.7370  -32.1508  -44.3165 H         1 UNK         0.0786 
     95 H95        23.3802  -28.3484  -42.5132 H         1 UNK         0.3172 
     96 H96        21.4889  -30.1452  -41.4384 H         1 UNK         0.0595 
     97 H97        21.8465  -27.1595  -40.8772 H         1 UNK         0.0839 
     98 H98        20.4065  -28.0990  -40.5111 H         1 UNK         0.0839 
     99 H99        20.8919  -27.8741  -42.1802 H         1 UNK         0.0839 
    100 H100       24.4307  -29.1817  -40.0025 H         1 UNK         0.2998 
    101 H101       23.7854  -29.5878  -37.2285 H         1 UNK         0.0822 
    102 H102       26.4337  -29.9293  -38.7459 H         1 UNK         0.0787 
    103 H103       25.8769  -28.4524  -37.9570 H         1 UNK         0.0787 
    104 H104       26.2601  -29.8716  -36.9972 H         1 UNK         0.0787 
    105 H105       24.3891  -31.7672  -39.9342 H         1 UNK         0.3055 
    106 H106       24.2262  -34.1728  -38.1592 H         1 UNK         0.1106 
    107 H107       25.0264  -35.3991  -40.1782 H         1 UNK         0.0828 
    108 H108       25.1228  -33.8926  -41.0818 H         1 UNK         0.0828 
    109 H109       26.1760  -34.1628  -39.6956 H         1 UNK         0.0828 
    110 H110       22.8326  -32.5535  -41.0391 H         1 UNK         0.2931 
    111 H111       20.9290  -32.6509  -42.0815 H         1 UNK         0.0412 
    112 H112       22.8718  -34.8051  -42.5284 H         1 UNK         0.3472 
    113 H113       21.9490  -36.1176  -43.2177 H         1 UNK         0.3472 
    114 H114       19.4773  -34.1136  -39.8425 H         1 UNK         0.0970 
    115 H115       19.9617  -32.4589  -39.6413 H         1 UNK         0.0970 
    116 H116       17.6243  -30.4750  -40.4602 H         1 UNK         0.0612 
    117 H117       19.3292  -30.5449  -40.8087 H         1 UNK         0.0612 
@<TRIPOS>BOND
     1    1    2 1    
     2    1   62 1    
     3    1   63 1    
     4    1   64 1    
     5    2    3 2    
     6    2    4 am   BACKBONE|DICT|INTERRES
     7    4    5 1    
     8    4   65 1    
     9    5    6 1    
    10    5   25 1    
    11    5   66 1    
    12    6    7 1    
    13    6   67 1    
    14    6   68 1    
    15    7    8 1    
    16    8    9 1    
    17    8   69 1    
    18    8   70 1    
    19    9   10 ar   
    20    9   14 ar   
    21   10   11 ar   
    22   10   71 1    
    23   11   12 ar   
    24   11   61 1    
    25   12   13 ar   
    26   12   72 1    
    27   13   14 ar   
    28   13   15 1    
    29   14   73 1    
    30   15   16 1    
    31   15   74 1    
    32   15   75 1    
    33   16   17 1    
    34   17   18 1    
    35   17   76 1    
    36   17   77 1    
    37   18   19 1    
    38   18   27 1    
    39   18   78 1    
    40   19   20 am   BACKBONE|DICT|INTERRES
    41   19   79 1    
    42   20   21 2    
    43   20   22 1    
    44   22   23 1    
    45   22   24 1    
    46   22   80 1    
    47   23   81 1    
    48   23   82 1    
    49   23   83 1    
    50   24   25 am   BACKBONE|DICT|INTERRES
    51   24   84 1    
    52   25   26 2    
    53   27   28 2    
    54   27   29 am   BACKBONE|DICT|INTERRES
    55   29   30 1    
    56   29   85 1    
    57   30   31 1    
    58   30   32 1    
    59   30   86 1    
    60   31   87 1    
    61   31   88 1    
    62   31   89 1    
    63   32   33 2    
    64   32   34 am   BACKBONE|DICT|INTERRES
    65   34   35 1    
    66   34   90 1    
    67   35   36 1    
    68   35   37 1    
    69   35   91 1    
    70   36   92 1    
    71   36   93 1    
    72   36   94 1    
    73   37   38 2    
    74   37   39 am   BACKBONE|DICT|INTERRES
    75   39   40 1    
    76   39   95 1    
    77   40   41 1    
    78   40   42 1    
    79   40   96 1    
    80   41   97 1    
    81   41   98 1    
    82   41   99 1    
    83   42   43 2    
    84   42   44 am   BACKBONE|DICT|INTERRES
    85   44   45 1    
    86   44  100 1    
    87   45   46 1    
    88   45   47 1    
    89   45  101 1    
    90   46  102 1    
    91   46  103 1    
    92   46  104 1    
    93   47   48 2    
    94   47   49 am   BACKBONE|DICT|INTERRES
    95   49   50 1    
    96   49  105 1    
    97   50   51 1    
    98   50   52 1    
    99   50  106 1    
   100   51  107 1    
   101   51  108 1    
   102   51  109 1    
   103   52   53 2    
   104   52   54 am   BACKBONE|DICT|INTERRES
   105   54   55 1    
   106   54  110 1    
   107   55   56 1    
   108   55   59 1    
   109   55  111 1    
   110   56   57 am   BACKBONE|DICT|INTERRES
   111   56   58 2    
   112   57  112 1    
   113   57  113 1    
   114   59   60 1    
   115   59  114 1    
   116   59  115 1    
   117   60   61 1    
   118   61  116 1    
   119   61  117 1    
@<TRIPOS>SUBSTRUCTURE
     1 UNK         1 GROUP             0       ****    0 ROOT    
