@<TRIPOS>MOLECULE
3R8
117   119    1
SMALL
USER_CHARGES


@<TRIPOS>ATOM
      1 CA         20.1000  -24.3728  -39.7306 C.3       0 UNK        -0.2013 
      2 C          18.9648  -24.6978  -40.6902 C.2       0 UNK         0.4866 
      3 O          17.9504  -23.9992  -40.7013 O.2       0 UNK        -0.5176 
      4 N          19.1291  -25.7544  -41.4930 N.am      1 UNK        -0.4884 
      5 CA         18.2047  -26.1595  -42.5551 C.3       1 UNK         0.0853 
      6 C6         18.3368  -27.6807  -42.8142 C.3       10 UNK        -0.0849 
      7 S7         16.8928  -28.4132  -43.6654 S.3       10 UNK        -0.2776 
      8 C8         17.2451  -30.1984  -43.5387 C.3       10 UNK         0.0316 
      9 C9         18.6781  -30.5217  -43.9332 C.ar      10 UNK        -0.0863 
     10 C10        19.6095  -30.8645  -42.9514 C.ar      10 UNK        -0.1009 
     11 C11        20.9412  -31.1119  -43.2893 C.ar      10 UNK        -0.0712 
     12 C12        21.3455  -30.9930  -44.6232 C.ar      10 UNK        -0.0894 
     13 C13        20.4200  -30.6571  -45.6185 C.ar      10 UNK        -0.0745 
     14 C14        19.0834  -30.4386  -45.2674 C.ar      10 UNK        -0.0972 
     15 C15        20.8603  -30.5474  -47.0736 C.3       10 UNK         0.0209 
     16 S16        20.4055  -28.9541  -47.8360 S.3       10 UNK        -0.2568 
     17 C17        21.4927  -27.7987  -46.9389 C.3       10 UNK        -0.0983 
     18 CA         21.0714  -26.3213  -47.1478 C.3       3 UNK         0.0876 
     19 N          19.7183  -26.0737  -46.6361 N.am      3 UNK        -0.4424 
     20 C          18.9452  -25.0263  -46.9506 C.2       2 UNK         0.4918 
     21 O          19.2485  -24.1833  -47.7947 O.2       2 UNK        -0.4875 
     22 CA         17.6282  -24.8640  -46.1642 C.3       2 UNK         0.0481 
     23 CB         16.4442  -25.3681  -47.0042 C.3       2 UNK        -0.1831 
     24 N          17.6001  -25.5271  -44.8524 N.am      2 UNK        -0.4498 
     25 C          18.4476  -25.3217  -43.8335 C.2       1 UNK         0.5027 
     26 O          19.4043  -24.5448  -43.9006 O.2       1 UNK        -0.4969 
     27 C          22.1336  -25.3682  -46.5460 C.2       3 UNK         0.5005 
     28 O          23.2803  -25.4093  -46.9950 O.2       3 UNK        -0.5279 
     29 N          21.7584  -24.5525  -45.5442 N.am      4 UNK        -0.4463 
     30 CA         22.6139  -23.6831  -44.7264 C.3       4 UNK         0.0283 
     31 CB         23.3033  -22.5928  -45.5745 C.3       4 UNK        -0.1875 
     32 C          23.5911  -24.5072  -43.8691 C.2       4 UNK         0.4949 
     33 O          24.7709  -24.1684  -43.7623 O.2       4 UNK        -0.5039 
     34 N          23.0708  -25.5924  -43.2864 N.am      5 UNK        -0.4663 
     35 CA         23.7994  -26.5625  -42.4799 C.3       5 UNK         0.0242 
     36 CB         24.4337  -27.6199  -43.4038 C.3       5 UNK        -0.1982 
     37 C          22.8319  -27.2182  -41.4897 C.2       5 UNK         0.5017 
     38 O          21.6135  -27.1502  -41.6782 O.2       5 UNK        -0.5012 
     39 N          23.4012  -27.8634  -40.4707 N.am      6 UNK        -0.4439 
     40 CA         22.7182  -28.7020  -39.4956 C.3       6 UNK         0.0297 
     41 CB         22.1447  -27.8467  -38.3524 C.3       6 UNK        -0.2006 
     42 C          23.7463  -29.7157  -38.9830 C.2       6 UNK         0.4892 
     43 O          24.9232  -29.3683  -38.8532 O.2       6 UNK        -0.5089 
     44 N          23.2838  -30.9376  -38.7123 N.am      7 UNK        -0.4243 
     45 CA         24.0476  -32.0966  -38.2517 C.3       7 UNK         0.0196 
     46 CB         25.1076  -32.5285  -39.2951 C.3       7 UNK        -0.2007 
     47 C          23.0244  -33.2023  -37.9450 C.2       7 UNK         0.5020 
     48 O          21.8732  -32.8863  -37.6334 O.2       7 UNK        -0.5147 
     49 N          23.4191  -34.4754  -38.0914 N.am      8 UNK        -0.4734 
     50 CA         22.5427  -35.6504  -37.9609 C.3       8 UNK         0.0238 
     51 CB         23.3868  -36.9291  -38.0872 C.3       8 UNK        -0.1912 
     52 C          21.3719  -35.6748  -38.9656 C.2       8 UNK         0.5038 
     53 O          20.3418  -36.2855  -38.6786 O.2       8 UNK        -0.5046 
     54 N          21.5438  -34.9870  -40.1015 N.am      9 UNK        -0.4200 
     55 CA         20.4969  -34.6586  -41.0779 C.3       9 UNK         0.0839 
     56 C          19.4189  -33.6509  -40.5782 C.2       9 UNK         0.5513 
     57 N          19.6002  -32.9618  -39.4573 N.am      9 UNK        -0.7519 
     58 O          18.3810  -33.5053  -41.2176 O.2       9 UNK        -0.4960 
     59 C59        21.0934  -34.2421  -42.4544 C.3       10 UNK        -0.0876 
     60 S60        22.5896  -33.1834  -42.3911 S.3       10 UNK        -0.2414 
     61 C61        21.9344  -31.4939  -42.2015 C.3       10 UNK         0.0169 
     62 H62        20.9866  -24.9733  -39.9326 H         1 UNK         0.0903 
     63 H63        20.3785  -23.3232  -39.8204 H         1 UNK         0.0903 
     64 H64        19.7885  -24.5575  -38.7030 H         1 UNK         0.0903 
     65 H65        20.0092  -26.2678  -41.4701 H         1 UNK         0.3096 
     66 H66        17.1868  -25.9521  -42.2167 H         1 UNK         0.1121 
     67 H67        18.4429  -28.2065  -41.8634 H         1 UNK         0.0849 
     68 H68        19.2490  -27.8977  -43.3746 H         1 UNK         0.0849 
     69 H69        17.0414  -30.5306  -42.5193 H         1 UNK         0.0865 
     70 H70        16.5556  -30.7474  -44.1816 H         1 UNK         0.0865 
     71 H71        19.2967  -30.9301  -41.9185 H         1 UNK         0.1346 
     72 H72        22.3793  -31.1755  -44.8832 H         1 UNK         0.1412 
     73 H73        18.3635  -30.1720  -46.0293 H         1 UNK         0.1426 
     74 H74        20.3920  -31.3529  -47.6406 H         1 UNK         0.0716 
     75 H75        21.9380  -30.6894  -47.1688 H         1 UNK         0.0716 
     76 H76        21.4901  -28.0483  -45.8760 H         1 UNK         0.0695 
     77 H77        22.5113  -27.9695  -47.2930 H         1 UNK         0.0695 
     78 H78        21.0624  -26.1225  -48.2219 H         1 UNK         0.0983 
     79 H79        19.3711  -26.7385  -45.9613 H         1 UNK         0.3095 
     80 H80        17.4904  -23.7957  -45.9870 H         1 UNK         0.0454 
     81 H81        16.4160  -24.8750  -47.9770 H         1 UNK         0.0851 
     82 H82        16.5064  -26.4420  -47.1852 H         1 UNK         0.0851 
     83 H83        15.4923  -25.1639  -46.5139 H         1 UNK         0.0851 
     84 H84        16.8788  -26.2251  -44.7212 H         1 UNK         0.2976 
     85 H85        20.7954  -24.6048  -45.2219 H         1 UNK         0.3116 
     86 H86        21.9478  -23.1773  -44.0257 H         1 UNK         0.0646 
     87 H87        23.8150  -21.8717  -44.9361 H         1 UNK         0.0847 
     88 H88        22.5802  -22.0395  -46.1734 H         1 UNK         0.0847 
     89 H89        24.0505  -23.0101  -46.2498 H         1 UNK         0.0847 
     90 H90        22.0776  -25.7724  -43.3624 H         1 UNK         0.3040 
     91 H91        24.5787  -26.0496  -41.9113 H         1 UNK         0.1015 
     92 H92        25.1241  -27.1639  -44.1138 H         1 UNK         0.0786 
     93 H93        23.6763  -28.1587  -43.9756 H         1 UNK         0.0786 
     94 H94        24.9992  -28.3578  -42.8335 H         1 UNK         0.0786 
     95 H95        24.4113  -27.8980  -40.3931 H         1 UNK         0.3172 
     96 H96        21.9056  -29.2386  -39.9904 H         1 UNK         0.0595 
     97 H97        21.6643  -28.4727  -37.5994 H         1 UNK         0.0839 
     98 H98        21.3925  -27.1484  -38.7186 H         1 UNK         0.0839 
     99 H99        22.9233  -27.2702  -37.8513 H         1 UNK         0.0839 
    100 H100       22.2876  -31.1143  -38.7613 H         1 UNK         0.2998 
    101 H101       24.5446  -31.8342  -37.3160 H         1 UNK         0.0822 
    102 H102       25.8026  -31.7223  -39.5269 H         1 UNK         0.0787 
    103 H103       25.7173  -33.3549  -38.9291 H         1 UNK         0.0787 
    104 H104       24.6480  -32.8425  -40.2322 H         1 UNK         0.0787 
    105 H105       24.3784  -34.6533  -38.3535 H         1 UNK         0.3055 
    106 H106       22.1027  -35.6248  -36.9614 H         1 UNK         0.1106 
    107 H107       23.8721  -36.9989  -39.0615 H         1 UNK         0.0828 
    108 H108       24.1608  -36.9725  -37.3208 H         1 UNK         0.0828 
    109 H109       22.7670  -37.8191  -37.9681 H         1 UNK         0.0828 
    110 H110       22.4290  -34.5266  -40.2522 H         1 UNK         0.2931 
    111 H111       19.9439  -35.5841  -41.2508 H         1 UNK         0.0412 
    112 H112       18.8743  -32.3344  -39.1509 H         1 UNK         0.3472 
    113 H113       20.4271  -33.0867  -38.8828 H         1 UNK         0.3472 
    114 H114       20.3407  -33.7888  -43.1020 H         1 UNK         0.0970 
    115 H115       21.3925  -35.1495  -42.9809 H         1 UNK         0.0970 
    116 H116       22.7674  -30.7896  -42.2165 H         1 UNK         0.0612 
    117 H117       21.4809  -31.4070  -41.2137 H         1 UNK         0.0612 
@<TRIPOS>BOND
     1    1    2 1    
     2    1   62 1    
     3    1   63 1    
     4    1   64 1    
     5    2    3 2    
     6    2    4 am   BACKBONE|DICT|INTERRES
     7    4    5 1    
     8    4   65 1    
     9    5    6 1    
    10    5   25 1    
    11    5   66 1    
    12    6    7 1    
    13    6   67 1    
    14    6   68 1    
    15    7    8 1    
    16    8    9 1    
    17    8   69 1    
    18    8   70 1    
    19    9   10 ar   
    20    9   14 ar   
    21   10   11 ar   
    22   10   71 1    
    23   11   12 ar   
    24   11   61 1    
    25   12   13 ar   
    26   12   72 1    
    27   13   14 ar   
    28   13   15 1    
    29   14   73 1    
    30   15   16 1    
    31   15   74 1    
    32   15   75 1    
    33   16   17 1    
    34   17   18 1    
    35   17   76 1    
    36   17   77 1    
    37   18   19 1    
    38   18   27 1    
    39   18   78 1    
    40   19   20 am   BACKBONE|DICT|INTERRES
    41   19   79 1    
    42   20   21 2    
    43   20   22 1    
    44   22   23 1    
    45   22   24 1    
    46   22   80 1    
    47   23   81 1    
    48   23   82 1    
    49   23   83 1    
    50   24   25 am   BACKBONE|DICT|INTERRES
    51   24   84 1    
    52   25   26 2    
    53   27   28 2    
    54   27   29 am   BACKBONE|DICT|INTERRES
    55   29   30 1    
    56   29   85 1    
    57   30   31 1    
    58   30   32 1    
    59   30   86 1    
    60   31   87 1    
    61   31   88 1    
    62   31   89 1    
    63   32   33 2    
    64   32   34 am   BACKBONE|DICT|INTERRES
    65   34   35 1    
    66   34   90 1    
    67   35   36 1    
    68   35   37 1    
    69   35   91 1    
    70   36   92 1    
    71   36   93 1    
    72   36   94 1    
    73   37   38 2    
    74   37   39 am   BACKBONE|DICT|INTERRES
    75   39   40 1    
    76   39   95 1    
    77   40   41 1    
    78   40   42 1    
    79   40   96 1    
    80   41   97 1    
    81   41   98 1    
    82   41   99 1    
    83   42   43 2    
    84   42   44 am   BACKBONE|DICT|INTERRES
    85   44   45 1    
    86   44  100 1    
    87   45   46 1    
    88   45   47 1    
    89   45  101 1    
    90   46  102 1    
    91   46  103 1    
    92   46  104 1    
    93   47   48 2    
    94   47   49 am   BACKBONE|DICT|INTERRES
    95   49   50 1    
    96   49  105 1    
    97   50   51 1    
    98   50   52 1    
    99   50  106 1    
   100   51  107 1    
   101   51  108 1    
   102   51  109 1    
   103   52   53 2    
   104   52   54 am   BACKBONE|DICT|INTERRES
   105   54   55 1    
   106   54  110 1    
   107   55   56 1    
   108   55   59 1    
   109   55  111 1    
   110   56   57 am   BACKBONE|DICT|INTERRES
   111   56   58 2    
   112   57  112 1    
   113   57  113 1    
   114   59   60 1    
   115   59  114 1    
   116   59  115 1    
   117   60   61 1    
   118   61  116 1    
   119   61  117 1    
@<TRIPOS>SUBSTRUCTURE
     1 UNK         1 GROUP             0       ****    0 ROOT    
