@<TRIPOS>MOLECULE
3R8
117   119    1
SMALL
USER_CHARGES


@<TRIPOS>ATOM
      1 CA         17.3454  -30.1859  -40.4550 C.3       0 UNK        -0.2013 
      2 C          16.4997  -29.2237  -41.2755 C.2       0 UNK         0.4866 
      3 O          15.2980  -29.1132  -41.0300 O.2       0 UNK        -0.5176 
      4 N          17.1075  -28.5298  -42.2460 N.am      1 UNK        -0.4884 
      5 CA         16.4493  -27.5459  -43.1055 C.3       1 UNK         0.0853 
      6 C6         15.4472  -28.1676  -44.1343 C.3       10 UNK        -0.0849 
      7 S7         16.0393  -28.6176  -45.8042 S.3       10 UNK        -0.2776 
      8 C8         16.8557  -30.2227  -45.5381 C.3       10 UNK         0.0316 
      9 C9         18.3609  -30.0409  -45.4355 C.ar      10 UNK        -0.0863 
     10 C10        19.0242  -30.2488  -44.2244 C.ar      10 UNK        -0.1009 
     11 C11        20.3946  -29.9970  -44.1124 C.ar      10 UNK        -0.0712 
     12 C12        21.1137  -29.6077  -45.2451 C.ar      10 UNK        -0.0894 
     13 C13        20.4638  -29.4096  -46.4682 C.ar      10 UNK        -0.0745 
     14 C14        19.0883  -29.6311  -46.5564 C.ar      10 UNK        -0.0972 
     15 C15        21.2341  -28.9389  -47.6942 C.3       10 UNK         0.0209 
     16 S16        21.0644  -27.1413  -47.9561 S.3       10 UNK        -0.2568 
     17 C17        22.0482  -26.4934  -46.5641 C.3       10 UNK        -0.0983 
     18 CA         21.4136  -25.3027  -45.7979 C.3       3 UNK         0.0876 
     19 N          19.9626  -25.4204  -45.5831 N.am      3 UNK        -0.4424 
     20 C          19.1949  -24.3709  -45.2543 C.2       2 UNK         0.4918 
     21 O          19.6469  -23.2489  -45.0203 O.2       2 UNK        -0.4875 
     22 CA         17.6671  -24.5567  -45.2156 C.3       2 UNK         0.0481 
     23 CB         17.0749  -24.2776  -46.6068 C.3       2 UNK        -0.1831 
     24 N          17.1339  -25.8312  -44.7242 N.am      2 UNK        -0.4498 
     25 C          17.4643  -26.4935  -43.6080 C.2       1 UNK         0.5027 
     26 O          18.4749  -26.2575  -42.9413 O.2       1 UNK        -0.4969 
     27 C          22.1999  -25.0787  -44.4893 C.2       3 UNK         0.5005 
     28 O          23.2606  -24.4540  -44.5306 O.2       3 UNK        -0.5279 
     29 N          21.7022  -25.6461  -43.3761 N.am      4 UNK        -0.4463 
     30 CA         22.3501  -25.7318  -42.0562 C.3       4 UNK         0.0283 
     31 CB         22.5389  -24.3305  -41.4388 C.3       4 UNK        -0.1875 
     32 C          23.6622  -26.5538  -42.0509 C.2       4 UNK         0.4949 
     33 O          24.4549  -26.4366  -41.1156 O.2       4 UNK        -0.5039 
     34 N          23.8812  -27.3740  -43.0877 N.am      5 UNK        -0.4663 
     35 CA         25.1501  -28.0360  -43.4086 C.3       5 UNK         0.0242 
     36 CB         25.2239  -28.2350  -44.9352 C.3       5 UNK        -0.1982 
     37 C          25.3934  -29.3427  -42.6255 C.2       5 UNK         0.5017 
     38 O          25.7309  -30.3616  -43.2316 O.2       5 UNK        -0.5012 
     39 N          25.2465  -29.2775  -41.2945 N.am      6 UNK        -0.4439 
     40 CA         25.4691  -30.3546  -40.3169 C.3       6 UNK         0.0297 
     41 CB         26.9757  -30.6874  -40.2265 C.3       6 UNK        -0.2006 
     42 C          24.5829  -31.5989  -40.5546 C.2       6 UNK         0.4892 
     43 O          23.5125  -31.4788  -41.1529 O.2       6 UNK        -0.5089 
     44 N          25.0088  -32.7635  -40.0395 N.am      7 UNK        -0.4243 
     45 CA         24.2975  -34.0494  -40.0683 C.3       7 UNK         0.0196 
     46 CB         24.2510  -34.6175  -41.5059 C.3       7 UNK        -0.2007 
     47 C          22.9186  -33.9276  -39.3924 C.2       7 UNK         0.5020 
     48 O          22.8669  -33.7439  -38.1758 O.2       7 UNK        -0.5147 
     49 N          21.8359  -33.9643  -40.1824 N.am      8 UNK        -0.4734 
     50 CA         20.4584  -33.7141  -39.7387 C.3       8 UNK         0.0238 
     51 CB         19.4947  -33.9745  -40.9084 C.3       8 UNK        -0.1912 
     52 C          20.2350  -32.2987  -39.1713 C.2       8 UNK         0.5038 
     53 O          19.3436  -32.1196  -38.3411 O.2       8 UNK        -0.5046 
     54 N          21.0508  -31.3346  -39.6151 N.am      9 UNK        -0.4200 
     55 CA         21.1036  -29.9629  -39.0965 C.3       9 UNK         0.0839 
     56 C          21.9570  -29.8200  -37.8012 C.2       9 UNK         0.5513 
     57 N          22.6138  -30.8609  -37.3001 N.am      9 UNK        -0.7519 
     58 O          22.0188  -28.7351  -37.2294 O.2       9 UNK        -0.4960 
     59 C59        21.5736  -28.9653  -40.1871 C.3       10 UNK        -0.0876 
     60 S60        20.4415  -28.8523  -41.6111 S.3       10 UNK        -0.2414 
     61 C61        21.0875  -30.1067  -42.7626 C.3       10 UNK         0.0169 
     62 H62        16.7421  -31.0246  -40.1084 H         1 UNK         0.0903 
     63 H63        18.1730  -30.5943  -41.0318 H         1 UNK         0.0903 
     64 H64        17.7513  -29.6782  -39.5809 H         1 UNK         0.0903 
     65 H65        18.1151  -28.5726  -42.3541 H         1 UNK         0.3096 
     66 H66        15.8315  -26.9545  -42.4249 H         1 UNK         0.1121 
     67 H67        14.9459  -29.0361  -43.7056 H         1 UNK         0.0849 
     68 H68        14.6400  -27.4506  -44.2935 H         1 UNK         0.0849 
     69 H69        16.4518  -30.7130  -44.6509 H         1 UNK         0.0865 
     70 H70        16.6323  -30.8788  -46.3805 H         1 UNK         0.0865 
     71 H71        18.4689  -30.5740  -43.3579 H         1 UNK         0.1346 
     72 H72        22.1777  -29.4416  -45.1675 H         1 UNK         0.1412 
     73 H73        18.5769  -29.4613  -47.4945 H         1 UNK         0.1426 
     74 H74        20.8640  -29.4596  -48.5787 H         1 UNK         0.0716 
     75 H75        22.2909  -29.1979  -47.6098 H         1 UNK         0.0716 
     76 H76        23.0184  -26.1927  -46.9645 H         1 UNK         0.0695 
     77 H77        22.2685  -27.3085  -45.8795 H         1 UNK         0.0695 
     78 H78        21.5697  -24.4131  -46.4129 H         1 UNK         0.0983 
     79 H79        19.5351  -26.3138  -45.7820 H         1 UNK         0.3095 
     80 H80        17.2825  -23.7935  -44.5364 H         1 UNK         0.0454 
     81 H81        17.3590  -25.0473  -47.3257 H         1 UNK         0.0851 
     82 H82        17.4239  -23.3211  -46.9990 H         1 UNK         0.0851 
     83 H83        15.9862  -24.2315  -46.5761 H         1 UNK         0.0851 
     84 H84        16.3309  -26.1833  -45.2275 H         1 UNK         0.2976 
     85 H85        20.7971  -26.0991  -43.4433 H         1 UNK         0.3116 
     86 H86        21.6488  -26.2627  -41.4158 H         1 UNK         0.0646 
     87 H87        22.8578  -24.4018  -40.3983 H         1 UNK         0.0847 
     88 H88        21.6088  -23.7625  -41.4523 H         1 UNK         0.0847 
     89 H89        23.2951  -23.7504  -41.9681 H         1 UNK         0.0847 
     90 H90        23.1480  -27.4534  -43.7743 H         1 UNK         0.3040 
     91 H91        25.9641  -27.3610  -43.1336 H         1 UNK         0.1015 
     92 H92        25.0885  -27.2926  -45.4666 H         1 UNK         0.0786 
     93 H93        24.4687  -28.9355  -45.2912 H         1 UNK         0.0786 
     94 H94        26.1967  -28.6304  -45.2307 H         1 UNK         0.0786 
     95 H95        24.9598  -28.3790  -40.9179 H         1 UNK         0.3172 
     96 H96        25.1600  -29.9474  -39.3531 H         1 UNK         0.0595 
     97 H97        27.3272  -31.2163  -41.1136 H         1 UNK         0.0839 
     98 H98        27.2005  -31.3082  -39.3589 H         1 UNK         0.0839 
     99 H99        27.5735  -29.7815  -40.1242 H         1 UNK         0.0839 
    100 H100       25.8800  -32.7615  -39.5283 H         1 UNK         0.2998 
    101 H101       24.8762  -34.7440  -39.4573 H         1 UNK         0.0822 
    102 H102       23.7392  -33.9533  -42.2032 H         1 UNK         0.0787 
    103 H103       25.2582  -34.7768  -41.8913 H         1 UNK         0.0787 
    104 H104       23.7445  -35.5834  -41.5319 H         1 UNK         0.0787 
    105 H105       21.9805  -34.0865  -41.1745 H         1 UNK         0.3055 
    106 H106       20.2326  -34.4216  -38.9377 H         1 UNK         0.1106 
    107 H107       19.6884  -33.3073  -41.7492 H         1 UNK         0.0828 
    108 H108       19.5728  -35.0008  -41.2674 H         1 UNK         0.0828 
    109 H109       18.4590  -33.8188  -40.6024 H         1 UNK         0.0828 
    110 H110       21.7867  -31.5763  -40.2725 H         1 UNK         0.2931 
    111 H111       20.0914  -29.6725  -38.8105 H         1 UNK         0.0412 
    112 H112       22.5602  -31.7785  -37.7266 H         1 UNK         0.3472 
    113 H113       23.1488  -30.7370  -36.4553 H         1 UNK         0.3472 
    114 H114       21.6405  -27.9619  -39.7636 H         1 UNK         0.0970 
    115 H115       22.5767  -29.2013  -40.5360 H         1 UNK         0.0970 
    116 H116       22.1645  -29.9722  -42.8720 H         1 UNK         0.0612 
    117 H117       20.9307  -31.1052  -42.3552 H         1 UNK         0.0612 
@<TRIPOS>BOND
     1    1    2 1    
     2    1   62 1    
     3    1   63 1    
     4    1   64 1    
     5    2    3 2    
     6    2    4 am   BACKBONE|DICT|INTERRES
     7    4    5 1    
     8    4   65 1    
     9    5    6 1    
    10    5   25 1    
    11    5   66 1    
    12    6    7 1    
    13    6   67 1    
    14    6   68 1    
    15    7    8 1    
    16    8    9 1    
    17    8   69 1    
    18    8   70 1    
    19    9   10 ar   
    20    9   14 ar   
    21   10   11 ar   
    22   10   71 1    
    23   11   12 ar   
    24   11   61 1    
    25   12   13 ar   
    26   12   72 1    
    27   13   14 ar   
    28   13   15 1    
    29   14   73 1    
    30   15   16 1    
    31   15   74 1    
    32   15   75 1    
    33   16   17 1    
    34   17   18 1    
    35   17   76 1    
    36   17   77 1    
    37   18   19 1    
    38   18   27 1    
    39   18   78 1    
    40   19   20 am   BACKBONE|DICT|INTERRES
    41   19   79 1    
    42   20   21 2    
    43   20   22 1    
    44   22   23 1    
    45   22   24 1    
    46   22   80 1    
    47   23   81 1    
    48   23   82 1    
    49   23   83 1    
    50   24   25 am   BACKBONE|DICT|INTERRES
    51   24   84 1    
    52   25   26 2    
    53   27   28 2    
    54   27   29 am   BACKBONE|DICT|INTERRES
    55   29   30 1    
    56   29   85 1    
    57   30   31 1    
    58   30   32 1    
    59   30   86 1    
    60   31   87 1    
    61   31   88 1    
    62   31   89 1    
    63   32   33 2    
    64   32   34 am   BACKBONE|DICT|INTERRES
    65   34   35 1    
    66   34   90 1    
    67   35   36 1    
    68   35   37 1    
    69   35   91 1    
    70   36   92 1    
    71   36   93 1    
    72   36   94 1    
    73   37   38 2    
    74   37   39 am   BACKBONE|DICT|INTERRES
    75   39   40 1    
    76   39   95 1    
    77   40   41 1    
    78   40   42 1    
    79   40   96 1    
    80   41   97 1    
    81   41   98 1    
    82   41   99 1    
    83   42   43 2    
    84   42   44 am   BACKBONE|DICT|INTERRES
    85   44   45 1    
    86   44  100 1    
    87   45   46 1    
    88   45   47 1    
    89   45  101 1    
    90   46  102 1    
    91   46  103 1    
    92   46  104 1    
    93   47   48 2    
    94   47   49 am   BACKBONE|DICT|INTERRES
    95   49   50 1    
    96   49  105 1    
    97   50   51 1    
    98   50   52 1    
    99   50  106 1    
   100   51  107 1    
   101   51  108 1    
   102   51  109 1    
   103   52   53 2    
   104   52   54 am   BACKBONE|DICT|INTERRES
   105   54   55 1    
   106   54  110 1    
   107   55   56 1    
   108   55   59 1    
   109   55  111 1    
   110   56   57 am   BACKBONE|DICT|INTERRES
   111   56   58 2    
   112   57  112 1    
   113   57  113 1    
   114   59   60 1    
   115   59  114 1    
   116   59  115 1    
   117   60   61 1    
   118   61  116 1    
   119   61  117 1    
@<TRIPOS>SUBSTRUCTURE
     1 UNK         1 GROUP             0       ****    0 ROOT    
