@<TRIPOS>MOLECULE
3R8
117   119    1
SMALL
USER_CHARGES


@<TRIPOS>ATOM
      1 CA         15.7964  -23.2488  -42.0791 C.3       0 UNK        -0.2013 
      2 C          16.7390  -23.4752  -43.2516 C.2       0 UNK         0.4866 
      3 O          17.2270  -22.5102  -43.8413 O.2       0 UNK        -0.5176 
      4 N          16.9900  -24.7430  -43.6001 N.am      1 UNK        -0.4884 
      5 CA         17.9114  -25.1534  -44.6646 C.3       1 UNK         0.0853 
      6 C6         17.7756  -26.6656  -44.9918 C.3       10 UNK        -0.0849 
      7 S7         16.0933  -27.2045  -45.4477 S.3       10 UNK        -0.2776 
      8 C8         15.7168  -28.4490  -44.1526 C.3       10 UNK         0.0316 
      9 C9         16.6208  -29.6891  -44.1065 C.ar      10 UNK        -0.0863 
     10 C10        16.5837  -30.5011  -42.9650 C.ar      10 UNK        -0.1009 
     11 C11        17.3874  -31.6422  -42.8672 C.ar      10 UNK        -0.0712 
     12 C12        18.2447  -31.9694  -43.9189 C.ar      10 UNK        -0.0894 
     13 C13        18.2982  -31.1743  -45.0635 C.ar      10 UNK        -0.0745 
     14 C14        17.4697  -30.0511  -45.1623 C.ar      10 UNK        -0.0972 
     15 C15        19.2559  -31.5403  -46.1882 C.3       10 UNK         0.0209 
     16 S16        20.9726  -31.0708  -45.7931 S.3       10 UNK        -0.2568 
     17 C17        20.8741  -29.2554  -45.9217 C.3       10 UNK        -0.0983 
     18 CA         21.7010  -28.4428  -44.8927 C.3       3 UNK         0.0876 
     19 N          21.5711  -27.0234  -45.2266 N.am      3 UNK        -0.4424 
     20 C          22.2313  -25.9955  -44.6814 C.2       2 UNK         0.4918 
     21 O          23.1348  -26.1173  -43.8577 O.2       2 UNK        -0.4875 
     22 CA         21.7069  -24.5949  -45.0612 C.3       2 UNK         0.0481 
     23 CB         22.4014  -24.0818  -46.3316 C.3       2 UNK        -0.1831 
     24 N          20.2451  -24.5847  -45.2484 N.am      2 UNK        -0.4498 
     25 C          19.3753  -24.8670  -44.2660 C.2       1 UNK         0.5027 
     26 O          19.7263  -25.0370  -43.0964 O.2       1 UNK        -0.4969 
     27 C          21.3329  -28.7522  -43.4158 C.2       3 UNK         0.5005 
     28 O          21.8914  -29.6908  -42.8474 O.2       3 UNK        -0.5279 
     29 N          20.4435  -27.9455  -42.8098 N.am      4 UNK        -0.4463 
     30 CA         20.0476  -28.0442  -41.4010 C.3       4 UNK         0.0283 
     31 CB         18.5920  -27.5858  -41.2165 C.3       4 UNK        -0.1875 
     32 C          20.9915  -27.2781  -40.4632 C.2       4 UNK         0.4949 
     33 O          21.1319  -27.6737  -39.3060 O.2       4 UNK        -0.5039 
     34 N          21.6268  -26.2082  -40.9636 N.am      5 UNK        -0.4663 
     35 CA         22.7082  -25.5019  -40.2698 C.3       5 UNK         0.0242 
     36 CB         22.9413  -24.1340  -40.9315 C.3       5 UNK        -0.1982 
     37 C          24.0035  -26.3343  -40.2431 C.2       5 UNK         0.5017 
     38 O          24.7148  -26.3226  -39.2374 O.2       5 UNK        -0.5012 
     39 N          24.2679  -27.0524  -41.3425 N.am      6 UNK        -0.4439 
     40 CA         25.3251  -28.0533  -41.4785 C.3       6 UNK         0.0297 
     41 CB         25.5065  -28.3674  -42.9744 C.3       6 UNK        -0.2006 
     42 C          25.0154  -29.3423  -40.6925 C.2       6 UNK         0.4892 
     43 O          23.8841  -29.5640  -40.2586 O.2       6 UNK        -0.5089 
     44 N          26.0336  -30.2022  -40.5672 N.am      7 UNK        -0.4243 
     45 CA         25.9540  -31.5105  -39.9061 C.3       7 UNK         0.0196 
     46 CB         27.3775  -31.9491  -39.5186 C.3       7 UNK        -0.2007 
     47 C          25.2519  -32.6041  -40.7406 C.2       7 UNK         0.5020 
     48 O          25.1438  -33.7355  -40.2669 O.2       7 UNK        -0.5147 
     49 N          24.8181  -32.2780  -41.9670 N.am      8 UNK        -0.4734 
     50 CA         24.1481  -33.1927  -42.8970 C.3       8 UNK         0.0238 
     51 CB         24.0386  -32.5211  -44.2749 C.3       8 UNK        -0.1912 
     52 C          22.7687  -33.6677  -42.4059 C.2       8 UNK         0.5038 
     53 O          22.4345  -34.8387  -42.5915 O.2       8 UNK        -0.5046 
     54 N          22.0062  -32.7622  -41.7824 N.am      9 UNK        -0.4200 
     55 CA         20.7368  -33.0552  -41.1070 C.3       9 UNK         0.0839 
     56 C          20.9780  -33.8387  -39.7886 C.2       9 UNK         0.5513 
     57 N          20.3278  -34.9809  -39.6106 N.am      9 UNK        -0.7519 
     58 O          21.7256  -33.4017  -38.9165 O.2       9 UNK        -0.4960 
     59 C59        19.9591  -31.7379  -40.8814 C.3       10 UNK        -0.0876 
     60 S60        18.2636  -31.9047  -40.2218 S.3       10 UNK        -0.2414 
     61 C61        17.3194  -32.5444  -41.6425 C.3       10 UNK         0.0169 
     62 H62        14.9355  -22.6615  -42.3973 H         1 UNK         0.0903 
     63 H63        15.4312  -24.1870  -41.6615 H         1 UNK         0.0903 
     64 H64        16.3083  -22.7023  -41.2874 H         1 UNK         0.0903 
     65 H65        16.5576  -25.4942  -43.0839 H         1 UNK         0.3096 
     66 H66        17.6728  -24.5735  -45.5592 H         1 UNK         0.1121 
     67 H67        18.4242  -26.9270  -45.8293 H         1 UNK         0.0849 
     68 H68        18.1124  -27.2712  -44.1504 H         1 UNK         0.0849 
     69 H69        14.6892  -28.7851  -44.2971 H         1 UNK         0.0865 
     70 H70        15.7381  -27.9494  -43.1830 H         1 UNK         0.0865 
     71 H71        15.9245  -30.2476  -42.1457 H         1 UNK         0.1346 
     72 H72        18.8792  -32.8422  -43.8470 H         1 UNK         0.1412 
     73 H73        17.5023  -29.4567  -46.0636 H         1 UNK         0.1426 
     74 H74        18.9551  -31.0693  -47.1254 H         1 UNK         0.0716 
     75 H75        19.2168  -32.6166  -46.3620 H         1 UNK         0.0716 
     76 H76        19.8319  -28.9463  -45.8706 H         1 UNK         0.0695 
     77 H77        21.2023  -29.0015  -46.9312 H         1 UNK         0.0695 
     78 H78        22.7524  -28.7095  -45.0172 H         1 UNK         0.0983 
     79 H79        20.8768  -26.8039  -45.9239 H         1 UNK         0.3095 
     80 H80        21.9489  -23.9149  -44.2417 H         1 UNK         0.0454 
     81 H81        23.4847  -24.0659  -46.2026 H         1 UNK         0.0851 
     82 H82        22.0917  -23.0640  -46.5692 H         1 UNK         0.0851 
     83 H83        22.1862  -24.7095  -47.1971 H         1 UNK         0.0851 
     84 H84        19.9045  -24.4393  -46.1890 H         1 UNK         0.2976 
     85 H85        20.0957  -27.1386  -43.3073 H         1 UNK         0.3116 
     86 H86        20.0920  -29.0851  -41.0983 H         1 UNK         0.0646 
     87 H87        18.2743  -27.7257  -40.1825 H         1 UNK         0.0847 
     88 H88        17.9140  -28.1677  -41.8385 H         1 UNK         0.0847 
     89 H89        18.4554  -26.5317  -41.4533 H         1 UNK         0.0847 
     90 H90        21.3943  -25.8970  -41.8978 H         1 UNK         0.3040 
     91 H91        22.4006  -25.3323  -39.2354 H         1 UNK         0.1015 
     92 H92        22.0308  -23.5343  -40.9338 H         1 UNK         0.0786 
     93 H93        23.2803  -24.2317  -41.9629 H         1 UNK         0.0786 
     94 H94        23.7020  -23.5678  -40.3924 H         1 UNK         0.0786 
     95 H95        23.6462  -26.9432  -42.1367 H         1 UNK         0.3172 
     96 H96        26.2525  -27.6266  -41.0910 H         1 UNK         0.0595 
     97 H97        24.6186  -28.8406  -43.3949 H         1 UNK         0.0839 
     98 H98        26.3470  -29.0415  -43.1431 H         1 UNK         0.0839 
     99 H99        25.7037  -27.4618  -43.5487 H         1 UNK         0.0839 
    100 H100       26.9296  -29.9548  -40.9631 H         1 UNK         0.2998 
    101 H101       25.3738  -31.3954  -38.9877 H         1 UNK         0.0822 
    102 H102       27.8603  -31.2113  -38.8774 H         1 UNK         0.0787 
    103 H103       27.3630  -32.8904  -38.9672 H         1 UNK         0.0787 
    104 H104       28.0072  -32.0963  -40.3970 H         1 UNK         0.0787 
    105 H105       24.9341  -31.3228  -42.2702 H         1 UNK         0.3055 
    106 H106       24.7754  -34.0811  -42.9999 H         1 UNK         0.1106 
    107 H107       23.5157  -33.1637  -44.9847 H         1 UNK         0.0828 
    108 H108       23.4884  -31.5811  -44.2204 H         1 UNK         0.0828 
    109 H109       25.0224  -32.3098  -44.6939 H         1 UNK         0.0828 
    110 H110       22.3562  -31.8173  -41.6902 H         1 UNK         0.2931 
    111 H111       20.1469  -33.6772  -41.7828 H         1 UNK         0.0412 
    112 H112       19.7091  -35.3427  -40.3195 H         1 UNK         0.3472 
    113 H113       20.4639  -35.4952  -38.7543 H         1 UNK         0.3472 
    114 H114       19.9018  -31.1898  -41.8216 H         1 UNK         0.0970 
    115 H115       20.5199  -31.1001  -40.1954 H         1 UNK         0.0970 
    116 H116       17.6767  -33.5463  -41.8847 H         1 UNK         0.0612 
    117 H117       16.2778  -32.6632  -41.3410 H         1 UNK         0.0612 
@<TRIPOS>BOND
     1    1    2 1    
     2    1   62 1    
     3    1   63 1    
     4    1   64 1    
     5    2    3 2    
     6    2    4 am   BACKBONE|DICT|INTERRES
     7    4    5 1    
     8    4   65 1    
     9    5    6 1    
    10    5   25 1    
    11    5   66 1    
    12    6    7 1    
    13    6   67 1    
    14    6   68 1    
    15    7    8 1    
    16    8    9 1    
    17    8   69 1    
    18    8   70 1    
    19    9   10 ar   
    20    9   14 ar   
    21   10   11 ar   
    22   10   71 1    
    23   11   12 ar   
    24   11   61 1    
    25   12   13 ar   
    26   12   72 1    
    27   13   14 ar   
    28   13   15 1    
    29   14   73 1    
    30   15   16 1    
    31   15   74 1    
    32   15   75 1    
    33   16   17 1    
    34   17   18 1    
    35   17   76 1    
    36   17   77 1    
    37   18   19 1    
    38   18   27 1    
    39   18   78 1    
    40   19   20 am   BACKBONE|DICT|INTERRES
    41   19   79 1    
    42   20   21 2    
    43   20   22 1    
    44   22   23 1    
    45   22   24 1    
    46   22   80 1    
    47   23   81 1    
    48   23   82 1    
    49   23   83 1    
    50   24   25 am   BACKBONE|DICT|INTERRES
    51   24   84 1    
    52   25   26 2    
    53   27   28 2    
    54   27   29 am   BACKBONE|DICT|INTERRES
    55   29   30 1    
    56   29   85 1    
    57   30   31 1    
    58   30   32 1    
    59   30   86 1    
    60   31   87 1    
    61   31   88 1    
    62   31   89 1    
    63   32   33 2    
    64   32   34 am   BACKBONE|DICT|INTERRES
    65   34   35 1    
    66   34   90 1    
    67   35   36 1    
    68   35   37 1    
    69   35   91 1    
    70   36   92 1    
    71   36   93 1    
    72   36   94 1    
    73   37   38 2    
    74   37   39 am   BACKBONE|DICT|INTERRES
    75   39   40 1    
    76   39   95 1    
    77   40   41 1    
    78   40   42 1    
    79   40   96 1    
    80   41   97 1    
    81   41   98 1    
    82   41   99 1    
    83   42   43 2    
    84   42   44 am   BACKBONE|DICT|INTERRES
    85   44   45 1    
    86   44  100 1    
    87   45   46 1    
    88   45   47 1    
    89   45  101 1    
    90   46  102 1    
    91   46  103 1    
    92   46  104 1    
    93   47   48 2    
    94   47   49 am   BACKBONE|DICT|INTERRES
    95   49   50 1    
    96   49  105 1    
    97   50   51 1    
    98   50   52 1    
    99   50  106 1    
   100   51  107 1    
   101   51  108 1    
   102   51  109 1    
   103   52   53 2    
   104   52   54 am   BACKBONE|DICT|INTERRES
   105   54   55 1    
   106   54  110 1    
   107   55   56 1    
   108   55   59 1    
   109   55  111 1    
   110   56   57 am   BACKBONE|DICT|INTERRES
   111   56   58 2    
   112   57  112 1    
   113   57  113 1    
   114   59   60 1    
   115   59  114 1    
   116   59  115 1    
   117   60   61 1    
   118   61  116 1    
   119   61  117 1    
@<TRIPOS>SUBSTRUCTURE
     1 UNK         1 GROUP             0       ****    0 ROOT    
