@<TRIPOS>MOLECULE
3R8
117   119    1
SMALL
USER_CHARGES


@<TRIPOS>ATOM
      1 CA         13.2220  -24.4694  -47.6327 C.3       0 UNK        -0.2013 
      2 C          14.6423  -24.9644  -47.4030 C.2       0 UNK         0.4866 
      3 O          15.5408  -24.6277  -48.1753 O.2       0 UNK        -0.5176 
      4 N          14.8500  -25.7682  -46.3533 N.am      1 UNK        -0.4884 
      5 CA         16.1597  -26.2760  -45.9329 C.3       1 UNK         0.0853 
      6 C6         16.0204  -27.5773  -45.0988 C.3       10 UNK        -0.0849 
      7 S7         15.0726  -27.3832  -43.5465 S.3       10 UNK        -0.2776 
      8 C8         15.4023  -28.9702  -42.7159 C.3       10 UNK         0.0316 
      9 C9         16.8407  -29.0825  -42.2274 C.ar      10 UNK        -0.0863 
     10 C10        17.7706  -29.8440  -42.9414 C.ar      10 UNK        -0.1009 
     11 C11        19.0835  -29.9755  -42.4813 C.ar      10 UNK        -0.0712 
     12 C12        19.4645  -29.3459  -41.2924 C.ar      10 UNK        -0.0894 
     13 C13        18.5475  -28.5731  -40.5734 C.ar      10 UNK        -0.0745 
     14 C14        17.2364  -28.4478  -41.0457 C.ar      10 UNK        -0.0972 
     15 C15        18.9547  -27.8936  -39.2729 C.3       10 UNK         0.0209 
     16 S16        19.1724  -26.0969  -39.4871 S.3       10 UNK        -0.2568 
     17 C17        20.9554  -25.9509  -39.8544 C.3       10 UNK        -0.0983 
     18 CA         21.3070  -26.1510  -41.3508 C.3       3 UNK         0.0876 
     19 N          20.4930  -25.3123  -42.2393 N.am      3 UNK        -0.4424 
     20 C          20.1259  -25.6560  -43.4779 C.2       2 UNK         0.4918 
     21 O          20.5142  -26.6741  -44.0554 O.2       2 UNK        -0.4875 
     22 CA         19.2013  -24.6798  -44.2085 C.3       2 UNK         0.0481 
     23 CB         20.0044  -23.7208  -45.1032 C.3       2 UNK        -0.1831 
     24 N          18.2801  -25.4647  -45.0216 N.am      2 UNK        -0.4498 
     25 C          16.9816  -25.1959  -45.1928 C.2       1 UNK         0.5027 
     26 O          16.4342  -24.1728  -44.7694 O.2       1 UNK        -0.4969 
     27 C          22.8249  -26.0044  -41.6013 C.2       3 UNK         0.5005 
     28 O          23.6165  -26.5333  -40.8206 O.2       3 UNK        -0.5279 
     29 N          23.2246  -25.3248  -42.6880 N.am      4 UNK        -0.4463 
     30 CA         24.6168  -25.1472  -43.1232 C.3       4 UNK         0.0283 
     31 CB         24.6490  -24.2065  -44.3385 C.3       4 UNK        -0.1875 
     32 C          25.3454  -26.4673  -43.4457 C.2       4 UNK         0.4949 
     33 O          26.5703  -26.5234  -43.3434 O.2       4 UNK        -0.5039 
     34 N          24.5786  -27.5100  -43.7922 N.am      5 UNK        -0.4663 
     35 CA         25.0495  -28.8837  -43.9880 C.3       5 UNK         0.0242 
     36 CB         24.0820  -29.5922  -44.9530 C.3       5 UNK        -0.1982 
     37 C          25.1964  -29.6800  -42.6720 C.2       5 UNK         0.5017 
     38 O          25.5279  -30.8638  -42.7386 O.2       5 UNK        -0.5012 
     39 N          24.9353  -29.0372  -41.5207 N.am      6 UNK        -0.4439 
     40 CA         24.8200  -29.5868  -40.1633 C.3       6 UNK         0.0297 
     41 CB         26.0653  -30.4060  -39.7590 C.3       6 UNK        -0.2006 
     42 C          23.5161  -30.3808  -39.9739 C.2       6 UNK         0.4892 
     43 O          22.7976  -30.6437  -40.9386 O.2       6 UNK        -0.5089 
     44 N          23.2278  -30.7596  -38.7212 N.am      7 UNK        -0.4243 
     45 CA         22.0336  -31.5249  -38.3358 C.3       7 UNK         0.0196 
     46 CB         21.9374  -31.5726  -36.8024 C.3       7 UNK        -0.2007 
     47 C          21.9797  -32.9479  -38.9260 C.2       7 UNK         0.5020 
     48 O          20.8913  -33.5089  -39.0493 O.2       7 UNK        -0.5147 
     49 N          23.1457  -33.5016  -39.2873 N.am      8 UNK        -0.4734 
     50 CA         23.2765  -34.7686  -40.0125 C.3       8 UNK         0.0238 
     51 CB         24.7060  -35.3041  -39.8262 C.3       8 UNK        -0.1912 
     52 C          22.9414  -34.6455  -41.5123 C.2       8 UNK         0.5038 
     53 O          22.6551  -35.6656  -42.1412 O.2       8 UNK        -0.5046 
     54 N          22.9840  -33.4173  -42.0480 N.am      9 UNK        -0.4200 
     55 CA         22.7400  -33.0481  -43.4500 C.3       9 UNK         0.0839 
     56 C          23.7831  -33.6349  -44.4503 C.2       9 UNK         0.5513 
     57 N          23.5861  -33.4434  -45.7489 N.am      9 UNK        -0.7519 
     58 O          24.7907  -34.2315  -44.0750 O.2       9 UNK        -0.4960 
     59 C59        21.2634  -33.2790  -43.8915 C.3       10 UNK        -0.0876 
     60 S60        20.0371  -32.5440  -42.7554 S.3       10 UNK        -0.2414 
     61 C61        20.0867  -30.8016  -43.2690 C.3       10 UNK         0.0169 
     62 H62        13.1929  -23.3809  -47.5889 H         1 UNK         0.0903 
     63 H63        12.8700  -24.7808  -48.6159 H         1 UNK         0.0903 
     64 H64        12.5291  -24.8573  -46.8861 H         1 UNK         0.0903 
     65 H65        14.0875  -25.9827  -45.7257 H         1 UNK         0.3096 
     66 H66        16.7205  -26.5275  -46.8365 H         1 UNK         0.1121 
     67 H67        15.5307  -28.3448  -45.7005 H         1 UNK         0.0849 
     68 H68        17.0083  -27.9766  -44.8669 H         1 UNK         0.0849 
     69 H69        15.1571  -29.7914  -43.3914 H         1 UNK         0.0865 
     70 H70        14.7253  -29.0684  -41.8660 H         1 UNK         0.0865 
     71 H71        17.4726  -30.3422  -43.8539 H         1 UNK         0.1346 
     72 H72        20.4763  -29.4612  -40.9294 H         1 UNK         0.1412 
     73 H73        16.5215  -27.8555  -40.4905 H         1 UNK         0.1426 
     74 H74        19.8624  -28.3404  -38.8642 H         1 UNK         0.0716 
     75 H75        18.1761  -28.0614  -38.5274 H         1 UNK         0.0716 
     76 H76        21.4975  -26.6636  -39.2298 H         1 UNK         0.0695 
     77 H77        21.2762  -24.9611  -39.5243 H         1 UNK         0.0695 
     78 H78        21.0886  -27.1923  -41.5886 H         1 UNK         0.0983 
     79 H79        20.1364  -24.4573  -41.8363 H         1 UNK         0.3095 
     80 H80        18.6481  -24.1030  -43.4638 H         1 UNK         0.0454 
     81 H81        19.3467  -23.0294  -45.6301 H         1 UNK         0.0851 
     82 H82        20.5894  -24.2592  -45.8501 H         1 UNK         0.0851 
     83 H83        20.6977  -23.1203  -44.5131 H         1 UNK         0.0851 
     84 H84        18.6614  -26.3454  -45.3441 H         1 UNK         0.2976 
     85 H85        22.5103  -24.9266  -43.2793 H         1 UNK         0.3116 
     86 H86        25.1590  -24.6692  -42.3046 H         1 UNK         0.0646 
     87 H87        25.6739  -24.0331  -44.6702 H         1 UNK         0.0847 
     88 H88        24.2202  -23.2329  -44.1007 H         1 UNK         0.0847 
     89 H89        24.0992  -24.6199  -45.1851 H         1 UNK         0.0847 
     90 H90        23.5812  -27.3625  -43.8599 H         1 UNK         0.3040 
     91 H91        26.0368  -28.8563  -44.4544 H         1 UNK         0.1015 
     92 H92        24.0021  -29.0570  -45.8993 H         1 UNK         0.0786 
     93 H93        23.0807  -29.6772  -44.5294 H         1 UNK         0.0786 
     94 H94        24.4277  -30.6003  -45.1850 H         1 UNK         0.0786 
     95 H95        24.6316  -28.0708  -41.5875 H         1 UNK         0.3172 
     96 H96        24.7605  -28.7207  -39.5026 H         1 UNK         0.0595 
     97 H97        26.1079  -31.3685  -40.2696 H         1 UNK         0.0839 
     98 H98        26.0727  -30.6112  -38.6883 H         1 UNK         0.0839 
     99 H99        26.9849  -29.8665  -39.9861 H         1 UNK         0.0839 
    100 H100       23.8585  -30.5009  -37.9758 H         1 UNK         0.2998 
    101 H101       21.1609  -30.9892  -38.7166 H         1 UNK         0.0822 
    102 H102       21.8784  -30.5709  -36.3762 H         1 UNK         0.0787 
    103 H103       21.0431  -32.1105  -36.4842 H         1 UNK         0.0787 
    104 H104       22.7964  -32.0783  -36.3593 H         1 UNK         0.0787 
    105 H105       23.9926  -32.9768  -39.1255 H         1 UNK         0.3055 
    106 H106       22.5791  -35.4912  -39.5822 H         1 UNK         0.1106 
    107 H107       24.8297  -36.2655  -40.3268 H         1 UNK         0.0828 
    108 H108       25.4500  -34.6236  -40.2426 H         1 UNK         0.0828 
    109 H109       24.9399  -35.4572  -38.7725 H         1 UNK         0.0828 
    110 H110       23.1837  -32.6303  -41.4432 H         1 UNK         0.2931 
    111 H111       22.9201  -31.9738  -43.4720 H         1 UNK         0.0412 
    112 H112       22.7857  -32.9388  -46.0943 H         1 UNK         0.3472 
    113 H113       24.2631  -33.8090  -46.4006 H         1 UNK         0.3472 
    114 H114       21.0827  -32.8733  -44.8875 H         1 UNK         0.0970 
    115 H115       21.0567  -34.3481  -43.9629 H         1 UNK         0.0970 
    116 H116       21.0923  -30.4061  -43.1204 H         1 UNK         0.0612 
    117 H117       19.8768  -30.7270  -44.3370 H         1 UNK         0.0612 
@<TRIPOS>BOND
     1    1    2 1    
     2    1   62 1    
     3    1   63 1    
     4    1   64 1    
     5    2    3 2    
     6    2    4 am   BACKBONE|DICT|INTERRES
     7    4    5 1    
     8    4   65 1    
     9    5    6 1    
    10    5   25 1    
    11    5   66 1    
    12    6    7 1    
    13    6   67 1    
    14    6   68 1    
    15    7    8 1    
    16    8    9 1    
    17    8   69 1    
    18    8   70 1    
    19    9   10 ar   
    20    9   14 ar   
    21   10   11 ar   
    22   10   71 1    
    23   11   12 ar   
    24   11   61 1    
    25   12   13 ar   
    26   12   72 1    
    27   13   14 ar   
    28   13   15 1    
    29   14   73 1    
    30   15   16 1    
    31   15   74 1    
    32   15   75 1    
    33   16   17 1    
    34   17   18 1    
    35   17   76 1    
    36   17   77 1    
    37   18   19 1    
    38   18   27 1    
    39   18   78 1    
    40   19   20 am   BACKBONE|DICT|INTERRES
    41   19   79 1    
    42   20   21 2    
    43   20   22 1    
    44   22   23 1    
    45   22   24 1    
    46   22   80 1    
    47   23   81 1    
    48   23   82 1    
    49   23   83 1    
    50   24   25 am   BACKBONE|DICT|INTERRES
    51   24   84 1    
    52   25   26 2    
    53   27   28 2    
    54   27   29 am   BACKBONE|DICT|INTERRES
    55   29   30 1    
    56   29   85 1    
    57   30   31 1    
    58   30   32 1    
    59   30   86 1    
    60   31   87 1    
    61   31   88 1    
    62   31   89 1    
    63   32   33 2    
    64   32   34 am   BACKBONE|DICT|INTERRES
    65   34   35 1    
    66   34   90 1    
    67   35   36 1    
    68   35   37 1    
    69   35   91 1    
    70   36   92 1    
    71   36   93 1    
    72   36   94 1    
    73   37   38 2    
    74   37   39 am   BACKBONE|DICT|INTERRES
    75   39   40 1    
    76   39   95 1    
    77   40   41 1    
    78   40   42 1    
    79   40   96 1    
    80   41   97 1    
    81   41   98 1    
    82   41   99 1    
    83   42   43 2    
    84   42   44 am   BACKBONE|DICT|INTERRES
    85   44   45 1    
    86   44  100 1    
    87   45   46 1    
    88   45   47 1    
    89   45  101 1    
    90   46  102 1    
    91   46  103 1    
    92   46  104 1    
    93   47   48 2    
    94   47   49 am   BACKBONE|DICT|INTERRES
    95   49   50 1    
    96   49  105 1    
    97   50   51 1    
    98   50   52 1    
    99   50  106 1    
   100   51  107 1    
   101   51  108 1    
   102   51  109 1    
   103   52   53 2    
   104   52   54 am   BACKBONE|DICT|INTERRES
   105   54   55 1    
   106   54  110 1    
   107   55   56 1    
   108   55   59 1    
   109   55  111 1    
   110   56   57 am   BACKBONE|DICT|INTERRES
   111   56   58 2    
   112   57  112 1    
   113   57  113 1    
   114   59   60 1    
   115   59  114 1    
   116   59  115 1    
   117   60   61 1    
   118   61  116 1    
   119   61  117 1    
@<TRIPOS>SUBSTRUCTURE
     1 UNK         1 GROUP             0       ****    0 ROOT    
