@<TRIPOS>MOLECULE
3R8
117   119    1
SMALL
USER_CHARGES


@<TRIPOS>ATOM
      1 CA         19.7517  -24.8409  -39.3793 C.3       0 UNK        -0.2013 
      2 C          19.4500  -25.3056  -40.7965 C.2       0 UNK         0.4866 
      3 O          20.2854  -25.9648  -41.4123 O.2       0 UNK        -0.5176 
      4 N          18.2591  -24.9748  -41.3135 N.am      1 UNK        -0.4884 
      5 CA         17.7992  -25.2812  -42.6754 C.3       1 UNK         0.0853 
      6 C6         17.7799  -26.8116  -42.9673 C.3       10 UNK        -0.0849 
      7 S7         16.4638  -27.2928  -44.1335 S.3       10 UNK        -0.2776 
      8 C8         16.3219  -29.0772  -43.7876 C.3       10 UNK         0.0316 
      9 C9         17.5786  -29.8519  -44.1676 C.ar      10 UNK        -0.0863 
     10 C10        18.2339  -30.6467  -43.2209 C.ar      10 UNK        -0.1009 
     11 C11        19.3556  -31.4060  -43.5783 C.ar      10 UNK        -0.0712 
     12 C12        19.8467  -31.3218  -44.8852 C.ar      10 UNK        -0.0894 
     13 C13        19.2128  -30.5171  -45.8362 C.ar      10 UNK        -0.0745 
     14 C14        18.0674  -29.8023  -45.4764 C.ar      10 UNK        -0.0972 
     15 C15        19.7655  -30.4253  -47.2528 C.3       10 UNK         0.0209 
     16 S16        20.2107  -28.7213  -47.7239 S.3       10 UNK        -0.2568 
     17 C17        21.4633  -28.2991  -46.4655 C.3       10 UNK        -0.0983 
     18 CA         21.7570  -26.7785  -46.4252 C.3       3 UNK         0.0876 
     19 N          20.5464  -26.0084  -46.1329 N.am      3 UNK        -0.4424 
     20 C          20.3363  -24.7387  -46.4984 C.2       2 UNK         0.4918 
     21 O          21.1648  -24.0508  -47.0963 O.2       2 UNK        -0.4875 
     22 CA         18.9535  -24.1420  -46.1801 C.3       2 UNK         0.0481 
     23 CB         18.0281  -24.2747  -47.4004 C.3       2 UNK        -0.1831 
     24 N          18.3120  -24.7754  -45.0249 N.am      2 UNK        -0.4498 
     25 C          18.5599  -24.4590  -43.7477 C.2       1 UNK         0.5027 
     26 O          19.3134  -23.5390  -43.4163 O.2       1 UNK        -0.4969 
     27 C          22.8691  -26.4751  -45.4025 C.2       3 UNK         0.5005 
     28 O          22.5900  -26.0460  -44.2805 O.2       3 UNK        -0.5279 
     29 N          24.1171  -26.7801  -45.7861 N.am      4 UNK        -0.4463 
     30 CA         25.3184  -26.6567  -44.9485 C.3       4 UNK         0.0283 
     31 CB         26.5629  -26.7708  -45.8455 C.3       4 UNK        -0.1875 
     32 C          25.3947  -27.6702  -43.7860 C.2       4 UNK         0.4949 
     33 O          26.2913  -27.5573  -42.9503 O.2       4 UNK        -0.5039 
     34 N          24.4656  -28.6364  -43.7465 N.am      5 UNK        -0.4663 
     35 CA         24.3377  -29.6694  -42.7146 C.3       5 UNK         0.0242 
     36 CB         23.3093  -30.7124  -43.1861 C.3       5 UNK        -0.1982 
     37 C          23.9514  -29.1403  -41.3202 C.2       5 UNK         0.5017 
     38 O          24.0891  -29.8860  -40.3514 O.2       5 UNK        -0.5012 
     39 N          23.4474  -27.8976  -41.2337 N.am      6 UNK        -0.4439 
     40 CA         23.0282  -27.2039  -40.0045 C.3       6 UNK         0.0297 
     41 CB         24.2511  -26.8891  -39.1166 C.3       6 UNK        -0.2006 
     42 C          21.9132  -27.9474  -39.2359 C.2       6 UNK         0.4892 
     43 O          21.8833  -27.9103  -38.0050 O.2       6 UNK        -0.5089 
     44 N          21.0434  -28.6386  -39.9895 N.am      7 UNK        -0.4243 
     45 CA         19.9642  -29.5334  -39.5521 C.3       7 UNK         0.0196 
     46 CB         18.8851  -28.7614  -38.7650 C.3       7 UNK        -0.2007 
     47 C          20.4368  -30.8020  -38.8087 C.2       7 UNK         0.5020 
     48 O          19.5949  -31.5540  -38.3162 O.2       7 UNK        -0.5147 
     49 N          21.7509  -31.0630  -38.7668 N.am      8 UNK        -0.4734 
     50 CA         22.3482  -32.2672  -38.1915 C.3       8 UNK         0.0238 
     51 CB         23.6923  -31.9002  -37.5352 C.3       8 UNK        -0.1912 
     52 C          22.4922  -33.3231  -39.2971 C.2       8 UNK         0.5038 
     53 O          23.6039  -33.6006  -39.7507 O.2       8 UNK        -0.5046 
     54 N          21.3478  -33.8524  -39.7458 N.am      9 UNK        -0.4200 
     55 CA         21.2398  -34.8015  -40.8646 C.3       9 UNK         0.0839 
     56 C          21.8454  -36.2124  -40.6028 C.2       9 UNK         0.5513 
     57 N          22.1395  -36.5939  -39.3656 N.am      9 UNK        -0.7519 
     58 O          22.0495  -36.9745  -41.5441 O.2       9 UNK        -0.4960 
     59 C59        19.7788  -34.9318  -41.3772 C.3       10 UNK        -0.0876 
     60 S60        18.8644  -33.3727  -41.6605 S.3       10 UNK        -0.2414 
     61 C61        20.0458  -32.3250  -42.5735 C.3       10 UNK         0.0169 
     62 H62        19.8460  -25.6987  -38.7142 H         1 UNK         0.0903 
     63 H63        20.6912  -24.2893  -39.3586 H         1 UNK         0.0903 
     64 H64        18.9693  -24.1915  -38.9873 H         1 UNK         0.0903 
     65 H65        17.6278  -24.4056  -40.7664 H         1 UNK         0.3096 
     66 H66        16.7709  -24.9164  -42.7049 H         1 UNK         0.1121 
     67 H67        17.6025  -27.3597  -42.0402 H         1 UNK         0.0849 
     68 H68        18.7458  -27.1655  -43.3341 H         1 UNK         0.0849 
     69 H69        15.4799  -29.4784  -44.3532 H         1 UNK         0.0865 
     70 H70        16.0761  -29.2192  -42.7340 H         1 UNK         0.0865 
     71 H71        17.8526  -30.7006  -42.2105 H         1 UNK         0.1346 
     72 H72        20.7231  -31.8898  -45.1659 H         1 UNK         0.1412 
     73 H73        17.5654  -29.1910  -46.2142 H         1 UNK         0.1426 
     74 H74        19.0156  -30.7998  -47.9507 H         1 UNK         0.0716 
     75 H75        20.6432  -31.0624  -47.3723 H         1 UNK         0.0716 
     76 H76        22.3656  -28.8688  -46.6954 H         1 UNK         0.0695 
     77 H77        21.1229  -28.6399  -45.4860 H         1 UNK         0.0695 
     78 H78        22.1228  -26.4761  -47.4095 H         1 UNK         0.0983 
     79 H79        19.8261  -26.4916  -45.6200 H         1 UNK         0.3095 
     80 H80        19.0885  -23.0778  -45.9751 H         1 UNK         0.0454 
     81 H81        17.8507  -25.3186  -47.6631 H         1 UNK         0.0851 
     82 H82        18.4636  -23.7889  -48.2747 H         1 UNK         0.0851 
     83 H83        17.0615  -23.8045  -47.2191 H         1 UNK         0.0851 
     84 H84        17.6581  -25.5259  -45.2111 H         1 UNK         0.2976 
     85 H85        24.2626  -27.1418  -46.7188 H         1 UNK         0.3116 
     86 H86        25.3134  -25.6606  -44.5007 H         1 UNK         0.0646 
     87 H87        26.6262  -27.7475  -46.3268 H         1 UNK         0.0847 
     88 H88        27.4775  -26.6349  -45.2663 H         1 UNK         0.0847 
     89 H89        26.5633  -26.0093  -46.6255 H         1 UNK         0.0847 
     90 H90        23.7768  -28.6485  -44.4827 H         1 UNK         0.3040 
     91 H91        25.3074  -30.1610  -42.6102 H         1 UNK         0.1015 
     92 H92        22.3219  -30.2703  -43.3243 H         1 UNK         0.0786 
     93 H93        23.2078  -31.5191  -42.4579 H         1 UNK         0.0786 
     94 H94        23.6086  -31.1692  -44.1296 H         1 UNK         0.0786 
     95 H95        23.3354  -27.3741  -42.0933 H         1 UNK         0.3172 
     96 H96        22.6070  -26.2495  -40.3194 H         1 UNK         0.0595 
     97 H97        23.9714  -26.2510  -38.2775 H         1 UNK         0.0839 
     98 H98        25.0244  -26.3643  -39.6776 H         1 UNK         0.0839 
     99 H99        24.6942  -27.7950  -38.7014 H         1 UNK         0.0839 
    100 H100       21.1534  -28.5514  -40.9903 H         1 UNK         0.2998 
    101 H101       19.4959  -29.8938  -40.4686 H         1 UNK         0.0822 
    102 H102       18.0268  -29.3984  -38.5480 H         1 UNK         0.0787 
    103 H103       19.2628  -28.3924  -37.8113 H         1 UNK         0.0787 
    104 H104       18.5146  -27.9093  -39.3344 H         1 UNK         0.0787 
    105 H105       22.3946  -30.4341  -39.2360 H         1 UNK         0.3055 
    106 H106       21.7005  -32.6783  -37.4135 H         1 UNK         0.1106 
    107 H107       24.1546  -32.7766  -37.0794 H         1 UNK         0.0828 
    108 H108       24.4031  -31.4961  -38.2566 H         1 UNK         0.0828 
    109 H109       23.5581  -31.1574  -36.7487 H         1 UNK         0.0828 
    110 H110       20.4761  -33.5395  -39.3393 H         1 UNK         0.2931 
    111 H111       21.8378  -34.3846  -41.6762 H         1 UNK         0.0412 
    112 H112       21.9756  -35.9764  -38.5869 H         1 UNK         0.3472 
    113 H113       22.5329  -37.5091  -39.2106 H         1 UNK         0.3472 
    114 H114       19.7633  -35.4939  -42.3131 H         1 UNK         0.0970 
    115 H115       19.1893  -35.5201  -40.6712 H         1 UNK         0.0970 
    116 H116       20.7560  -32.9661  -43.0963 H         1 UNK         0.0612 
    117 H117       20.6219  -31.7282  -41.8660 H         1 UNK         0.0612 
@<TRIPOS>BOND
     1    1    2 1    
     2    1   62 1    
     3    1   63 1    
     4    1   64 1    
     5    2    3 2    
     6    2    4 am   BACKBONE|DICT|INTERRES
     7    4    5 1    
     8    4   65 1    
     9    5    6 1    
    10    5   25 1    
    11    5   66 1    
    12    6    7 1    
    13    6   67 1    
    14    6   68 1    
    15    7    8 1    
    16    8    9 1    
    17    8   69 1    
    18    8   70 1    
    19    9   10 ar   
    20    9   14 ar   
    21   10   11 ar   
    22   10   71 1    
    23   11   12 ar   
    24   11   61 1    
    25   12   13 ar   
    26   12   72 1    
    27   13   14 ar   
    28   13   15 1    
    29   14   73 1    
    30   15   16 1    
    31   15   74 1    
    32   15   75 1    
    33   16   17 1    
    34   17   18 1    
    35   17   76 1    
    36   17   77 1    
    37   18   19 1    
    38   18   27 1    
    39   18   78 1    
    40   19   20 am   BACKBONE|DICT|INTERRES
    41   19   79 1    
    42   20   21 2    
    43   20   22 1    
    44   22   23 1    
    45   22   24 1    
    46   22   80 1    
    47   23   81 1    
    48   23   82 1    
    49   23   83 1    
    50   24   25 am   BACKBONE|DICT|INTERRES
    51   24   84 1    
    52   25   26 2    
    53   27   28 2    
    54   27   29 am   BACKBONE|DICT|INTERRES
    55   29   30 1    
    56   29   85 1    
    57   30   31 1    
    58   30   32 1    
    59   30   86 1    
    60   31   87 1    
    61   31   88 1    
    62   31   89 1    
    63   32   33 2    
    64   32   34 am   BACKBONE|DICT|INTERRES
    65   34   35 1    
    66   34   90 1    
    67   35   36 1    
    68   35   37 1    
    69   35   91 1    
    70   36   92 1    
    71   36   93 1    
    72   36   94 1    
    73   37   38 2    
    74   37   39 am   BACKBONE|DICT|INTERRES
    75   39   40 1    
    76   39   95 1    
    77   40   41 1    
    78   40   42 1    
    79   40   96 1    
    80   41   97 1    
    81   41   98 1    
    82   41   99 1    
    83   42   43 2    
    84   42   44 am   BACKBONE|DICT|INTERRES
    85   44   45 1    
    86   44  100 1    
    87   45   46 1    
    88   45   47 1    
    89   45  101 1    
    90   46  102 1    
    91   46  103 1    
    92   46  104 1    
    93   47   48 2    
    94   47   49 am   BACKBONE|DICT|INTERRES
    95   49   50 1    
    96   49  105 1    
    97   50   51 1    
    98   50   52 1    
    99   50  106 1    
   100   51  107 1    
   101   51  108 1    
   102   51  109 1    
   103   52   53 2    
   104   52   54 am   BACKBONE|DICT|INTERRES
   105   54   55 1    
   106   54  110 1    
   107   55   56 1    
   108   55   59 1    
   109   55  111 1    
   110   56   57 am   BACKBONE|DICT|INTERRES
   111   56   58 2    
   112   57  112 1    
   113   57  113 1    
   114   59   60 1    
   115   59  114 1    
   116   59  115 1    
   117   60   61 1    
   118   61  116 1    
   119   61  117 1    
@<TRIPOS>SUBSTRUCTURE
     1 UNK         1 GROUP             0       ****    0 ROOT    
