@<TRIPOS>MOLECULE
3R8
117   119    1
SMALL
USER_CHARGES


@<TRIPOS>ATOM
      1 CA         17.3719  -27.1427  -49.2984 C.3       0 UNK        -0.2013 
      2 C          17.5923  -27.2819  -47.8000 C.2       0 UNK         0.4866 
      3 O          18.7290  -27.1918  -47.3356 O.2       0 UNK        -0.5176 
      4 N          16.5147  -27.4917  -47.0326 N.am      1 UNK        -0.4884 
      5 CA         16.5232  -27.6358  -45.5722 C.3       1 UNK         0.0853 
      6 C6         15.3088  -28.4751  -45.0995 C.3       10 UNK        -0.0849 
      7 S7         15.4812  -29.1162  -43.3995 S.3       10 UNK        -0.2776 
      8 C8         16.5460  -30.5756  -43.6379 C.3       10 UNK         0.0316 
      9 C9         17.9318  -30.3491  -43.0511 C.ar      10 UNK        -0.0863 
     10 C10        18.1112  -30.3991  -41.6657 C.ar      10 UNK        -0.1009 
     11 C11        19.3820  -30.2405  -41.1069 C.ar      10 UNK        -0.0712 
     12 C12        20.4760  -29.9963  -41.9426 C.ar      10 UNK        -0.0894 
     13 C13        20.3119  -29.9506  -43.3304 C.ar      10 UNK        -0.0745 
     14 C14        19.0374  -30.1292  -43.8796 C.ar      10 UNK        -0.0972 
     15 C15        21.5170  -29.7578  -44.2400 C.3       10 UNK         0.0209 
     16 S16        21.5705  -28.0952  -44.9763 S.3       10 UNK        -0.2568 
     17 C17        22.0905  -27.0800  -43.5537 C.3       10 UNK        -0.0983 
     18 CA         21.7400  -25.5845  -43.7440 C.3       3 UNK         0.0876 
     19 N          20.2996  -25.3873  -43.9142 N.am      3 UNK        -0.4424 
     20 C          19.7187  -24.2706  -44.3696 C.2       2 UNK         0.4918 
     21 O          20.3418  -23.2597  -44.6991 O.2       2 UNK        -0.4875 
     22 CA         18.1898  -24.3229  -44.5221 C.3       2 UNK         0.0481 
     23 CB         17.6242  -23.1777  -45.3853 C.3       2 UNK        -0.1831 
     24 N          17.8046  -25.6156  -45.0851 N.am      2 UNK        -0.4498 
     25 C          16.6487  -26.2558  -44.8852 C.2       1 UNK         0.5027 
     26 O          15.7148  -25.7886  -44.2302 O.2       1 UNK        -0.4969 
     27 C          22.2830  -24.7455  -42.5696 C.2       3 UNK         0.5005 
     28 O          21.5817  -24.5508  -41.5728 O.2       3 UNK        -0.5279 
     29 N          23.5368  -24.2898  -42.6978 N.am      4 UNK        -0.4463 
     30 CA         24.2466  -23.5001  -41.6841 C.3       4 UNK         0.0283 
     31 CB         25.4303  -22.7793  -42.3508 C.3       4 UNK        -0.1875 
     32 C          24.7353  -24.3289  -40.4801 C.2       4 UNK         0.4949 
     33 O          25.0806  -23.7466  -39.4515 O.2       4 UNK        -0.5039 
     34 N          24.7679  -25.6574  -40.6243 N.am      5 UNK        -0.4663 
     35 CA         25.1506  -26.6238  -39.6013 C.3       5 UNK         0.0242 
     36 CB         26.6614  -26.9028  -39.7002 C.3       5 UNK        -0.1982 
     37 C          24.3370  -27.9048  -39.8150 C.2       5 UNK         0.5017 
     38 O          23.7671  -28.0989  -40.8935 O.2       5 UNK        -0.5012 
     39 N          24.3239  -28.7782  -38.8011 N.am      6 UNK        -0.4439 
     40 CA         23.6322  -30.0713  -38.7988 C.3       6 UNK         0.0297 
     41 CB         23.4188  -30.5142  -37.3385 C.3       6 UNK        -0.2006 
     42 C          24.3662  -31.1371  -39.6415 C.2       6 UNK         0.4892 
     43 O          24.7659  -32.1776  -39.1162 O.2       6 UNK        -0.5089 
     44 N          24.5738  -30.8307  -40.9271 N.am      7 UNK        -0.4243 
     45 CA         25.3937  -31.6098  -41.8539 C.3       7 UNK         0.0196 
     46 CB         25.7897  -30.7164  -43.0412 C.3       7 UNK        -0.2007 
     47 C          24.7260  -32.8999  -42.3549 C.2       7 UNK         0.5020 
     48 O          25.4303  -33.8854  -42.5768 O.2       7 UNK        -0.5147 
     49 N          23.4022  -32.8751  -42.5571 N.am      8 UNK        -0.4734 
     50 CA         22.6478  -33.9635  -43.1842 C.3       8 UNK         0.0238 
     51 CB         22.9156  -33.9890  -44.7064 C.3       8 UNK        -0.1912 
     52 C          21.1546  -33.8392  -42.8519 C.2       8 UNK         0.5038 
     53 O          20.3327  -33.7159  -43.7618 O.2       8 UNK        -0.5046 
     54 N          20.8306  -33.8515  -41.5527 N.am      9 UNK        -0.4200 
     55 CA         19.4515  -33.7116  -41.0489 C.3       9 UNK         0.0839 
     56 C          18.5424  -34.9584  -41.2533 C.2       9 UNK         0.5513 
     57 N          19.0715  -36.1155  -41.6329 N.am      9 UNK        -0.7519 
     58 O          17.3319  -34.8724  -41.0637 O.2       9 UNK        -0.4960 
     59 C59        19.3889  -33.2228  -39.5745 C.3       10 UNK        -0.0876 
     60 S60        20.5349  -31.8593  -39.1760 S.3       10 UNK        -0.2414 
     61 C61        19.5782  -30.3690  -39.6041 C.3       10 UNK         0.0169 
     62 H62        17.7081  -26.1631  -49.6369 H         1 UNK         0.0903 
     63 H63        17.9423  -27.9021  -49.8327 H         1 UNK         0.0903 
     64 H64        16.3222  -27.2541  -49.5691 H         1 UNK         0.0903 
     65 H65        15.6023  -27.5194  -47.4665 H         1 UNK         0.3096 
     66 H66        17.4223  -28.1938  -45.3037 H         1 UNK         0.1121 
     67 H67        15.1582  -29.3274  -45.7641 H         1 UNK         0.0849 
     68 H68        14.3866  -27.8942  -45.1626 H         1 UNK         0.0849 
     69 H69        16.6123  -30.8403  -44.6942 H         1 UNK         0.0865 
     70 H70        16.0837  -31.4319  -43.1443 H         1 UNK         0.0865 
     71 H71        17.2608  -30.5881  -41.0246 H         1 UNK         0.1346 
     72 H72        21.4587  -29.8689  -41.5100 H         1 UNK         0.1412 
     73 H73        18.9147  -30.1086  -44.9539 H         1 UNK         0.1426 
     74 H74        21.4796  -30.4966  -45.0419 H         1 UNK         0.0716 
     75 H75        22.4470  -29.9422  -43.7005 H         1 UNK         0.0716 
     76 H76        23.1669  -27.2135  -43.4312 H         1 UNK         0.0695 
     77 H77        21.6266  -27.4643  -42.6436 H         1 UNK         0.0695 
     78 H78        22.2245  -25.2342  -44.6586 H         1 UNK         0.0983 
     79 H79        19.7150  -26.1657  -43.6492 H         1 UNK         0.3095 
     80 H80        17.7755  -24.2352  -43.5157 H         1 UNK         0.0454 
     81 H81        18.0170  -23.2113  -46.4021 H         1 UNK         0.0851 
     82 H82        17.8825  -22.2049  -44.9652 H         1 UNK         0.0851 
     83 H83        16.5368  -23.2229  -45.4444 H         1 UNK         0.0851 
     84 H84        18.4829  -26.0571  -45.7022 H         1 UNK         0.2976 
     85 H85        24.0492  -24.4976  -43.5439 H         1 UNK         0.3116 
     86 H86        23.5619  -22.7415  -41.2985 H         1 UNK         0.0646 
     87 H87        26.1553  -23.4841  -42.7598 H         1 UNK         0.0847 
     88 H88        25.9590  -22.1505  -41.6329 H         1 UNK         0.0847 
     89 H89        25.0966  -22.1299  -43.1604 H         1 UNK         0.0847 
     90 H90        24.3976  -26.0724  -41.4695 H         1 UNK         0.3040 
     91 H91        24.9091  -26.2275  -38.6122 H         1 UNK         0.1015 
     92 H92        26.9304  -27.3196  -40.6719 H         1 UNK         0.0786 
     93 H93        26.9845  -27.6137  -38.9387 H         1 UNK         0.0786 
     94 H94        27.2422  -25.9915  -39.5559 H         1 UNK         0.0786 
     95 H95        24.8550  -28.5580  -37.9704 H         1 UNK         0.3172 
     96 H96        22.6511  -29.9245  -39.2511 H         1 UNK         0.0595 
     97 H97        22.8202  -29.7890  -36.7873 H         1 UNK         0.0839 
     98 H98        24.3651  -30.6420  -36.8116 H         1 UNK         0.0839 
     99 H99        22.8906  -31.4673  -37.2902 H         1 UNK         0.0839 
    100 H100       24.2442  -29.9230  -41.2440 H         1 UNK         0.2998 
    101 H101       26.3088  -31.8990  -41.3319 H         1 UNK         0.0822 
    102 H102       26.4291  -31.2571  -43.7405 H         1 UNK         0.0787 
    103 H103       24.9179  -30.3706  -43.5976 H         1 UNK         0.0787 
    104 H104       26.3445  -29.8385  -42.7091 H         1 UNK         0.0787 
    105 H105       22.8801  -32.0451  -42.3135 H         1 UNK         0.3055 
    106 H106       22.9815  -34.9151  -42.7638 H         1 UNK         0.1106 
    107 H107       22.3471  -34.7836  -45.1915 H         1 UNK         0.0828 
    108 H108       22.6321  -33.0480  -45.1791 H         1 UNK         0.0828 
    109 H109       23.9670  -34.1711  -44.9285 H         1 UNK         0.0828 
    110 H110       21.5562  -33.9423  -40.8569 H         1 UNK         0.2931 
    111 H111       18.9866  -32.9368  -41.6566 H         1 UNK         0.0412 
    112 H112       20.0628  -36.1986  -41.7902 H         1 UNK         0.3472 
    113 H113       18.4705  -36.9143  -41.7638 H         1 UNK         0.3472 
    114 H114       19.6273  -34.0464  -38.8990 H         1 UNK         0.0970 
    115 H115       18.3733  -32.9137  -39.3200 H         1 UNK         0.0970 
    116 H116       20.1116  -29.4906  -39.2384 H         1 UNK         0.0612 
    117 H117       18.6215  -30.3893  -39.0799 H         1 UNK         0.0612 
@<TRIPOS>BOND
     1    1    2 1    
     2    1   62 1    
     3    1   63 1    
     4    1   64 1    
     5    2    3 2    
     6    2    4 am   BACKBONE|DICT|INTERRES
     7    4    5 1    
     8    4   65 1    
     9    5    6 1    
    10    5   25 1    
    11    5   66 1    
    12    6    7 1    
    13    6   67 1    
    14    6   68 1    
    15    7    8 1    
    16    8    9 1    
    17    8   69 1    
    18    8   70 1    
    19    9   10 ar   
    20    9   14 ar   
    21   10   11 ar   
    22   10   71 1    
    23   11   12 ar   
    24   11   61 1    
    25   12   13 ar   
    26   12   72 1    
    27   13   14 ar   
    28   13   15 1    
    29   14   73 1    
    30   15   16 1    
    31   15   74 1    
    32   15   75 1    
    33   16   17 1    
    34   17   18 1    
    35   17   76 1    
    36   17   77 1    
    37   18   19 1    
    38   18   27 1    
    39   18   78 1    
    40   19   20 am   BACKBONE|DICT|INTERRES
    41   19   79 1    
    42   20   21 2    
    43   20   22 1    
    44   22   23 1    
    45   22   24 1    
    46   22   80 1    
    47   23   81 1    
    48   23   82 1    
    49   23   83 1    
    50   24   25 am   BACKBONE|DICT|INTERRES
    51   24   84 1    
    52   25   26 2    
    53   27   28 2    
    54   27   29 am   BACKBONE|DICT|INTERRES
    55   29   30 1    
    56   29   85 1    
    57   30   31 1    
    58   30   32 1    
    59   30   86 1    
    60   31   87 1    
    61   31   88 1    
    62   31   89 1    
    63   32   33 2    
    64   32   34 am   BACKBONE|DICT|INTERRES
    65   34   35 1    
    66   34   90 1    
    67   35   36 1    
    68   35   37 1    
    69   35   91 1    
    70   36   92 1    
    71   36   93 1    
    72   36   94 1    
    73   37   38 2    
    74   37   39 am   BACKBONE|DICT|INTERRES
    75   39   40 1    
    76   39   95 1    
    77   40   41 1    
    78   40   42 1    
    79   40   96 1    
    80   41   97 1    
    81   41   98 1    
    82   41   99 1    
    83   42   43 2    
    84   42   44 am   BACKBONE|DICT|INTERRES
    85   44   45 1    
    86   44  100 1    
    87   45   46 1    
    88   45   47 1    
    89   45  101 1    
    90   46  102 1    
    91   46  103 1    
    92   46  104 1    
    93   47   48 2    
    94   47   49 am   BACKBONE|DICT|INTERRES
    95   49   50 1    
    96   49  105 1    
    97   50   51 1    
    98   50   52 1    
    99   50  106 1    
   100   51  107 1    
   101   51  108 1    
   102   51  109 1    
   103   52   53 2    
   104   52   54 am   BACKBONE|DICT|INTERRES
   105   54   55 1    
   106   54  110 1    
   107   55   56 1    
   108   55   59 1    
   109   55  111 1    
   110   56   57 am   BACKBONE|DICT|INTERRES
   111   56   58 2    
   112   57  112 1    
   113   57  113 1    
   114   59   60 1    
   115   59  114 1    
   116   59  115 1    
   117   60   61 1    
   118   61  116 1    
   119   61  117 1    
@<TRIPOS>SUBSTRUCTURE
     1 UNK         1 GROUP             0       ****    0 ROOT    
