@<TRIPOS>MOLECULE
3R8
117   119    1
SMALL
USER_CHARGES


@<TRIPOS>ATOM
      1 CA         20.6240  -29.7641  -51.0065 C.3       0 UNK        -0.2013 
      2 C          19.9678  -29.8513  -49.6366 C.2       0 UNK         0.4866 
      3 O          19.6143  -30.9449  -49.1949 O.2       0 UNK        -0.5176 
      4 N          19.8014  -28.7100  -48.9623 N.am      1 UNK        -0.4884 
      5 CA         19.2145  -28.5967  -47.6302 C.3       1 UNK         0.0853 
      6 C6         17.6582  -28.6479  -47.6842 C.3       10 UNK        -0.0849 
      7 S7         16.8103  -28.1820  -46.1313 S.3       10 UNK        -0.2776 
      8 C8         16.2822  -29.7892  -45.4569 C.3       10 UNK         0.0316 
      9 C9         16.2641  -29.7637  -43.9333 C.ar      10 UNK        -0.0863 
     10 C10        17.0219  -30.6865  -43.2082 C.ar      10 UNK        -0.1009 
     11 C11        17.0667  -30.6333  -41.8113 C.ar      10 UNK        -0.0712 
     12 C12        16.3172  -29.6657  -41.1357 C.ar      10 UNK        -0.0894 
     13 C13        15.5393  -28.7474  -41.8483 C.ar      10 UNK        -0.0745 
     14 C14        15.5101  -28.8080  -43.2447 C.ar      10 UNK        -0.0972 
     15 C15        14.7350  -27.6833  -41.1144 C.3       10 UNK         0.0209 
     16 S16        15.7958  -26.4398  -40.3079 S.3       10 UNK        -0.2568 
     17 C17        16.7155  -25.7196  -41.7139 C.3       10 UNK        -0.0983 
     18 CA         18.2020  -26.1659  -41.7240 C.3       3 UNK         0.0876 
     19 N          18.8224  -25.9463  -43.0358 N.am      3 UNK        -0.4424 
     20 C          19.9063  -26.5949  -43.4809 C.2       2 UNK         0.4918 
     21 O          20.4815  -27.4786  -42.8462 O.2       2 UNK        -0.4875 
     22 CA         20.4270  -26.2260  -44.8720 C.3       2 UNK         0.0481 
     23 CB         21.9401  -25.9438  -44.8588 C.3       2 UNK        -0.1831 
     24 N          20.1393  -27.3628  -45.7344 N.am      2 UNK        -0.4498 
     25 C          19.7583  -27.2962  -47.0125 C.2       1 UNK         0.5027 
     26 O          19.7847  -26.2657  -47.6918 O.2       1 UNK        -0.4969 
     27 C          19.0556  -25.5029  -40.6171 C.2       3 UNK         0.5005 
     28 O          18.7118  -24.4304  -40.1148 O.2       3 UNK        -0.5279 
     29 N          20.1859  -26.1378  -40.2987 N.am      4 UNK        -0.4463 
     30 CA         21.1986  -25.7228  -39.3361 C.3       4 UNK         0.0283 
     31 CB         22.0233  -24.5522  -39.9094 C.3       4 UNK        -0.1875 
     32 C          22.0945  -26.9345  -39.0539 C.2       4 UNK         0.4949 
     33 O          22.0094  -27.9402  -39.7632 O.2       4 UNK        -0.5039 
     34 N          22.9864  -26.8111  -38.0637 N.am      5 UNK        -0.4663 
     35 CA         23.9679  -27.8318  -37.6656 C.3       5 UNK         0.0242 
     36 CB         24.4494  -27.5239  -36.2351 C.3       5 UNK        -0.1982 
     37 C          25.1430  -27.9972  -38.6589 C.2       5 UNK         0.5017 
     38 O          26.2820  -28.2128  -38.2397 O.2       5 UNK        -0.5012 
     39 N          24.8540  -27.9105  -39.9622 N.am      6 UNK        -0.4439 
     40 CA         25.7807  -28.0999  -41.0767 C.3       6 UNK         0.0297 
     41 CB         25.2484  -27.3174  -42.2929 C.3       6 UNK        -0.2006 
     42 C          25.9468  -29.6009  -41.3670 C.2       6 UNK         0.4892 
     43 O          25.5268  -30.0733  -42.4245 O.2       6 UNK        -0.5089 
     44 N          26.5005  -30.3314  -40.3879 N.am      7 UNK        -0.4243 
     45 CA         26.5677  -31.7952  -40.3181 C.3       7 UNK         0.0196 
     46 CB         27.5392  -32.3572  -41.3823 C.3       7 UNK        -0.2007 
     47 C          25.1473  -32.3927  -40.3639 C.2       7 UNK         0.5020 
     48 O          24.3186  -32.0242  -39.5299 O.2       7 UNK        -0.5147 
     49 N          24.8624  -33.2543  -41.3470 N.am      8 UNK        -0.4734 
     50 CA         23.5400  -33.8314  -41.6062 C.3       8 UNK         0.0238 
     51 CB         23.7238  -35.2064  -42.2770 C.3       8 UNK        -0.1912 
     52 C          22.6429  -32.8812  -42.4298 C.2       8 UNK         0.5038 
     53 O          22.0677  -33.3057  -43.4340 O.2       8 UNK        -0.5046 
     54 N          22.5407  -31.6194  -41.9901 N.am      9 UNK        -0.4200 
     55 CA         21.7378  -30.5432  -42.5969 C.3       9 UNK         0.0839 
     56 C          22.1616  -30.1818  -44.0537 C.2       9 UNK         0.5513 
     57 N          23.4527  -30.1187  -44.3506 N.am      9 UNK        -0.7519 
     58 O          21.3246  -29.9541  -44.9260 O.2       9 UNK        -0.4960 
     59 C59        20.2100  -30.7940  -42.4727 C.3       10 UNK        -0.0876 
     60 S60        19.6163  -30.9491  -40.7553 S.3       10 UNK        -0.2414 
     61 C61        17.9414  -31.6109  -41.0374 C.3       10 UNK         0.0169 
     62 H62        19.9508  -30.1530  -51.7701 H         1 UNK         0.0903 
     63 H63        20.8807  -28.7385  -51.2717 H         1 UNK         0.0903 
     64 H64        21.5377  -30.3576  -51.0234 H         1 UNK         0.0903 
     65 H65        20.1230  -27.8291  -49.3459 H         1 UNK         0.3096 
     66 H66        19.5696  -29.4324  -47.0219 H         1 UNK         0.1121 
     67 H67        17.2982  -27.9652  -48.4561 H         1 UNK         0.0849 
     68 H68        17.3285  -29.6397  -47.9971 H         1 UNK         0.0849 
     69 H69        15.2876  -30.0333  -45.8326 H         1 UNK         0.0865 
     70 H70        16.9528  -30.5722  -45.8146 H         1 UNK         0.0865 
     71 H71        17.6033  -31.4324  -43.7322 H         1 UNK         0.1346 
     72 H72        16.3521  -29.6147  -40.0559 H         1 UNK         0.1412 
     73 H73        14.9198  -28.0934  -43.8024 H         1 UNK         0.1426 
     74 H74        14.0468  -27.1767  -41.7931 H         1 UNK         0.0716 
     75 H75        14.1160  -28.1637  -40.3554 H         1 UNK         0.0716 
     76 H76        16.2274  -26.0265  -42.6399 H         1 UNK         0.0695 
     77 H77        16.6239  -24.6324  -41.6829 H         1 UNK         0.0695 
     78 H78        18.2128  -27.2436  -41.5393 H         1 UNK         0.0983 
     79 H79        18.4104  -25.2257  -43.6103 H         1 UNK         0.3095 
     80 H80        19.8999  -25.3376  -45.2265 H         1 UNK         0.0454 
     81 H81        22.5114  -26.8164  -44.5387 H         1 UNK         0.0851 
     82 H82        22.2967  -25.6569  -45.8479 H         1 UNK         0.0851 
     83 H83        22.1789  -25.1278  -44.1758 H         1 UNK         0.0851 
     84 H84        20.1600  -28.2659  -45.2691 H         1 UNK         0.2976 
     85 H85        20.4192  -26.9997  -40.7887 H         1 UNK         0.3116 
     86 H86        20.7105  -25.4225  -38.4069 H         1 UNK         0.0646 
     87 H87        22.7935  -24.2268  -39.2096 H         1 UNK         0.0847 
     88 H88        21.3972  -23.6845  -40.1167 H         1 UNK         0.0847 
     89 H89        22.5228  -24.8315  -40.8383 H         1 UNK         0.0847 
     90 H90        23.0199  -25.9400  -37.5528 H         1 UNK         0.3040 
     91 H91        23.4570  -28.7973  -37.6397 H         1 UNK         0.1015 
     92 H92        24.9990  -26.5829  -36.1894 H         1 UNK         0.0786 
     93 H93        25.1120  -28.3076  -35.8650 H         1 UNK         0.0786 
     94 H94        23.6129  -27.4599  -35.5390 H         1 UNK         0.0786 
     95 H95        23.8683  -27.8326  -40.1973 H         1 UNK         0.3172 
     96 H96        26.7600  -27.6960  -40.8119 H         1 UNK         0.0595 
     97 H97        25.9101  -27.4335  -43.1523 H         1 UNK         0.0839 
     98 H98        25.1795  -26.2508  -42.0791 H         1 UNK         0.0839 
     99 H99        24.2580  -27.6618  -42.5954 H         1 UNK         0.0839 
    100 H100       26.7491  -29.8372  -39.5376 H         1 UNK         0.2998 
    101 H101       26.9710  -32.0429  -39.3350 H         1 UNK         0.0822 
    102 H102       28.5310  -31.9184  -41.2717 H         1 UNK         0.0787 
    103 H103       27.6577  -33.4365  -41.2775 H         1 UNK         0.0787 
    104 H104       27.2057  -32.1549  -42.4007 H         1 UNK         0.0787 
    105 H105       25.5836  -33.4564  -42.0248 H         1 UNK         0.3055 
    106 H106       23.0294  -33.9958  -40.6542 H         1 UNK         0.1106 
    107 H107       22.7625  -35.6980  -42.4327 H         1 UNK         0.0828 
    108 H108       24.2075  -35.1196  -43.2507 H         1 UNK         0.0828 
    109 H109       24.3273  -35.8721  -41.6598 H         1 UNK         0.0828 
    110 H110       23.0606  -31.3686  -41.1587 H         1 UNK         0.2931 
    111 H111       21.9621  -29.6498  -42.0133 H         1 UNK         0.0412 
    112 H112       23.7290  -29.8921  -45.2914 H         1 UNK         0.3472 
    113 H113       24.1629  -30.2448  -43.6319 H         1 UNK         0.3472 
    114 H114       19.6634  -29.9642  -42.9223 H         1 UNK         0.0970 
    115 H115       19.9280  -31.6859  -43.0338 H         1 UNK         0.0970 
    116 H116       18.0121  -32.5611  -41.5690 H         1 UNK         0.0612 
    117 H117       17.4843  -31.8345  -40.0724 H         1 UNK         0.0612 
@<TRIPOS>BOND
     1    1    2 1    
     2    1   62 1    
     3    1   63 1    
     4    1   64 1    
     5    2    3 2    
     6    2    4 am   BACKBONE|DICT|INTERRES
     7    4    5 1    
     8    4   65 1    
     9    5    6 1    
    10    5   25 1    
    11    5   66 1    
    12    6    7 1    
    13    6   67 1    
    14    6   68 1    
    15    7    8 1    
    16    8    9 1    
    17    8   69 1    
    18    8   70 1    
    19    9   10 ar   
    20    9   14 ar   
    21   10   11 ar   
    22   10   71 1    
    23   11   12 ar   
    24   11   61 1    
    25   12   13 ar   
    26   12   72 1    
    27   13   14 ar   
    28   13   15 1    
    29   14   73 1    
    30   15   16 1    
    31   15   74 1    
    32   15   75 1    
    33   16   17 1    
    34   17   18 1    
    35   17   76 1    
    36   17   77 1    
    37   18   19 1    
    38   18   27 1    
    39   18   78 1    
    40   19   20 am   BACKBONE|DICT|INTERRES
    41   19   79 1    
    42   20   21 2    
    43   20   22 1    
    44   22   23 1    
    45   22   24 1    
    46   22   80 1    
    47   23   81 1    
    48   23   82 1    
    49   23   83 1    
    50   24   25 am   BACKBONE|DICT|INTERRES
    51   24   84 1    
    52   25   26 2    
    53   27   28 2    
    54   27   29 am   BACKBONE|DICT|INTERRES
    55   29   30 1    
    56   29   85 1    
    57   30   31 1    
    58   30   32 1    
    59   30   86 1    
    60   31   87 1    
    61   31   88 1    
    62   31   89 1    
    63   32   33 2    
    64   32   34 am   BACKBONE|DICT|INTERRES
    65   34   35 1    
    66   34   90 1    
    67   35   36 1    
    68   35   37 1    
    69   35   91 1    
    70   36   92 1    
    71   36   93 1    
    72   36   94 1    
    73   37   38 2    
    74   37   39 am   BACKBONE|DICT|INTERRES
    75   39   40 1    
    76   39   95 1    
    77   40   41 1    
    78   40   42 1    
    79   40   96 1    
    80   41   97 1    
    81   41   98 1    
    82   41   99 1    
    83   42   43 2    
    84   42   44 am   BACKBONE|DICT|INTERRES
    85   44   45 1    
    86   44  100 1    
    87   45   46 1    
    88   45   47 1    
    89   45  101 1    
    90   46  102 1    
    91   46  103 1    
    92   46  104 1    
    93   47   48 2    
    94   47   49 am   BACKBONE|DICT|INTERRES
    95   49   50 1    
    96   49  105 1    
    97   50   51 1    
    98   50   52 1    
    99   50  106 1    
   100   51  107 1    
   101   51  108 1    
   102   51  109 1    
   103   52   53 2    
   104   52   54 am   BACKBONE|DICT|INTERRES
   105   54   55 1    
   106   54  110 1    
   107   55   56 1    
   108   55   59 1    
   109   55  111 1    
   110   56   57 am   BACKBONE|DICT|INTERRES
   111   56   58 2    
   112   57  112 1    
   113   57  113 1    
   114   59   60 1    
   115   59  114 1    
   116   59  115 1    
   117   60   61 1    
   118   61  116 1    
   119   61  117 1    
@<TRIPOS>SUBSTRUCTURE
     1 UNK         1 GROUP             0       ****    0 ROOT    
