@<TRIPOS>MOLECULE
3R8
117   119    1
SMALL
USER_CHARGES


@<TRIPOS>ATOM
      1 CA         19.1392  -27.4881  -41.8232 C.3       0 UNK        -0.2013 
      2 C          17.8238  -26.9805  -42.3887 C.2       0 UNK         0.4866 
      3 O          17.2115  -26.0906  -41.7985 O.2       0 UNK        -0.5176 
      4 N          17.3868  -27.5301  -43.5312 N.am      1 UNK        -0.4884 
      5 CA         16.1610  -27.1188  -44.2346 C.3       1 UNK         0.0853 
      6 C6         15.7618  -28.1023  -45.3620 C.3       10 UNK        -0.0849 
      7 S7         15.4624  -29.7900  -44.7376 S.3       10 UNK        -0.2776 
      8 C8         16.7186  -30.7579  -45.6363 C.3       10 UNK         0.0316 
      9 C9         18.1373  -30.4334  -45.1874 C.ar      10 UNK        -0.0863 
     10 C10        18.5615  -30.7848  -43.9024 C.ar      10 UNK        -0.1009 
     11 C11        19.8696  -30.5181  -43.4901 C.ar      10 UNK        -0.0712 
     12 C12        20.7598  -29.9027  -44.3747 C.ar      10 UNK        -0.0894 
     13 C13        20.3502  -29.5513  -45.6642 C.ar      10 UNK        -0.0745 
     14 C14        19.0357  -29.8142  -46.0633 C.ar      10 UNK        -0.0972 
     15 C15        21.3385  -28.9263  -46.6400 C.3       10 UNK         0.0209 
     16 S16        21.1121  -27.1283  -46.8049 S.3       10 UNK        -0.2568 
     17 C17        21.7826  -26.5306  -45.2178 C.3       10 UNK        -0.0983 
     18 CA         21.5056  -25.0243  -44.9674 C.3       3 UNK         0.0876 
     19 N          20.0756  -24.7260  -44.9667 N.am      3 UNK        -0.4424 
     20 C          19.4203  -24.0604  -45.9265 C.2       2 UNK         0.4918 
     21 O          19.9736  -23.5107  -46.8804 O.2       2 UNK        -0.4875 
     22 CA         17.8851  -24.0675  -45.8274 C.3       2 UNK         0.0481 
     23 CB         17.1935  -23.7074  -47.1589 C.3       2 UNK        -0.1831 
     24 N          17.4536  -25.3843  -45.3615 N.am      2 UNK        -0.4498 
     25 C          16.2827  -25.6852  -44.7896 C.2       1 UNK         0.5027 
     26 O          15.3484  -24.8924  -44.6627 O.2       1 UNK        -0.4969 
     27 C          22.0687  -24.6158  -43.6000 C.2       3 UNK         0.5005 
     28 O          21.4643  -24.9517  -42.5782 O.2       3 UNK        -0.5279 
     29 N          23.2243  -23.9384  -43.5967 N.am      4 UNK        -0.4463 
     30 CA         23.9783  -23.6225  -42.3792 C.3       4 UNK         0.0283 
     31 CB         24.9074  -22.4264  -42.6422 C.3       4 UNK        -0.1875 
     32 C          24.7864  -24.8310  -41.8764 C.2       4 UNK         0.4949 
     33 O          24.9306  -25.0088  -40.6667 O.2       4 UNK        -0.5039 
     34 N          25.2837  -25.6542  -42.8101 N.am      5 UNK        -0.4663 
     35 CA         26.0760  -26.8591  -42.5524 C.3       5 UNK         0.0242 
     36 CB         26.9831  -27.1229  -43.7695 C.3       5 UNK        -0.1982 
     37 C          25.1837  -28.0663  -42.2041 C.2       5 UNK         0.5017 
     38 O          25.2331  -29.0907  -42.8879 O.2       5 UNK        -0.5012 
     39 N          24.3653  -27.9150  -41.1569 N.am      6 UNK        -0.4439 
     40 CA         23.5141  -28.9692  -40.6070 C.3       6 UNK         0.0297 
     41 CB         22.4145  -28.3273  -39.7461 C.3       6 UNK        -0.2006 
     42 C          24.3330  -29.9795  -39.7859 C.2       6 UNK         0.4892 
     43 O          25.3616  -29.6150  -39.2097 O.2       6 UNK        -0.5089 
     44 N          23.8448  -31.2219  -39.7299 N.am      7 UNK        -0.4243 
     45 CA         24.4513  -32.3359  -39.0042 C.3       7 UNK         0.0196 
     46 CB         25.5684  -32.9762  -39.8591 C.3       7 UNK        -0.2007 
     47 C          23.3391  -33.3069  -38.5774 C.2       7 UNK         0.5020 
     48 O          22.2978  -32.8553  -38.0966 O.2       7 UNK        -0.5147 
     49 N          23.5493  -34.6159  -38.7828 N.am      8 UNK        -0.4734 
     50 CA         22.6161  -35.7057  -38.4528 C.3       8 UNK         0.0238 
     51 CB         23.3032  -37.0532  -38.7304 C.3       8 UNK        -0.1912 
     52 C          21.2545  -35.6368  -39.1742 C.2       8 UNK         0.5038 
     53 O          20.3029  -36.2792  -38.7282 O.2       8 UNK        -0.5046 
     54 N          21.1838  -34.8476  -40.2522 N.am      9 UNK        -0.4200 
     55 CA         19.9556  -34.4214  -40.9348 C.3       9 UNK         0.0839 
     56 C          18.9738  -33.5842  -40.0607 C.2       9 UNK         0.5513 
     57 N          19.4096  -32.9742  -38.9633 N.am      9 UNK        -0.7519 
     58 O          17.7947  -33.4888  -40.3902 O.2       9 UNK        -0.4960 
     59 C59        20.2864  -33.6946  -42.2665 C.3       10 UNK        -0.0876 
     60 S60        21.4500  -32.2952  -42.0630 S.3       10 UNK        -0.2414 
     61 C61        20.3193  -30.8708  -42.0820 C.3       10 UNK         0.0169 
     62 H62        19.6404  -26.6978  -41.2644 H         1 UNK         0.0903 
     63 H63        18.9623  -28.3242  -41.1477 H         1 UNK         0.0903 
     64 H64        19.8138  -27.8081  -42.6148 H         1 UNK         0.0903 
     65 H65        17.8947  -28.3007  -43.9469 H         1 UNK         0.3096 
     66 H66        15.3521  -27.1049  -43.5002 H         1 UNK         0.1121 
     67 H67        14.8429  -27.7677  -45.8478 H         1 UNK         0.0849 
     68 H68        16.5226  -28.1252  -46.1443 H         1 UNK         0.0849 
     69 H69        16.5296  -31.8190  -45.4674 H         1 UNK         0.0865 
     70 H70        16.5992  -30.5979  -46.7092 H         1 UNK         0.0865 
     71 H71        17.8686  -31.2637  -43.2233 H         1 UNK         0.1346 
     72 H72        21.7754  -29.7053  -44.0584 H         1 UNK         0.1412 
     73 H73        18.7208  -29.5491  -47.0637 H         1 UNK         0.1426 
     74 H74        21.2123  -29.3851  -47.6217 H         1 UNK         0.0716 
     75 H75        22.3663  -29.1359  -46.3388 H         1 UNK         0.0716 
     76 H76        21.3535  -27.1319  -44.4151 H         1 UNK         0.0695 
     77 H77        22.8561  -26.7296  -45.2097 H         1 UNK         0.0695 
     78 H78        22.0116  -24.4415  -45.7404 H         1 UNK         0.0983 
     79 H79        19.5743  -25.0463  -44.1502 H         1 UNK         0.3095 
     80 H80        17.6115  -23.3233  -45.0770 H         1 UNK         0.0454 
     81 H81        17.4977  -22.7185  -47.5040 H         1 UNK         0.0851 
     82 H82        17.4440  -24.4205  -47.9449 H         1 UNK         0.0851 
     83 H83        16.1087  -23.6888  -47.0568 H         1 UNK         0.0851 
     84 H84        18.1492  -26.1153  -45.4321 H         1 UNK         0.2976 
     85 H85        23.6446  -23.6725  -44.4766 H         1 UNK         0.3116 
     86 H86        23.2776  -23.3376  -41.5909 H         1 UNK         0.0646 
     87 H87        25.4630  -22.1607  -41.7416 H         1 UNK         0.0847 
     88 H88        24.3428  -21.5439  -42.9435 H         1 UNK         0.0847 
     89 H89        25.6383  -22.6410  -43.4228 H         1 UNK         0.0847 
     90 H90        25.0879  -25.4491  -43.7783 H         1 UNK         0.3040 
     91 H91        26.7231  -26.6822  -41.6900 H         1 UNK         0.1015 
     92 H92        27.6406  -26.2756  -43.9654 H         1 UNK         0.0786 
     93 H93        26.4032  -27.3146  -44.6732 H         1 UNK         0.0786 
     94 H94        27.6210  -27.9917  -43.6005 H         1 UNK         0.0786 
     95 H95        24.4098  -27.0387  -40.6483 H         1 UNK         0.3172 
     96 H96        23.0478  -29.4966  -41.4408 H         1 UNK         0.0595 
     97 H97        21.8222  -27.6185  -40.3249 H         1 UNK         0.0839 
     98 H98        22.8323  -27.7942  -38.8910 H         1 UNK         0.0839 
     99 H99        21.7295  -29.0817  -39.3564 H         1 UNK         0.0839 
    100 H100       22.9630  -31.4278  -40.1817 H         1 UNK         0.2998 
    101 H101       24.8947  -31.9579  -38.0804 H         1 UNK         0.0822 
    102 H102       26.3249  -32.2395  -40.1308 H         1 UNK         0.0787 
    103 H103       26.0866  -33.7670  -39.3153 H         1 UNK         0.0787 
    104 H104       25.1782  -33.3997  -40.7858 H         1 UNK         0.0787 
    105 H105       24.4300  -34.8916  -39.1940 H         1 UNK         0.3055 
    106 H106       22.4048  -35.6414  -37.3831 H         1 UNK         0.1106 
    107 H107       23.5620  -37.1649  -39.7840 H         1 UNK         0.0828 
    108 H108       24.2162  -37.1630  -38.1449 H         1 UNK         0.0828 
    109 H109       22.6511  -37.8870  -38.4656 H         1 UNK         0.0828 
    110 H110       22.0225  -34.3643  -40.5354 H         1 UNK         0.2931 
    111 H111       19.4161  -35.3345  -41.1930 H         1 UNK         0.0412 
    112 H112       18.7614  -32.4411  -38.4063 H         1 UNK         0.3472 
    113 H113       20.3858  -33.0230  -38.6914 H         1 UNK         0.3472 
    114 H114       19.3766  -33.3614  -42.7688 H         1 UNK         0.0970 
    115 H115       20.7476  -34.4034  -42.9557 H         1 UNK         0.0970 
    116 H116       19.4626  -31.0663  -41.4364 H         1 UNK         0.0612 
    117 H117       20.8273  -30.0114  -41.6478 H         1 UNK         0.0612 
@<TRIPOS>BOND
     1    1    2 1    
     2    1   62 1    
     3    1   63 1    
     4    1   64 1    
     5    2    3 2    
     6    2    4 am   BACKBONE|DICT|INTERRES
     7    4    5 1    
     8    4   65 1    
     9    5    6 1    
    10    5   25 1    
    11    5   66 1    
    12    6    7 1    
    13    6   67 1    
    14    6   68 1    
    15    7    8 1    
    16    8    9 1    
    17    8   69 1    
    18    8   70 1    
    19    9   10 ar   
    20    9   14 ar   
    21   10   11 ar   
    22   10   71 1    
    23   11   12 ar   
    24   11   61 1    
    25   12   13 ar   
    26   12   72 1    
    27   13   14 ar   
    28   13   15 1    
    29   14   73 1    
    30   15   16 1    
    31   15   74 1    
    32   15   75 1    
    33   16   17 1    
    34   17   18 1    
    35   17   76 1    
    36   17   77 1    
    37   18   19 1    
    38   18   27 1    
    39   18   78 1    
    40   19   20 am   BACKBONE|DICT|INTERRES
    41   19   79 1    
    42   20   21 2    
    43   20   22 1    
    44   22   23 1    
    45   22   24 1    
    46   22   80 1    
    47   23   81 1    
    48   23   82 1    
    49   23   83 1    
    50   24   25 am   BACKBONE|DICT|INTERRES
    51   24   84 1    
    52   25   26 2    
    53   27   28 2    
    54   27   29 am   BACKBONE|DICT|INTERRES
    55   29   30 1    
    56   29   85 1    
    57   30   31 1    
    58   30   32 1    
    59   30   86 1    
    60   31   87 1    
    61   31   88 1    
    62   31   89 1    
    63   32   33 2    
    64   32   34 am   BACKBONE|DICT|INTERRES
    65   34   35 1    
    66   34   90 1    
    67   35   36 1    
    68   35   37 1    
    69   35   91 1    
    70   36   92 1    
    71   36   93 1    
    72   36   94 1    
    73   37   38 2    
    74   37   39 am   BACKBONE|DICT|INTERRES
    75   39   40 1    
    76   39   95 1    
    77   40   41 1    
    78   40   42 1    
    79   40   96 1    
    80   41   97 1    
    81   41   98 1    
    82   41   99 1    
    83   42   43 2    
    84   42   44 am   BACKBONE|DICT|INTERRES
    85   44   45 1    
    86   44  100 1    
    87   45   46 1    
    88   45   47 1    
    89   45  101 1    
    90   46  102 1    
    91   46  103 1    
    92   46  104 1    
    93   47   48 2    
    94   47   49 am   BACKBONE|DICT|INTERRES
    95   49   50 1    
    96   49  105 1    
    97   50   51 1    
    98   50   52 1    
    99   50  106 1    
   100   51  107 1    
   101   51  108 1    
   102   51  109 1    
   103   52   53 2    
   104   52   54 am   BACKBONE|DICT|INTERRES
   105   54   55 1    
   106   54  110 1    
   107   55   56 1    
   108   55   59 1    
   109   55  111 1    
   110   56   57 am   BACKBONE|DICT|INTERRES
   111   56   58 2    
   112   57  112 1    
   113   57  113 1    
   114   59   60 1    
   115   59  114 1    
   116   59  115 1    
   117   60   61 1    
   118   61  116 1    
   119   61  117 1    
@<TRIPOS>SUBSTRUCTURE
     1 UNK         1 GROUP             0       ****    0 ROOT    
