@<TRIPOS>MOLECULE
3R8
117   119    1
SMALL
USER_CHARGES


@<TRIPOS>ATOM
      1 CA         17.8918  -22.8861  -43.5850 C.3       0 UNK        -0.2013 
      2 C          17.7826  -24.3249  -44.0650 C.2       0 UNK         0.4866 
      3 O          18.2296  -25.2355  -43.3668 O.2       0 UNK        -0.5176 
      4 N          17.1958  -24.5387  -45.2533 N.am      1 UNK        -0.4884 
      5 CA         17.0256  -25.8428  -45.9085 C.3       1 UNK         0.0853 
      6 C6         16.0272  -26.7473  -45.1331 C.3       10 UNK        -0.0849 
      7 S7         15.5205  -28.2349  -46.0603 S.3       10 UNK        -0.2776 
      8 C8         15.0220  -29.3503  -44.7083 C.3       10 UNK         0.0316 
      9 C9         16.2069  -29.7903  -43.8591 C.ar      10 UNK        -0.0863 
     10 C10        17.0894  -30.7621  -44.3373 C.ar      10 UNK        -0.1009 
     11 C11        18.1790  -31.1753  -43.5649 C.ar      10 UNK        -0.0712 
     12 C12        18.3732  -30.6144  -42.2992 C.ar      10 UNK        -0.0894 
     13 C13        17.4928  -29.6461  -41.8018 C.ar      10 UNK        -0.0745 
     14 C14        16.4114  -29.2410  -42.5895 C.ar      10 UNK        -0.0972 
     15 C15        17.6477  -29.0794  -40.3930 C.3       10 UNK         0.0209 
     16 S16        19.3680  -28.7178  -39.9117 S.3       10 UNK        -0.2568 
     17 C17        19.6871  -27.1067  -40.6978 C.3       10 UNK        -0.0983 
     18 CA         20.7620  -27.2148  -41.8129 C.3       3 UNK         0.0876 
     19 N          20.1714  -27.4424  -43.1287 N.am      3 UNK        -0.4424 
     20 C          20.6428  -28.2992  -44.0449 C.2       2 UNK         0.4918 
     21 O          21.5031  -29.1486  -43.8025 O.2       2 UNK        -0.4875 
     22 CA         20.1048  -28.1402  -45.4800 C.3       2 UNK         0.0481 
     23 CB         20.0927  -29.4408  -46.2997 C.3       2 UNK        -0.1831 
     24 N          18.7713  -27.5400  -45.4856 N.am      2 UNK        -0.4498 
     25 C          18.4153  -26.4605  -46.1924 C.2       1 UNK         0.5027 
     26 O          19.1489  -25.9087  -47.0158 O.2       1 UNK        -0.4969 
     27 C          21.6198  -25.9435  -41.9436 C.2       3 UNK         0.5005 
     28 O          21.1753  -24.8520  -41.5825 O.2       3 UNK        -0.5279 
     29 N          22.8267  -26.1016  -42.5073 N.am      4 UNK        -0.4463 
     30 CA         23.7977  -25.0197  -42.7125 C.3       4 UNK         0.0283 
     31 CB         24.9101  -25.5074  -43.6543 C.3       4 UNK        -0.1875 
     32 C          24.3964  -24.4976  -41.3937 C.2       4 UNK         0.4949 
     33 O          24.6893  -23.3072  -41.2835 O.2       4 UNK        -0.5039 
     34 N          24.5405  -25.4010  -40.4203 N.am      5 UNK        -0.4663 
     35 CA         24.9415  -25.1431  -39.0384 C.3       5 UNK         0.0242 
     36 CB         26.4466  -24.8263  -38.9308 C.3       5 UNK        -0.1982 
     37 C          24.5492  -26.3808  -38.2304 C.2       5 UNK         0.5017 
     38 O          23.7327  -26.2891  -37.3139 O.2       5 UNK        -0.5012 
     39 N          25.0726  -27.5289  -38.6737 N.am      6 UNK        -0.4439 
     40 CA         24.5227  -28.8569  -38.4212 C.3       6 UNK         0.0297 
     41 CB         25.6845  -29.8331  -38.1679 C.3       6 UNK        -0.2006 
     42 C          23.7122  -29.2852  -39.6567 C.2       6 UNK         0.4892 
     43 O          23.8089  -28.6433  -40.7091 O.2       6 UNK        -0.5089 
     44 N          22.9418  -30.3687  -39.5109 N.am      7 UNK        -0.4243 
     45 CA         22.2122  -31.0166  -40.5997 C.3       7 UNK         0.0196 
     46 CB         21.2159  -32.0303  -40.0090 C.3       7 UNK        -0.2007 
     47 C          23.1839  -31.7187  -41.5562 C.2       7 UNK         0.5020 
     48 O          23.8739  -32.6480  -41.1325 O.2       7 UNK        -0.5147 
     49 N          23.1957  -31.3096  -42.8319 N.am      8 UNK        -0.4734 
     50 CA         23.9980  -31.9512  -43.8836 C.3       8 UNK         0.0238 
     51 CB         23.9846  -31.0729  -45.1435 C.3       8 UNK        -0.1912 
     52 C          23.5246  -33.3804  -44.2119 C.2       8 UNK         0.5038 
     53 O          24.3202  -34.1938  -44.6823 O.2       8 UNK        -0.5046 
     54 N          22.2453  -33.6523  -43.9316 N.am      9 UNK        -0.4200 
     55 CA         21.6055  -34.9709  -43.9728 C.3       9 UNK         0.0839 
     56 C          21.8664  -35.8524  -42.7146 C.2       9 UNK         0.5513 
     57 N          22.5787  -35.3839  -41.6950 N.am      9 UNK        -0.7519 
     58 O          21.4267  -36.9985  -42.6708 O.2       9 UNK        -0.4960 
     59 C59        20.0963  -34.8474  -44.3193 C.3       10 UNK        -0.0876 
     60 S60        19.1369  -33.7656  -43.1949 S.3       10 UNK        -0.2414 
     61 C61        19.1633  -32.1967  -44.1179 C.3       10 UNK         0.0169 
     62 H62        18.9350  -22.6356  -43.3930 H         1 UNK         0.0903 
     63 H63        17.5009  -22.1794  -44.3166 H         1 UNK         0.0903 
     64 H64        17.3355  -22.7590  -42.6568 H         1 UNK         0.0903 
     65 H65        16.8791  -23.7444  -45.7929 H         1 UNK         0.3096 
     66 H66        16.5876  -25.6361  -46.8867 H         1 UNK         0.1121 
     67 H67        15.1190  -26.1814  -44.9196 H         1 UNK         0.0849 
     68 H68        16.4301  -27.0206  -44.1590 H         1 UNK         0.0849 
     69 H69        14.2641  -28.8599  -44.0951 H         1 UNK         0.0865 
     70 H70        14.5398  -30.2302  -45.1370 H         1 UNK         0.0865 
     71 H71        16.9312  -31.1865  -45.3196 H         1 UNK         0.1346 
     72 H72        19.2089  -30.9394  -41.6986 H         1 UNK         0.1412 
     73 H73        15.7187  -28.5029  -42.2083 H         1 UNK         0.1426 
     74 H74        17.2471  -29.8126  -39.6921 H         1 UNK         0.0716 
     75 H75        17.0475  -28.1772  -40.2655 H         1 UNK         0.0716 
     76 H76        20.0179  -26.4513  -39.8897 H         1 UNK         0.0695 
     77 H77        18.7616  -26.6689  -41.0754 H         1 UNK         0.0695 
     78 H78        21.4448  -28.0234  -41.5551 H         1 UNK         0.0983 
     79 H79        19.4833  -26.7463  -43.4057 H         1 UNK         0.3095 
     80 H80        20.8161  -27.4657  -45.9604 H         1 UNK         0.0454 
     81 H81        19.8902  -29.2337  -47.3503 H         1 UNK         0.0851 
     82 H82        19.3275  -30.1291  -45.9523 H         1 UNK         0.0851 
     83 H83        21.0515  -29.9548  -46.2560 H         1 UNK         0.0851 
     84 H84        18.1014  -27.9390  -44.8406 H         1 UNK         0.2976 
     85 H85        23.1168  -27.0346  -42.7706 H         1 UNK         0.3116 
     86 H86        23.2816  -24.1871  -43.1954 H         1 UNK         0.0646 
     87 H87        25.4526  -26.3562  -43.2358 H         1 UNK         0.0847 
     88 H88        25.6375  -24.7158  -43.8400 H         1 UNK         0.0847 
     89 H89        24.5082  -25.8089  -44.6217 H         1 UNK         0.0847 
     90 H90        24.2270  -26.3465  -40.6112 H         1 UNK         0.3040 
     91 H91        24.3694  -24.2940  -38.6573 H         1 UNK         0.1015 
     92 H92        27.0644  -25.6082  -39.3733 H         1 UNK         0.0786 
     93 H93        26.7479  -24.7204  -37.8877 H         1 UNK         0.0786 
     94 H94        26.6910  -23.8894  -39.4313 H         1 UNK         0.0786 
     95 H95        25.7126  -27.4762  -39.4539 H         1 UNK         0.3172 
     96 H96        23.8632  -28.8450  -37.5507 H         1 UNK         0.0595 
     97 H97        26.3390  -29.9188  -39.0364 H         1 UNK         0.0839 
     98 H98        25.3174  -30.8341  -37.9380 H         1 UNK         0.0839 
     99 H99        26.2926  -29.5121  -37.3219 H         1 UNK         0.0839 
    100 H100       22.9406  -30.8488  -38.6228 H         1 UNK         0.2998 
    101 H101       21.6502  -30.2635  -41.1530 H         1 UNK         0.0822 
    102 H102       20.6862  -32.5664  -40.7969 H         1 UNK         0.0787 
    103 H103       21.7164  -32.7794  -39.3940 H         1 UNK         0.0787 
    104 H104       20.4662  -31.5377  -39.3901 H         1 UNK         0.0787 
    105 H105       22.6150  -30.5214  -43.1143 H         1 UNK         0.3055 
    106 H106       25.0278  -32.0237  -43.5259 H         1 UNK         0.1106 
    107 H107       24.6319  -31.4895  -45.9165 H         1 UNK         0.0828 
    108 H108       22.9835  -30.9940  -45.5652 H         1 UNK         0.0828 
    109 H109       24.3400  -30.0644  -44.9305 H         1 UNK         0.0828 
    110 H110       21.6896  -32.9166  -43.5243 H         1 UNK         0.2931 
    111 H111       22.0632  -35.5225  -44.7962 H         1 UNK         0.0412 
    112 H112       22.9764  -34.4530  -41.7066 H         1 UNK         0.3472 
    113 H113       22.7366  -35.9806  -40.8986 H         1 UNK         0.3472 
    114 H114       19.6256  -35.8323  -44.3263 H         1 UNK         0.0970 
    115 H115       19.9917  -34.4829  -45.3420 H         1 UNK         0.0970 
    116 H116       18.9421  -32.3998  -45.1666 H         1 UNK         0.0612 
    117 H117       20.1666  -31.7710  -44.0898 H         1 UNK         0.0612 
@<TRIPOS>BOND
     1    1    2 1    
     2    1   62 1    
     3    1   63 1    
     4    1   64 1    
     5    2    3 2    
     6    2    4 am   BACKBONE|DICT|INTERRES
     7    4    5 1    
     8    4   65 1    
     9    5    6 1    
    10    5   25 1    
    11    5   66 1    
    12    6    7 1    
    13    6   67 1    
    14    6   68 1    
    15    7    8 1    
    16    8    9 1    
    17    8   69 1    
    18    8   70 1    
    19    9   10 ar   
    20    9   14 ar   
    21   10   11 ar   
    22   10   71 1    
    23   11   12 ar   
    24   11   61 1    
    25   12   13 ar   
    26   12   72 1    
    27   13   14 ar   
    28   13   15 1    
    29   14   73 1    
    30   15   16 1    
    31   15   74 1    
    32   15   75 1    
    33   16   17 1    
    34   17   18 1    
    35   17   76 1    
    36   17   77 1    
    37   18   19 1    
    38   18   27 1    
    39   18   78 1    
    40   19   20 am   BACKBONE|DICT|INTERRES
    41   19   79 1    
    42   20   21 2    
    43   20   22 1    
    44   22   23 1    
    45   22   24 1    
    46   22   80 1    
    47   23   81 1    
    48   23   82 1    
    49   23   83 1    
    50   24   25 am   BACKBONE|DICT|INTERRES
    51   24   84 1    
    52   25   26 2    
    53   27   28 2    
    54   27   29 am   BACKBONE|DICT|INTERRES
    55   29   30 1    
    56   29   85 1    
    57   30   31 1    
    58   30   32 1    
    59   30   86 1    
    60   31   87 1    
    61   31   88 1    
    62   31   89 1    
    63   32   33 2    
    64   32   34 am   BACKBONE|DICT|INTERRES
    65   34   35 1    
    66   34   90 1    
    67   35   36 1    
    68   35   37 1    
    69   35   91 1    
    70   36   92 1    
    71   36   93 1    
    72   36   94 1    
    73   37   38 2    
    74   37   39 am   BACKBONE|DICT|INTERRES
    75   39   40 1    
    76   39   95 1    
    77   40   41 1    
    78   40   42 1    
    79   40   96 1    
    80   41   97 1    
    81   41   98 1    
    82   41   99 1    
    83   42   43 2    
    84   42   44 am   BACKBONE|DICT|INTERRES
    85   44   45 1    
    86   44  100 1    
    87   45   46 1    
    88   45   47 1    
    89   45  101 1    
    90   46  102 1    
    91   46  103 1    
    92   46  104 1    
    93   47   48 2    
    94   47   49 am   BACKBONE|DICT|INTERRES
    95   49   50 1    
    96   49  105 1    
    97   50   51 1    
    98   50   52 1    
    99   50  106 1    
   100   51  107 1    
   101   51  108 1    
   102   51  109 1    
   103   52   53 2    
   104   52   54 am   BACKBONE|DICT|INTERRES
   105   54   55 1    
   106   54  110 1    
   107   55   56 1    
   108   55   59 1    
   109   55  111 1    
   110   56   57 am   BACKBONE|DICT|INTERRES
   111   56   58 2    
   112   57  112 1    
   113   57  113 1    
   114   59   60 1    
   115   59  114 1    
   116   59  115 1    
   117   60   61 1    
   118   61  116 1    
   119   61  117 1    
@<TRIPOS>SUBSTRUCTURE
     1 UNK         1 GROUP             0       ****    0 ROOT    
