@<TRIPOS>MOLECULE
3R8
117   119    1
SMALL
USER_CHARGES


@<TRIPOS>ATOM
      1 CA         13.8625  -23.3700  -44.4293 C.3       0 UNK        -0.2013 
      2 C          14.9425  -24.1604  -45.1527 C.2       0 UNK         0.4866 
      3 O          15.2987  -23.8172  -46.2800 O.2       0 UNK        -0.5176 
      4 N          15.4595  -25.2191  -44.5148 N.am      1 UNK        -0.4884 
      5 CA         16.5144  -26.0932  -45.0442 C.3       1 UNK         0.0853 
      6 C6         16.7058  -27.3503  -44.1630 C.3       10 UNK        -0.0849 
      7 S7         15.2886  -28.5018  -44.2493 S.3       10 UNK        -0.2776 
      8 C8         15.8061  -29.7027  -45.5277 C.3       10 UNK         0.0316 
      9 C9         17.1657  -30.3171  -45.2244 C.ar      10 UNK        -0.0863 
     10 C10        17.3137  -31.2352  -44.1801 C.ar      10 UNK        -0.1009 
     11 C11        18.5807  -31.7172  -43.8351 C.ar      10 UNK        -0.0712 
     12 C12        19.7007  -31.2788  -44.5485 C.ar      10 UNK        -0.0894 
     13 C13        19.5607  -30.3766  -45.6070 C.ar      10 UNK        -0.0745 
     14 C14        18.2889  -29.9163  -45.9538 C.ar      10 UNK        -0.0972 
     15 C15        20.7827  -29.8622  -46.3525 C.3       10 UNK         0.0209 
     16 S16        21.1205  -28.1127  -45.9691 S.3       10 UNK        -0.2568 
     17 C17        21.4860  -28.1943  -44.1850 C.3       10 UNK        -0.0983 
     18 CA         21.8252  -26.8042  -43.5880 C.3       3 UNK         0.0876 
     19 N          20.6939  -25.8691  -43.6881 N.am      3 UNK        -0.4424 
     20 C          20.7768  -24.5911  -44.0829 C.2       2 UNK         0.4918 
     21 O          21.8378  -24.0455  -44.3881 O.2       2 UNK        -0.4875 
     22 CA         19.4682  -23.7669  -44.0960 C.3       2 UNK         0.0481 
     23 CB         19.4851  -22.6529  -45.1643 C.3       2 UNK        -0.1831 
     24 N          18.2372  -24.5664  -44.1945 N.am      2 UNK        -0.4498 
     25 C          17.8600  -25.3577  -45.2128 C.2       1 UNK         0.5027 
     26 O          18.5171  -25.5270  -46.2397 O.2       1 UNK        -0.4969 
     27 C          22.3369  -26.9260  -42.1343 C.2       3 UNK         0.5005 
     28 O          23.0723  -27.8685  -41.8287 O.2       3 UNK        -0.5279 
     29 N          21.9562  -25.9832  -41.2571 N.am      4 UNK        -0.4463 
     30 CA         22.3470  -25.9105  -39.8463 C.3       4 UNK         0.0283 
     31 CB         21.7299  -24.6546  -39.2091 C.3       4 UNK        -0.1875 
     32 C          23.8753  -25.9232  -39.6684 C.2       4 UNK         0.4949 
     33 O          24.5524  -25.0239  -40.1685 O.2       4 UNK        -0.5039 
     34 N          24.3717  -26.9754  -39.0034 N.am      5 UNK        -0.4663 
     35 CA         25.7829  -27.3220  -38.7776 C.3       5 UNK         0.0242 
     36 CB         26.5176  -26.2096  -37.9985 C.3       5 UNK        -0.1982 
     37 C          26.5590  -27.7547  -40.0416 C.2       5 UNK         0.5017 
     38 O          27.7599  -28.0085  -39.9349 O.2       5 UNK        -0.5012 
     39 N          25.8838  -27.8679  -41.1943 N.am      6 UNK        -0.4439 
     40 CA         26.4433  -28.3828  -42.4461 C.3       6 UNK         0.0297 
     41 CB         25.9929  -27.5032  -43.6249 C.3       6 UNK        -0.2006 
     42 C          26.0204  -29.8427  -42.6626 C.2       6 UNK         0.4892 
     43 O          26.8654  -30.6668  -43.0141 O.2       6 UNK        -0.5089 
     44 N          24.7367  -30.1435  -42.4271 N.am      7 UNK        -0.4243 
     45 CA         24.1598  -31.4807  -42.5080 C.3       7 UNK         0.0196 
     46 CB         23.8154  -31.8349  -43.9670 C.3       7 UNK        -0.2007 
     47 C          22.9267  -31.5157  -41.6027 C.2       7 UNK         0.5020 
     48 O          21.8900  -30.9614  -41.9643 O.2       7 UNK        -0.5147 
     49 N          23.0653  -32.1448  -40.4301 N.am      8 UNK        -0.4734 
     50 CA         21.9965  -32.2664  -39.4319 C.3       8 UNK         0.0238 
     51 CB         22.6333  -32.4435  -38.0427 C.3       8 UNK        -0.1912 
     52 C          21.0054  -33.4105  -39.7192 C.2       8 UNK         0.5038 
     53 O          19.9489  -33.4487  -39.0877 O.2       8 UNK        -0.5046 
     54 N          21.3633  -34.3227  -40.6358 N.am      9 UNK        -0.4200 
     55 CA         20.6141  -35.5422  -40.9976 C.3       9 UNK         0.0839 
     56 C          20.5384  -36.6110  -39.8622 C.2       9 UNK         0.5513 
     57 N          21.3960  -36.5617  -38.8495 N.am      9 UNK        -0.7519 
     58 O          19.7140  -37.5208  -39.9110 O.2       9 UNK        -0.4960 
     59 C59        19.2251  -35.2509  -41.6398 C.3       10 UNK        -0.0876 
     60 S60        19.3365  -34.3050  -43.1966 S.3       10 UNK        -0.2414 
     61 C61        18.7482  -32.6696  -42.6604 C.3       10 UNK         0.0169 
     62 H62        12.9427  -23.3703  -45.0135 H         1 UNK         0.0903 
     63 H63        13.6400  -23.7862  -43.4470 H         1 UNK         0.0903 
     64 H64        14.1807  -22.3364  -44.2953 H         1 UNK         0.0903 
     65 H65        15.0990  -25.4718  -43.6052 H         1 UNK         0.3096 
     66 H66        16.2091  -26.4158  -46.0425 H         1 UNK         0.1121 
     67 H67        17.6259  -27.8725  -44.4210 H         1 UNK         0.0849 
     68 H68        16.8346  -27.0627  -43.1180 H         1 UNK         0.0849 
     69 H69        15.0579  -30.4936  -45.5971 H         1 UNK         0.0865 
     70 H70        15.8141  -29.2062  -46.4994 H         1 UNK         0.0865 
     71 H71        16.4453  -31.5420  -43.6130 H         1 UNK         0.1346 
     72 H72        20.6827  -31.6300  -44.2628 H         1 UNK         0.1412 
     73 H73        18.1857  -29.1976  -46.7559 H         1 UNK         0.1426 
     74 H74        20.6173  -29.9625  -47.4260 H         1 UNK         0.0716 
     75 H75        21.6639  -30.4615  -46.1223 H         1 UNK         0.0716 
     76 H76        22.3195  -28.8870  -44.0598 H         1 UNK         0.0695 
     77 H77        20.6371  -28.6365  -43.6605 H         1 UNK         0.0695 
     78 H78        22.6691  -26.4093  -44.1576 H         1 UNK         0.0983 
     79 H79        19.7876  -26.2402  -43.4467 H         1 UNK         0.3095 
     80 H80        19.4219  -23.2774  -43.1223 H         1 UNK         0.0454 
     81 H81        20.3055  -21.9551  -44.9921 H         1 UNK         0.0851 
     82 H82        18.5621  -22.0734  -45.1490 H         1 UNK         0.0851 
     83 H83        19.6104  -23.0570  -46.1692 H         1 UNK         0.0851 
     84 H84        17.6072  -24.4931  -43.4073 H         1 UNK         0.2976 
     85 H85        21.3819  -25.2297  -41.6030 H         1 UNK         0.3116 
     86 H86        21.9235  -26.7850  -39.3478 H         1 UNK         0.0646 
     87 H87        21.9967  -24.5825  -38.1538 H         1 UNK         0.0847 
     88 H88        20.6414  -24.6718  -39.2654 H         1 UNK         0.0847 
     89 H89        22.0782  -23.7420  -39.6947 H         1 UNK         0.0847 
     90 H90        23.7101  -27.6621  -38.6661 H         1 UNK         0.3040 
     91 H91        25.7668  -28.2051  -38.1367 H         1 UNK         0.1015 
     92 H92        27.5073  -26.5418  -37.6826 H         1 UNK         0.0786 
     93 H93        25.9714  -25.9270  -37.0986 H         1 UNK         0.0786 
     94 H94        26.6583  -25.3130  -38.6027 H         1 UNK         0.0786 
     95 H95        24.8856  -27.6766  -41.1941 H         1 UNK         0.3172 
     96 H96        27.5342  -28.3504  -42.4109 H         1 UNK         0.0595 
     97 H97        24.9153  -27.5430  -43.7801 H         1 UNK         0.0839 
     98 H98        26.4636  -27.8309  -44.5527 H         1 UNK         0.0839 
     99 H99        26.2714  -26.4607  -43.4705 H         1 UNK         0.0839 
    100 H100       24.0912  -29.4056  -42.1477 H         1 UNK         0.2998 
    101 H101       24.8847  -32.2097  -42.1388 H         1 UNK         0.0822 
    102 H102       24.7126  -31.8959  -44.5830 H         1 UNK         0.0787 
    103 H103       23.1556  -31.0928  -44.4138 H         1 UNK         0.0787 
    104 H104       23.3123  -32.8008  -44.0275 H         1 UNK         0.0787 
    105 H105       23.9582  -32.5555  -40.1941 H         1 UNK         0.3055 
    106 H106       21.4164  -31.3403  -39.4226 H         1 UNK         0.1106 
    107 H107       23.2325  -33.3527  -37.9832 H         1 UNK         0.0828 
    108 H108       23.2762  -31.5999  -37.7908 H         1 UNK         0.0828 
    109 H109       21.8690  -32.5063  -37.2667 H         1 UNK         0.0828 
    110 H110       22.2522  -34.2033  -41.0974 H         1 UNK         0.2931 
    111 H111       21.2194  -36.0224  -41.7673 H         1 UNK         0.0412 
    112 H112       22.0910  -35.8348  -38.8005 H         1 UNK         0.3472 
    113 H113       21.3464  -37.2632  -38.1270 H         1 UNK         0.3472 
    114 H114       18.7195  -36.1855  -41.8889 H         1 UNK         0.0970 
    115 H115       18.5672  -34.7443  -40.9326 H         1 UNK         0.0970 
    116 H116       19.4577  -32.2422  -41.9519 H         1 UNK         0.0612 
    117 H117       17.8045  -32.7851  -42.1252 H         1 UNK         0.0612 
@<TRIPOS>BOND
     1    1    2 1    
     2    1   62 1    
     3    1   63 1    
     4    1   64 1    
     5    2    3 2    
     6    2    4 am   BACKBONE|DICT|INTERRES
     7    4    5 1    
     8    4   65 1    
     9    5    6 1    
    10    5   25 1    
    11    5   66 1    
    12    6    7 1    
    13    6   67 1    
    14    6   68 1    
    15    7    8 1    
    16    8    9 1    
    17    8   69 1    
    18    8   70 1    
    19    9   10 ar   
    20    9   14 ar   
    21   10   11 ar   
    22   10   71 1    
    23   11   12 ar   
    24   11   61 1    
    25   12   13 ar   
    26   12   72 1    
    27   13   14 ar   
    28   13   15 1    
    29   14   73 1    
    30   15   16 1    
    31   15   74 1    
    32   15   75 1    
    33   16   17 1    
    34   17   18 1    
    35   17   76 1    
    36   17   77 1    
    37   18   19 1    
    38   18   27 1    
    39   18   78 1    
    40   19   20 am   BACKBONE|DICT|INTERRES
    41   19   79 1    
    42   20   21 2    
    43   20   22 1    
    44   22   23 1    
    45   22   24 1    
    46   22   80 1    
    47   23   81 1    
    48   23   82 1    
    49   23   83 1    
    50   24   25 am   BACKBONE|DICT|INTERRES
    51   24   84 1    
    52   25   26 2    
    53   27   28 2    
    54   27   29 am   BACKBONE|DICT|INTERRES
    55   29   30 1    
    56   29   85 1    
    57   30   31 1    
    58   30   32 1    
    59   30   86 1    
    60   31   87 1    
    61   31   88 1    
    62   31   89 1    
    63   32   33 2    
    64   32   34 am   BACKBONE|DICT|INTERRES
    65   34   35 1    
    66   34   90 1    
    67   35   36 1    
    68   35   37 1    
    69   35   91 1    
    70   36   92 1    
    71   36   93 1    
    72   36   94 1    
    73   37   38 2    
    74   37   39 am   BACKBONE|DICT|INTERRES
    75   39   40 1    
    76   39   95 1    
    77   40   41 1    
    78   40   42 1    
    79   40   96 1    
    80   41   97 1    
    81   41   98 1    
    82   41   99 1    
    83   42   43 2    
    84   42   44 am   BACKBONE|DICT|INTERRES
    85   44   45 1    
    86   44  100 1    
    87   45   46 1    
    88   45   47 1    
    89   45  101 1    
    90   46  102 1    
    91   46  103 1    
    92   46  104 1    
    93   47   48 2    
    94   47   49 am   BACKBONE|DICT|INTERRES
    95   49   50 1    
    96   49  105 1    
    97   50   51 1    
    98   50   52 1    
    99   50  106 1    
   100   51  107 1    
   101   51  108 1    
   102   51  109 1    
   103   52   53 2    
   104   52   54 am   BACKBONE|DICT|INTERRES
   105   54   55 1    
   106   54  110 1    
   107   55   56 1    
   108   55   59 1    
   109   55  111 1    
   110   56   57 am   BACKBONE|DICT|INTERRES
   111   56   58 2    
   112   57  112 1    
   113   57  113 1    
   114   59   60 1    
   115   59  114 1    
   116   59  115 1    
   117   60   61 1    
   118   61  116 1    
   119   61  117 1    
@<TRIPOS>SUBSTRUCTURE
     1 UNK         1 GROUP             0       ****    0 ROOT    
