@<TRIPOS>MOLECULE
3R8
117   119    1
SMALL
USER_CHARGES


@<TRIPOS>ATOM
      1 CA         14.2153  -23.0252  -46.4596 C.3       0 UNK        -0.2013 
      2 C          14.6202  -23.9932  -45.3581 C.2       0 UNK         0.4866 
      3 O          14.2873  -23.7656  -44.1951 O.2       0 UNK        -0.5176 
      4 N          15.3443  -25.0628  -45.7188 N.am      1 UNK        -0.4884 
      5 CA         15.8151  -26.1432  -44.8336 C.3       1 UNK         0.0853 
      6 C6         14.6599  -26.9940  -44.2307 C.3       10 UNK        -0.0849 
      7 S7         13.7984  -27.9364  -45.5407 S.3       10 UNK        -0.2776 
      8 C8         14.3941  -29.6458  -45.2802 C.3       10 UNK         0.0316 
      9 C9         15.9053  -29.7248  -45.0970 C.ar      10 UNK        -0.0863 
     10 C10        16.4395  -30.0742  -43.8526 C.ar      10 UNK        -0.1009 
     11 C11        17.8217  -30.0847  -43.6500 C.ar      10 UNK        -0.0712 
     12 C12        18.6710  -29.7478  -44.7064 C.ar      10 UNK        -0.0894 
     13 C13        18.1528  -29.3992  -45.9560 C.ar      10 UNK        -0.0745 
     14 C14        16.7679  -29.4114  -46.1525 C.ar      10 UNK        -0.0972 
     15 C15        19.0820  -28.9774  -47.0840 C.3       10 UNK         0.0209 
     16 S16        19.1175  -27.1625  -47.2342 S.3       10 UNK        -0.2568 
     17 C17        20.8536  -26.7298  -46.8342 C.3       10 UNK        -0.0983 
     18 CA         21.1338  -26.3833  -45.3392 C.3       3 UNK         0.0876 
     19 N          20.0337  -25.5958  -44.7684 N.am      3 UNK        -0.4424 
     20 C          20.0316  -24.8144  -43.6813 C.2       2 UNK         0.4918 
     21 O          21.0082  -24.6731  -42.9456 O.2       2 UNK        -0.4875 
     22 CA         18.7209  -24.0726  -43.3532 C.3       2 UNK         0.0481 
     23 CB         18.8735  -22.5692  -43.6340 C.3       2 UNK        -0.1831 
     24 N          17.5748  -24.5847  -44.1122 N.am      2 UNK        -0.4498 
     25 C          16.8636  -25.6776  -43.7951 C.2       1 UNK         0.5027 
     26 O          17.0490  -26.3264  -42.7645 O.2       1 UNK        -0.4969 
     27 C          21.5664  -27.6045  -44.4858 C.2       3 UNK         0.5005 
     28 O          21.9454  -28.6380  -45.0387 O.2       3 UNK        -0.5279 
     29 N          21.5308  -27.4732  -43.1523 N.am      4 UNK        -0.4463 
     30 CA         21.9064  -28.5047  -42.1783 C.3       4 UNK         0.0283 
     31 CB         21.4024  -28.0882  -40.7870 C.3       4 UNK        -0.1875 
     32 C          23.4158  -28.8047  -42.1264 C.2       4 UNK         0.4949 
     33 O          23.7930  -29.8418  -41.5790 O.2       4 UNK        -0.5039 
     34 N          24.2412  -27.9016  -42.6795 N.am      5 UNK        -0.4663 
     35 CA         25.7046  -27.9709  -42.7740 C.3       5 UNK         0.0242 
     36 CB         26.1200  -29.0937  -43.7532 C.3       5 UNK        -0.1982 
     37 C          26.3710  -28.0714  -41.3869 C.2       5 UNK         0.5017 
     38 O          25.8786  -27.4669  -40.4308 O.2       5 UNK        -0.5012 
     39 N          27.4608  -28.8421  -41.2805 N.am      6 UNK        -0.4439 
     40 CA         28.1630  -29.1497  -40.0314 C.3       6 UNK         0.0297 
     41 CB         29.6275  -29.5013  -40.3560 C.3       6 UNK        -0.2006 
     42 C          27.4415  -30.2637  -39.2445 C.2       6 UNK         0.4892 
     43 O          28.0479  -31.2925  -38.9411 O.2       6 UNK        -0.5089 
     44 N          26.1512  -30.0362  -38.9554 N.am      7 UNK        -0.4243 
     45 CA         25.2046  -30.9410  -38.2934 C.3       7 UNK         0.0196 
     46 CB         25.5760  -31.1269  -36.8066 C.3       7 UNK        -0.2007 
     47 C          25.0346  -32.2749  -39.0472 C.2       7 UNK         0.5020 
     48 O          25.1283  -33.3457  -38.4441 O.2       7 UNK        -0.5147 
     49 N          24.7925  -32.1863  -40.3629 N.am      8 UNK        -0.4734 
     50 CA         24.4883  -33.3355  -41.2202 C.3       8 UNK         0.0238 
     51 CB         24.6859  -32.9516  -42.6958 C.3       8 UNK        -0.1912 
     52 C          23.0646  -33.8599  -40.9737 C.2       8 UNK         0.5038 
     53 O          22.8576  -35.0742  -40.9732 O.2       8 UNK        -0.5046 
     54 N          22.1249  -32.9357  -40.7379 N.am      9 UNK        -0.4200 
     55 CA         20.7760  -33.2280  -40.2392 C.3       9 UNK         0.0839 
     56 C          20.8141  -33.5390  -38.7202 C.2       9 UNK         0.5513 
     57 N          20.1024  -34.5654  -38.2761 N.am      9 UNK        -0.7519 
     58 O          21.4458  -32.8292  -37.9401 O.2       9 UNK        -0.4960 
     59 C59        19.7947  -32.0665  -40.5328 C.3       10 UNK        -0.0876 
     60 S60        19.4722  -31.8740  -42.3147 S.3       10 UNK        -0.2414 
     61 C61        18.3945  -30.4097  -42.2787 C.3       10 UNK         0.0169 
     62 H62        13.1294  -22.9501  -46.5111 H         1 UNK         0.0903 
     63 H63        14.6159  -22.0329  -46.2535 H         1 UNK         0.0903 
     64 H64        14.5792  -23.3417  -47.4370 H         1 UNK         0.0903 
     65 H65        15.5726  -25.1870  -46.6962 H         1 UNK         0.3096 
     66 H66        16.3922  -26.8040  -45.4802 H         1 UNK         0.1121 
     67 H67        13.9365  -26.3603  -43.7166 H         1 UNK         0.0849 
     68 H68        15.0207  -27.6910  -43.4739 H         1 UNK         0.0849 
     69 H69        13.8788  -30.0672  -44.4156 H         1 UNK         0.0865 
     70 H70        14.1020  -30.2581  -46.1345 H         1 UNK         0.0865 
     71 H71        15.7770  -30.3122  -43.0314 H         1 UNK         0.1346 
     72 H72        19.7381  -29.7562  -44.5459 H         1 UNK         0.1412 
     73 H73        16.3589  -29.1291  -47.1134 H         1 UNK         0.1426 
     74 H74        18.7333  -29.4042  -48.0254 H         1 UNK         0.0716 
     75 H75        20.0864  -29.3716  -46.9246 H         1 UNK         0.0716 
     76 H76        21.0767  -25.8429  -47.4293 H         1 UNK         0.0695 
     77 H77        21.5302  -27.4910  -47.2263 H         1 UNK         0.0695 
     78 H78        22.0119  -25.7338  -45.3319 H         1 UNK         0.0983 
     79 H79        19.1715  -25.6691  -45.2879 H         1 UNK         0.3095 
     80 H80        18.5271  -24.2009  -42.2862 H         1 UNK         0.0454 
     81 H81        17.9721  -22.0210  -43.3594 H         1 UNK         0.0851 
     82 H82        19.0801  -22.3714  -44.6865 H         1 UNK         0.0851 
     83 H83        19.6959  -22.1454  -43.0559 H         1 UNK         0.0851 
     84 H84        17.3364  -24.0982  -44.9650 H         1 UNK         0.2976 
     85 H85        21.2660  -26.5639  -42.7843 H         1 UNK         0.3116 
     86 H86        21.4065  -29.4323  -42.4627 H         1 UNK         0.0646 
     87 H87        20.3262  -27.9169  -40.7840 H         1 UNK         0.0847 
     88 H88        21.8869  -27.1739  -40.4418 H         1 UNK         0.0847 
     89 H89        21.6091  -28.8638  -40.0482 H         1 UNK         0.0847 
     90 H90        23.8194  -27.0625  -43.0500 H         1 UNK         0.3040 
     91 H91        26.0320  -27.0197  -43.1968 H         1 UNK         0.1015 
     92 H92        27.1828  -29.0454  -43.9929 H         1 UNK         0.0786 
     93 H93        25.5821  -29.0060  -44.6976 H         1 UNK         0.0786 
     94 H94        25.9106  -30.0852  -43.3500 H         1 UNK         0.0786 
     95 H95        27.7780  -29.3309  -42.1054 H         1 UNK         0.3172 
     96 H96        28.1707  -28.2600  -39.3980 H         1 UNK         0.0595 
     97 H97        29.7018  -30.3916  -40.9818 H         1 UNK         0.0839 
     98 H98        30.1935  -29.6959  -39.4439 H         1 UNK         0.0839 
     99 H99        30.1270  -28.6829  -40.8748 H         1 UNK         0.0839 
    100 H100       25.7631  -29.1592  -39.2892 H         1 UNK         0.2998 
    101 H101       24.2317  -30.4480  -38.3298 H         1 UNK         0.0822 
    102 H102       25.6508  -30.1682  -36.2935 H         1 UNK         0.0787 
    103 H103       24.8176  -31.7138  -36.2868 H         1 UNK         0.0787 
    104 H104       26.5273  -31.6467  -36.6876 H         1 UNK         0.0787 
    105 H105       24.6721  -31.2646  -40.7803 H         1 UNK         0.3055 
    106 H106       25.1858  -34.1415  -40.9806 H         1 UNK         0.1106 
    107 H107       24.0122  -32.1506  -43.0027 H         1 UNK         0.0828 
    108 H108       24.4945  -33.8048  -43.3480 H         1 UNK         0.0828 
    109 H109       25.7075  -32.6223  -42.8854 H         1 UNK         0.0828 
    110 H110       22.4004  -31.9647  -40.7465 H         1 UNK         0.2931 
    111 H111       20.4074  -34.1154  -40.7590 H         1 UNK         0.0412 
    112 H112       20.1019  -34.7717  -37.2890 H         1 UNK         0.3472 
    113 H113       19.5740  -35.1463  -38.9091 H         1 UNK         0.3472 
    114 H114       18.8352  -32.2459  -40.0431 H         1 UNK         0.0970 
    115 H115       20.1744  -31.1259  -40.1291 H         1 UNK         0.0970 
    116 H116       17.5922  -30.5778  -41.5585 H         1 UNK         0.0612 
    117 H117       18.9598  -29.5507  -41.9181 H         1 UNK         0.0612 
@<TRIPOS>BOND
     1    1    2 1    
     2    1   62 1    
     3    1   63 1    
     4    1   64 1    
     5    2    3 2    
     6    2    4 am   BACKBONE|DICT|INTERRES
     7    4    5 1    
     8    4   65 1    
     9    5    6 1    
    10    5   25 1    
    11    5   66 1    
    12    6    7 1    
    13    6   67 1    
    14    6   68 1    
    15    7    8 1    
    16    8    9 1    
    17    8   69 1    
    18    8   70 1    
    19    9   10 ar   
    20    9   14 ar   
    21   10   11 ar   
    22   10   71 1    
    23   11   12 ar   
    24   11   61 1    
    25   12   13 ar   
    26   12   72 1    
    27   13   14 ar   
    28   13   15 1    
    29   14   73 1    
    30   15   16 1    
    31   15   74 1    
    32   15   75 1    
    33   16   17 1    
    34   17   18 1    
    35   17   76 1    
    36   17   77 1    
    37   18   19 1    
    38   18   27 1    
    39   18   78 1    
    40   19   20 am   BACKBONE|DICT|INTERRES
    41   19   79 1    
    42   20   21 2    
    43   20   22 1    
    44   22   23 1    
    45   22   24 1    
    46   22   80 1    
    47   23   81 1    
    48   23   82 1    
    49   23   83 1    
    50   24   25 am   BACKBONE|DICT|INTERRES
    51   24   84 1    
    52   25   26 2    
    53   27   28 2    
    54   27   29 am   BACKBONE|DICT|INTERRES
    55   29   30 1    
    56   29   85 1    
    57   30   31 1    
    58   30   32 1    
    59   30   86 1    
    60   31   87 1    
    61   31   88 1    
    62   31   89 1    
    63   32   33 2    
    64   32   34 am   BACKBONE|DICT|INTERRES
    65   34   35 1    
    66   34   90 1    
    67   35   36 1    
    68   35   37 1    
    69   35   91 1    
    70   36   92 1    
    71   36   93 1    
    72   36   94 1    
    73   37   38 2    
    74   37   39 am   BACKBONE|DICT|INTERRES
    75   39   40 1    
    76   39   95 1    
    77   40   41 1    
    78   40   42 1    
    79   40   96 1    
    80   41   97 1    
    81   41   98 1    
    82   41   99 1    
    83   42   43 2    
    84   42   44 am   BACKBONE|DICT|INTERRES
    85   44   45 1    
    86   44  100 1    
    87   45   46 1    
    88   45   47 1    
    89   45  101 1    
    90   46  102 1    
    91   46  103 1    
    92   46  104 1    
    93   47   48 2    
    94   47   49 am   BACKBONE|DICT|INTERRES
    95   49   50 1    
    96   49  105 1    
    97   50   51 1    
    98   50   52 1    
    99   50  106 1    
   100   51  107 1    
   101   51  108 1    
   102   51  109 1    
   103   52   53 2    
   104   52   54 am   BACKBONE|DICT|INTERRES
   105   54   55 1    
   106   54  110 1    
   107   55   56 1    
   108   55   59 1    
   109   55  111 1    
   110   56   57 am   BACKBONE|DICT|INTERRES
   111   56   58 2    
   112   57  112 1    
   113   57  113 1    
   114   59   60 1    
   115   59  114 1    
   116   59  115 1    
   117   60   61 1    
   118   61  116 1    
   119   61  117 1    
@<TRIPOS>SUBSTRUCTURE
     1 UNK         1 GROUP             0       ****    0 ROOT    
