@<TRIPOS>MOLECULE
3R8
117   119    1
SMALL
USER_CHARGES


@<TRIPOS>ATOM
      1 CA         16.9670  -22.1426  -42.8307 C.3       0 UNK        -0.2013 
      2 C          17.1398  -22.8859  -44.1461 C.2       0 UNK         0.4866 
      3 O          17.5649  -22.2927  -45.1374 O.2       0 UNK        -0.5176 
      4 N          16.8319  -24.1880  -44.1621 N.am      1 UNK        -0.4884 
      5 CA         16.8990  -25.1103  -45.3066 C.3       1 UNK         0.0853 
      6 C6         15.9296  -26.3195  -45.1244 C.3       10 UNK        -0.0849 
      7 S7         15.8734  -27.0205  -43.4323 S.3       10 UNK        -0.2776 
      8 C8         15.7103  -28.8092  -43.7281 C.3       10 UNK         0.0316 
      9 C9         17.0546  -29.5172  -43.6565 C.ar      10 UNK        -0.0863 
     10 C10        17.5883  -29.8837  -42.4153 C.ar      10 UNK        -0.1009 
     11 C11        18.8211  -30.5392  -42.3401 C.ar      10 UNK        -0.0712 
     12 C12        19.5087  -30.8432  -43.5157 C.ar      10 UNK        -0.0894 
     13 C13        18.9809  -30.4966  -44.7603 C.ar      10 UNK        -0.0745 
     14 C14        17.7557  -29.8261  -44.8260 C.ar      10 UNK        -0.0972 
     15 C15        19.7249  -30.8656  -46.0327 C.3       10 UNK         0.0209 
     16 S16        20.6033  -29.4442  -46.7434 S.3       10 UNK        -0.2568 
     17 C17        22.0135  -29.2118  -45.5976 C.3       10 UNK        -0.0983 
     18 CA         22.0184  -27.8801  -44.7838 C.3       3 UNK         0.0876 
     19 N          21.3560  -26.7870  -45.5047 N.am      3 UNK        -0.4424 
     20 C          21.5624  -25.4755  -45.3580 C.2       2 UNK         0.4918 
     21 O          22.3956  -24.9956  -44.5902 O.2       2 UNK        -0.4875 
     22 CA         20.6588  -24.5467  -46.1873 C.3       2 UNK         0.0481 
     23 CB         20.7627  -24.8468  -47.6967 C.3       2 UNK        -0.1831 
     24 N          19.2554  -24.5182  -45.7464 N.am      2 UNK        -0.4498 
     25 C          18.3425  -25.5028  -45.7185 C.2       1 UNK         0.5027 
     26 O          18.5966  -26.6655  -46.0296 O.2       1 UNK        -0.4969 
     27 C          21.5167  -28.0387  -43.3272 C.2       3 UNK         0.5005 
     28 O          22.0391  -28.8851  -42.5953 O.2       3 UNK        -0.5279 
     29 N          20.5580  -27.1876  -42.9261 N.am      4 UNK        -0.4463 
     30 CA         19.9380  -27.0556  -41.6047 C.3       4 UNK         0.0283 
     31 CB         19.0096  -25.8323  -41.6186 C.3       4 UNK        -0.1875 
     32 C          20.9158  -26.9372  -40.4270 C.2       4 UNK         0.4949 
     33 O          20.5928  -27.4001  -39.3335 O.2       4 UNK        -0.5039 
     34 N          22.1033  -26.3623  -40.6625 N.am      5 UNK        -0.4663 
     35 CA         23.1994  -26.2142  -39.6961 C.3       5 UNK         0.0242 
     36 CB         24.1473  -25.1085  -40.1977 C.3       5 UNK        -0.1982 
     37 C          23.9415  -27.5385  -39.3981 C.2       5 UNK         0.5017 
     38 O          25.1690  -27.5434  -39.2928 O.2       5 UNK        -0.5012 
     39 N          23.1794  -28.6350  -39.2783 N.am      6 UNK        -0.4439 
     40 CA         23.5939  -30.0163  -39.0181 C.3       6 UNK         0.0297 
     41 CB         24.0928  -30.1638  -37.5658 C.3       6 UNK        -0.2006 
     42 C          24.5899  -30.5803  -40.0507 C.2       6 UNK         0.4892 
     43 O          25.4273  -31.4093  -39.6907 O.2       6 UNK        -0.5089 
     44 N          24.4828  -30.1449  -41.3161 N.am      7 UNK        -0.4243 
     45 CA         25.3715  -30.5884  -42.3949 C.3       7 UNK         0.0196 
     46 CB         25.2734  -29.6302  -43.5902 C.3       7 UNK        -0.2007 
     47 C          25.0820  -32.0368  -42.8170 C.2       7 UNK         0.5020 
     48 O          26.0218  -32.8080  -43.0116 O.2       7 UNK        -0.5147 
     49 N          23.7908  -32.3821  -42.9146 N.am      8 UNK        -0.4734 
     50 CA         23.3211  -33.7530  -43.1465 C.3       8 UNK         0.0238 
     51 CB         22.3151  -33.7661  -44.3097 C.3       8 UNK        -0.1912 
     52 C          22.6902  -34.3672  -41.8853 C.2       8 UNK         0.5038 
     53 O          22.6944  -35.5920  -41.7578 O.2       8 UNK        -0.5046 
     54 N          22.1574  -33.5256  -40.9868 N.am      9 UNK        -0.4200 
     55 CA         21.4828  -33.9482  -39.7458 C.3       9 UNK         0.0839 
     56 C          22.4471  -34.2806  -38.5707 C.2       9 UNK         0.5513 
     57 N          23.7427  -34.0087  -38.6672 N.am      9 UNK        -0.7519 
     58 O          22.0087  -34.8057  -37.5507 O.2       9 UNK        -0.4960 
     59 C59        20.3813  -32.9469  -39.3002 C.3       10 UNK        -0.0876 
     60 S60        19.1314  -32.6518  -40.5979 S.3       10 UNK        -0.2414 
     61 C61        19.4357  -30.9046  -40.9987 C.3       10 UNK         0.0169 
     62 H62        17.9194  -21.7215  -42.5098 H         1 UNK         0.0903 
     63 H63        16.2566  -21.3254  -42.9526 H         1 UNK         0.0903 
     64 H64        16.6009  -22.7954  -42.0384 H         1 UNK         0.0903 
     65 H65        16.4954  -24.6231  -43.3134 H         1 UNK         0.3096 
     66 H66        16.5273  -24.5580  -46.1730 H         1 UNK         0.1121 
     67 H67        16.1263  -27.1076  -45.8534 H         1 UNK         0.0849 
     68 H68        14.9156  -25.9845  -45.3479 H         1 UNK         0.0849 
     69 H69        15.0450  -29.2263  -42.9706 H         1 UNK         0.0865 
     70 H70        15.2214  -28.9940  -44.6858 H         1 UNK         0.0865 
     71 H71        17.0503  -29.6452  -41.5080 H         1 UNK         0.1346 
     72 H72        20.4646  -31.3393  -43.4544 H         1 UNK         0.1412 
     73 H73        17.3518  -29.5440  -45.7888 H         1 UNK         0.1426 
     74 H74        19.0119  -31.2385  -46.7694 H         1 UNK         0.0716 
     75 H75        20.4291  -31.6797  -45.8551 H         1 UNK         0.0716 
     76 H76        22.1086  -30.0867  -44.9526 H         1 UNK         0.0695 
     77 H77        22.9071  -29.2321  -46.2231 H         1 UNK         0.0695 
     78 H78        23.0644  -27.5871  -44.6708 H         1 UNK         0.0983 
     79 H79        20.5725  -27.0747  -46.0849 H         1 UNK         0.3095 
     80 H80        21.0343  -23.5335  -46.0360 H         1 UNK         0.0454 
     81 H81        20.2319  -24.0971  -48.2833 H         1 UNK         0.0851 
     82 H82        21.8026  -24.8359  -48.0259 H         1 UNK         0.0851 
     83 H83        20.3509  -25.8223  -47.9571 H         1 UNK         0.0851 
     84 H84        18.9071  -23.5994  -45.4828 H         1 UNK         0.2976 
     85 H85        20.2032  -26.5656  -43.6366 H         1 UNK         0.3116 
     86 H86        19.3327  -27.9450  -41.4384 H         1 UNK         0.0646 
     87 H87        18.4603  -25.7460  -40.6800 H         1 UNK         0.0847 
     88 H88        18.2751  -25.9064  -42.4162 H         1 UNK         0.0847 
     89 H89        19.5634  -24.9034  -41.7617 H         1 UNK         0.0847 
     90 H90        22.2890  -26.0427  -41.6026 H         1 UNK         0.3040 
     91 H91        22.7726  -25.8804  -38.7476 H         1 UNK         0.1015 
     92 H92        23.6139  -24.1720  -40.3622 H         1 UNK         0.0786 
     93 H93        24.6317  -25.3887  -41.1340 H         1 UNK         0.0786 
     94 H94        24.9342  -24.9039  -39.4704 H         1 UNK         0.0786 
     95 H95        22.1778  -28.4814  -39.3593 H         1 UNK         0.3172 
     96 H96        22.6928  -30.6203  -39.1172 H         1 UNK         0.0595 
     97 H97        25.0270  -29.6248  -37.4047 H         1 UNK         0.0839 
     98 H98        24.2729  -31.2104  -37.3163 H         1 UNK         0.0839 
     99 H99        23.3597  -29.7861  -36.8532 H         1 UNK         0.0839 
    100 H100       23.7402  -29.4966  -41.5599 H         1 UNK         0.2998 
    101 H101       26.3981  -30.5498  -42.0229 H         1 UNK         0.0822 
    102 H102       25.9962  -29.8974  -44.3622 H         1 UNK         0.0787 
    103 H103       24.2870  -29.6621  -44.0460 H         1 UNK         0.0787 
    104 H104       25.4773  -28.6008  -43.2944 H         1 UNK         0.0787 
    105 H105       23.0962  -31.6621  -42.7793 H         1 UNK         0.3055 
    106 H106       24.1586  -34.3958  -43.4279 H         1 UNK         0.1106 
    107 H107       22.7215  -33.2787  -45.1961 H         1 UNK         0.0828 
    108 H108       22.0663  -34.7905  -44.5901 H         1 UNK         0.0828 
    109 H109       21.3803  -33.2733  -44.0490 H         1 UNK         0.0828 
    110 H110       22.2005  -32.5353  -41.1553 H         1 UNK         0.2931 
    111 H111       20.9690  -34.8869  -39.9637 H         1 UNK         0.0412 
    112 H112       24.3492  -34.2382  -37.8957 H         1 UNK         0.3472 
    113 H113       24.1253  -33.5643  -39.4870 H         1 UNK         0.3472 
    114 H114       19.8516  -33.3357  -38.4282 H         1 UNK         0.0970 
    115 H115       20.8190  -32.0014  -38.9794 H         1 UNK         0.0970 
    116 H116       20.5092  -30.7116  -41.0316 H         1 UNK         0.0612 
    117 H117       19.0329  -30.2747  -40.2040 H         1 UNK         0.0612 
@<TRIPOS>BOND
     1    1    2 1    
     2    1   62 1    
     3    1   63 1    
     4    1   64 1    
     5    2    3 2    
     6    2    4 am   BACKBONE|DICT|INTERRES
     7    4    5 1    
     8    4   65 1    
     9    5    6 1    
    10    5   25 1    
    11    5   66 1    
    12    6    7 1    
    13    6   67 1    
    14    6   68 1    
    15    7    8 1    
    16    8    9 1    
    17    8   69 1    
    18    8   70 1    
    19    9   10 ar   
    20    9   14 ar   
    21   10   11 ar   
    22   10   71 1    
    23   11   12 ar   
    24   11   61 1    
    25   12   13 ar   
    26   12   72 1    
    27   13   14 ar   
    28   13   15 1    
    29   14   73 1    
    30   15   16 1    
    31   15   74 1    
    32   15   75 1    
    33   16   17 1    
    34   17   18 1    
    35   17   76 1    
    36   17   77 1    
    37   18   19 1    
    38   18   27 1    
    39   18   78 1    
    40   19   20 am   BACKBONE|DICT|INTERRES
    41   19   79 1    
    42   20   21 2    
    43   20   22 1    
    44   22   23 1    
    45   22   24 1    
    46   22   80 1    
    47   23   81 1    
    48   23   82 1    
    49   23   83 1    
    50   24   25 am   BACKBONE|DICT|INTERRES
    51   24   84 1    
    52   25   26 2    
    53   27   28 2    
    54   27   29 am   BACKBONE|DICT|INTERRES
    55   29   30 1    
    56   29   85 1    
    57   30   31 1    
    58   30   32 1    
    59   30   86 1    
    60   31   87 1    
    61   31   88 1    
    62   31   89 1    
    63   32   33 2    
    64   32   34 am   BACKBONE|DICT|INTERRES
    65   34   35 1    
    66   34   90 1    
    67   35   36 1    
    68   35   37 1    
    69   35   91 1    
    70   36   92 1    
    71   36   93 1    
    72   36   94 1    
    73   37   38 2    
    74   37   39 am   BACKBONE|DICT|INTERRES
    75   39   40 1    
    76   39   95 1    
    77   40   41 1    
    78   40   42 1    
    79   40   96 1    
    80   41   97 1    
    81   41   98 1    
    82   41   99 1    
    83   42   43 2    
    84   42   44 am   BACKBONE|DICT|INTERRES
    85   44   45 1    
    86   44  100 1    
    87   45   46 1    
    88   45   47 1    
    89   45  101 1    
    90   46  102 1    
    91   46  103 1    
    92   46  104 1    
    93   47   48 2    
    94   47   49 am   BACKBONE|DICT|INTERRES
    95   49   50 1    
    96   49  105 1    
    97   50   51 1    
    98   50   52 1    
    99   50  106 1    
   100   51  107 1    
   101   51  108 1    
   102   51  109 1    
   103   52   53 2    
   104   52   54 am   BACKBONE|DICT|INTERRES
   105   54   55 1    
   106   54  110 1    
   107   55   56 1    
   108   55   59 1    
   109   55  111 1    
   110   56   57 am   BACKBONE|DICT|INTERRES
   111   56   58 2    
   112   57  112 1    
   113   57  113 1    
   114   59   60 1    
   115   59  114 1    
   116   59  115 1    
   117   60   61 1    
   118   61  116 1    
   119   61  117 1    
@<TRIPOS>SUBSTRUCTURE
     1 UNK         1 GROUP             0       ****    0 ROOT    
