@<TRIPOS>MOLECULE
3R8
117   119    1
SMALL
USER_CHARGES


@<TRIPOS>ATOM
      1 CA         18.1236  -30.5133  -49.5027 C.3       0 UNK        -0.2013 
      2 C          18.3356  -30.0839  -48.0586 C.2       0 UNK         0.4866 
      3 O          19.0576  -30.7546  -47.3207 O.2       0 UNK        -0.5176 
      4 N          17.7038  -28.9777  -47.6482 N.am      1 UNK        -0.4884 
      5 CA         17.8305  -28.3920  -46.3101 C.3       1 UNK         0.0853 
      6 C6         16.7091  -27.3610  -46.0310 C.3       10 UNK        -0.0849 
      7 S7         15.0097  -28.0392  -46.0767 S.3       10 UNK        -0.2776 
      8 C8         15.0151  -29.4010  -44.8512 C.3       10 UNK         0.0316 
      9 C9         15.8193  -29.1024  -43.5898 C.ar      10 UNK        -0.0863 
     10 C10        16.7832  -30.0128  -43.1491 C.ar      10 UNK        -0.1009 
     11 C11        17.5890  -29.7208  -42.0452 C.ar      10 UNK        -0.0712 
     12 C12        17.4167  -28.5112  -41.3668 C.ar      10 UNK        -0.0894 
     13 C13        16.4443  -27.5994  -41.7889 C.ar      10 UNK        -0.0745 
     14 C14        15.6312  -27.9129  -42.8815 C.ar      10 UNK        -0.0972 
     15 C15        16.2862  -26.2523  -41.1057 C.3       10 UNK         0.0209 
     16 S16        17.0302  -24.9448  -42.1312 S.3       10 UNK        -0.2568 
     17 C17        18.5109  -24.4943  -41.1707 C.3       10 UNK        -0.0983 
     18 CA         19.6784  -25.5128  -41.2450 C.3       3 UNK         0.0876 
     19 N          19.9957  -25.9208  -42.6240 N.am      3 UNK        -0.4424 
     20 C          20.9585  -26.7788  -42.9937 C.2       2 UNK         0.4918 
     21 O          21.7823  -27.2616  -42.2153 O.2       2 UNK        -0.4875 
     22 CA         20.9933  -27.1658  -44.4787 C.3       2 UNK         0.0481 
     23 CB         22.1373  -28.1433  -44.8177 C.3       2 UNK        -0.1831 
     24 N          19.7069  -27.7436  -44.8674 N.am      2 UNK        -0.4498 
     25 C          19.2108  -27.7320  -46.1114 C.2       1 UNK         0.5027 
     26 O          19.7752  -27.1954  -47.0692 O.2       1 UNK        -0.4969 
     27 C          20.8770  -24.9562  -40.4487 C.2       3 UNK         0.5005 
     28 O          20.9758  -25.2105  -39.2476 O.2       3 UNK        -0.5279 
     29 N          21.7566  -24.2055  -41.1276 N.am      4 UNK        -0.4463 
     30 CA         22.9531  -23.5948  -40.5423 C.3       4 UNK         0.0283 
     31 CB         23.5094  -22.5399  -41.5123 C.3       4 UNK        -0.1875 
     32 C          24.0473  -24.6131  -40.1756 C.2       4 UNK         0.4949 
     33 O          24.8325  -24.3443  -39.2661 O.2       4 UNK        -0.5039 
     34 N          24.0900  -25.7458  -40.8890 N.am      5 UNK        -0.4663 
     35 CA         25.0491  -26.8266  -40.6633 C.3       5 UNK         0.0242 
     36 CB         25.4859  -27.4077  -42.0169 C.3       5 UNK        -0.1982 
     37 C          24.4565  -27.9256  -39.7727 C.2       5 UNK         0.5017 
     38 O          25.1539  -28.4190  -38.8858 O.2       5 UNK        -0.5012 
     39 N          23.1966  -28.3037  -40.0404 N.am      6 UNK        -0.4439 
     40 CA         22.3825  -29.3509  -39.4073 C.3       6 UNK         0.0297 
     41 CB         22.1402  -29.0596  -37.9147 C.3       6 UNK        -0.2006 
     42 C          22.9087  -30.7812  -39.6268 C.2       6 UNK         0.4892 
     43 O          22.1480  -31.6416  -40.0669 O.2       6 UNK        -0.5089 
     44 N          24.1997  -31.0107  -39.3552 N.am      7 UNK        -0.4243 
     45 CA         24.9022  -32.2804  -39.5675 C.3       7 UNK         0.0196 
     46 CB         26.2960  -32.1997  -38.9256 C.3       7 UNK        -0.2007 
     47 C          25.0149  -32.6710  -41.0516 C.2       7 UNK         0.5020 
     48 O          25.0529  -33.8613  -41.3645 O.2       7 UNK        -0.5147 
     49 N          25.0255  -31.6679  -41.9423 N.am      8 UNK        -0.4734 
     50 CA         25.0422  -31.8306  -43.4006 C.3       8 UNK         0.0238 
     51 CB         25.2678  -30.4615  -44.0604 C.3       8 UNK        -0.1912 
     52 C          23.7772  -32.4987  -43.9720 C.2       8 UNK         0.5038 
     53 O          23.8288  -33.0089  -45.0918 O.2       8 UNK        -0.5046 
     54 N          22.6816  -32.5014  -43.2005 N.am      9 UNK        -0.4200 
     55 CA         21.4453  -33.2326  -43.5078 C.3       9 UNK         0.0839 
     56 C          21.5750  -34.7802  -43.3818 C.2       9 UNK         0.5513 
     57 N          22.6291  -35.3214  -42.7792 N.am      9 UNK        -0.7519 
     58 O          20.6987  -35.5052  -43.8453 O.2       9 UNK        -0.4960 
     59 C59        20.2514  -32.7212  -42.6633 C.3       10 UNK        -0.0876 
     60 S60        19.9342  -30.9356  -42.8562 S.3       10 UNK        -0.2414 
     61 C61        18.6396  -30.7218  -41.5950 C.3       10 UNK         0.0169 
     62 H62        17.6969  -31.5153  -49.5374 H         1 UNK         0.0903 
     63 H63        17.4512  -29.8401  -50.0344 H         1 UNK         0.0903 
     64 H64        19.0757  -30.5295  -50.0324 H         1 UNK         0.0903 
     65 H65        17.1309  -28.4587  -48.2982 H         1 UNK         0.3096 
     66 H66        17.7588  -29.2081  -45.5912 H         1 UNK         0.1121 
     67 H67        16.8574  -26.8798  -45.0629 H         1 UNK         0.0849 
     68 H68        16.7573  -26.5511  -46.7617 H         1 UNK         0.0849 
     69 H69        13.9857  -29.6259  -44.5693 H         1 UNK         0.0865 
     70 H70        15.3967  -30.2965  -45.3444 H         1 UNK         0.0865 
     71 H71        16.9309  -30.9439  -43.6801 H         1 UNK         0.1346 
     72 H72        18.0409  -28.2814  -40.5151 H         1 UNK         0.1412 
     73 H73        14.8890  -27.2010  -43.2173 H         1 UNK         0.1426 
     74 H74        16.7290  -26.2638  -40.1087 H         1 UNK         0.0716 
     75 H75        15.2260  -26.0351  -40.9677 H         1 UNK         0.0716 
     76 H76        18.8372  -23.5205  -41.5417 H         1 UNK         0.0695 
     77 H77        18.2102  -24.3309  -40.1337 H         1 UNK         0.0695 
     78 H78        19.3686  -26.4190  -40.7243 H         1 UNK         0.0983 
     79 H79        19.3589  -25.5797  -43.3300 H         1 UNK         0.3095 
     80 H80        21.1557  -26.2408  -45.0358 H         1 UNK         0.0454 
     81 H81        22.0335  -29.0851  -44.2775 H         1 UNK         0.0851 
     82 H82        22.1661  -28.3721  -45.8829 H         1 UNK         0.0851 
     83 H83        23.1056  -27.7163  -44.5558 H         1 UNK         0.0851 
     84 H84        19.1847  -28.1913  -44.1244 H         1 UNK         0.2976 
     85 H85        21.5895  -24.0417  -42.1102 H         1 UNK         0.3116 
     86 H86        22.6573  -23.0866  -39.6218 H         1 UNK         0.0646 
     87 H87        24.3859  -22.0463  -41.0900 H         1 UNK         0.0847 
     88 H88        22.7735  -21.7632  -41.7211 H         1 UNK         0.0847 
     89 H89        23.8124  -22.9823  -42.4622 H         1 UNK         0.0847 
     90 H90        23.3693  -25.9092  -41.5803 H         1 UNK         0.3040 
     91 H91        25.9397  -26.4393  -40.1625 H         1 UNK         0.1015 
     92 H92        25.9849  -26.6542  -42.6265 H         1 UNK         0.0786 
     93 H93        24.6365  -27.7857  -42.5851 H         1 UNK         0.0786 
     94 H94        26.1889  -28.2307  -41.8813 H         1 UNK         0.0786 
     95 H95        22.7346  -27.8515  -40.8290 H         1 UNK         0.3172 
     96 H96        21.4140  -29.2981  -39.9079 H         1 UNK         0.0595 
     97 H97        21.6927  -28.0754  -37.7739 H         1 UNK         0.0839 
     98 H98        23.0619  -29.0944  -37.3334 H         1 UNK         0.0839 
     99 H99        21.4570  -29.7918  -37.4824 H         1 UNK         0.0839 
    100 H100       24.7465  -30.2228  -39.0148 H         1 UNK         0.2998 
    101 H101       24.3340  -33.0656  -39.0644 H         1 UNK         0.0822 
    102 H102       26.2285  -32.0051  -37.8550 H         1 UNK         0.0787 
    103 H103       26.8386  -33.1379  -39.0500 H         1 UNK         0.0787 
    104 H104       26.9011  -31.4097  -39.3726 H         1 UNK         0.0787 
    105 H105       24.9856  -30.7240  -41.5882 H         1 UNK         0.3055 
    106 H106       25.8852  -32.4779  -43.6529 H         1 UNK         0.1106 
    107 H107       25.3280  -30.5562  -45.1456 H         1 UNK         0.0828 
    108 H108       24.4517  -29.7742  -43.8412 H         1 UNK         0.0828 
    109 H109       26.1994  -30.0048  -43.7266 H         1 UNK         0.0828 
    110 H110       22.7192  -32.0671  -42.2881 H         1 UNK         0.2931 
    111 H111       21.2079  -33.0339  -44.5549 H         1 UNK         0.0412 
    112 H112       22.6941  -36.3248  -42.7112 H         1 UNK         0.3472 
    113 H113       23.3618  -34.7431  -42.3872 H         1 UNK         0.3472 
    114 H114       19.3381  -33.2499  -42.9440 H         1 UNK         0.0970 
    115 H115       20.4154  -32.9371  -41.6060 H         1 UNK         0.0970 
    116 H116       18.1450  -31.6735  -41.3959 H         1 UNK         0.0612 
    117 H117       19.1074  -30.4140  -40.6585 H         1 UNK         0.0612 
@<TRIPOS>BOND
     1    1    2 1    
     2    1   62 1    
     3    1   63 1    
     4    1   64 1    
     5    2    3 2    
     6    2    4 am   BACKBONE|DICT|INTERRES
     7    4    5 1    
     8    4   65 1    
     9    5    6 1    
    10    5   25 1    
    11    5   66 1    
    12    6    7 1    
    13    6   67 1    
    14    6   68 1    
    15    7    8 1    
    16    8    9 1    
    17    8   69 1    
    18    8   70 1    
    19    9   10 ar   
    20    9   14 ar   
    21   10   11 ar   
    22   10   71 1    
    23   11   12 ar   
    24   11   61 1    
    25   12   13 ar   
    26   12   72 1    
    27   13   14 ar   
    28   13   15 1    
    29   14   73 1    
    30   15   16 1    
    31   15   74 1    
    32   15   75 1    
    33   16   17 1    
    34   17   18 1    
    35   17   76 1    
    36   17   77 1    
    37   18   19 1    
    38   18   27 1    
    39   18   78 1    
    40   19   20 am   BACKBONE|DICT|INTERRES
    41   19   79 1    
    42   20   21 2    
    43   20   22 1    
    44   22   23 1    
    45   22   24 1    
    46   22   80 1    
    47   23   81 1    
    48   23   82 1    
    49   23   83 1    
    50   24   25 am   BACKBONE|DICT|INTERRES
    51   24   84 1    
    52   25   26 2    
    53   27   28 2    
    54   27   29 am   BACKBONE|DICT|INTERRES
    55   29   30 1    
    56   29   85 1    
    57   30   31 1    
    58   30   32 1    
    59   30   86 1    
    60   31   87 1    
    61   31   88 1    
    62   31   89 1    
    63   32   33 2    
    64   32   34 am   BACKBONE|DICT|INTERRES
    65   34   35 1    
    66   34   90 1    
    67   35   36 1    
    68   35   37 1    
    69   35   91 1    
    70   36   92 1    
    71   36   93 1    
    72   36   94 1    
    73   37   38 2    
    74   37   39 am   BACKBONE|DICT|INTERRES
    75   39   40 1    
    76   39   95 1    
    77   40   41 1    
    78   40   42 1    
    79   40   96 1    
    80   41   97 1    
    81   41   98 1    
    82   41   99 1    
    83   42   43 2    
    84   42   44 am   BACKBONE|DICT|INTERRES
    85   44   45 1    
    86   44  100 1    
    87   45   46 1    
    88   45   47 1    
    89   45  101 1    
    90   46  102 1    
    91   46  103 1    
    92   46  104 1    
    93   47   48 2    
    94   47   49 am   BACKBONE|DICT|INTERRES
    95   49   50 1    
    96   49  105 1    
    97   50   51 1    
    98   50   52 1    
    99   50  106 1    
   100   51  107 1    
   101   51  108 1    
   102   51  109 1    
   103   52   53 2    
   104   52   54 am   BACKBONE|DICT|INTERRES
   105   54   55 1    
   106   54  110 1    
   107   55   56 1    
   108   55   59 1    
   109   55  111 1    
   110   56   57 am   BACKBONE|DICT|INTERRES
   111   56   58 2    
   112   57  112 1    
   113   57  113 1    
   114   59   60 1    
   115   59  114 1    
   116   59  115 1    
   117   60   61 1    
   118   61  116 1    
   119   61  117 1    
@<TRIPOS>SUBSTRUCTURE
     1 UNK         1 GROUP             0       ****    0 ROOT    
