@<TRIPOS>MOLECULE
3R8
117   119    1
SMALL
USER_CHARGES


@<TRIPOS>ATOM
      1 CA         17.6441  -28.9650  -41.8055 C.3       0 UNK        -0.2013 
      2 C          17.6817  -27.9385  -42.9259 C.2       0 UNK         0.4866 
      3 O          18.6989  -27.8174  -43.6073 O.2       0 UNK        -0.5176 
      4 N          16.5813  -27.1906  -43.0871 N.am      1 UNK        -0.4884 
      5 CA         16.3553  -26.0982  -44.0438 C.3       1 UNK         0.0853 
      6 C6         15.6927  -26.5689  -45.3776 C.3       10 UNK        -0.0849 
      7 S7         16.7403  -27.4350  -46.6032 S.3       10 UNK        -0.2776 
      8 C8         16.3543  -29.2047  -46.3619 C.3       10 UNK         0.0316 
      9 C9         17.6071  -30.0174  -46.0506 C.ar      10 UNK        -0.0863 
     10 C10        17.6261  -30.8987  -44.9646 C.ar      10 UNK        -0.1009 
     11 C11        18.7976  -31.5850  -44.6270 C.ar      10 UNK        -0.0712 
     12 C12        19.9514  -31.3986  -45.3926 C.ar      10 UNK        -0.0894 
     13 C13        19.9456  -30.5198  -46.4779 C.ar      10 UNK        -0.0745 
     14 C14        18.7635  -29.8615  -46.8229 C.ar      10 UNK        -0.0972 
     15 C15        21.2364  -30.2117  -47.2214 C.3       10 UNK         0.0209 
     16 S16        21.7419  -28.4700  -47.0083 S.3       10 UNK        -0.2568 
     17 C17        21.8316  -28.3133  -45.1901 C.3       10 UNK        -0.0983 
     18 CA         21.8806  -26.8348  -44.7367 C.3       3 UNK         0.0876 
     19 N          20.6684  -26.0907  -45.0985 N.am      3 UNK        -0.4424 
     20 C          20.6208  -24.7590  -45.2467 C.2       2 UNK         0.4918 
     21 O          21.6004  -24.0254  -45.1083 O.2       2 UNK        -0.4875 
     22 CA         19.2768  -24.1180  -45.6427 C.3       2 UNK         0.0481 
     23 CB         19.2760  -23.7733  -47.1409 C.3       2 UNK        -0.1831 
     24 N          18.1146  -24.9570  -45.3535 N.am      2 UNK        -0.4498 
     25 C          17.5500  -25.1155  -44.1515 C.2       1 UNK         0.5027 
     26 O          17.9281  -24.5198  -43.1402 O.2       1 UNK        -0.4969 
     27 C          22.1490  -26.7123  -43.2255 C.2       3 UNK         0.5005 
     28 O          23.2560  -26.3303  -42.8396 O.2       3 UNK        -0.5279 
     29 N          21.1142  -26.9830  -42.4144 N.am      4 UNK        -0.4463 
     30 CA         21.0336  -26.8331  -40.9572 C.3       4 UNK         0.0283 
     31 CB         20.9089  -25.3400  -40.5863 C.3       4 UNK        -0.1875 
     32 C          22.1652  -27.5534  -40.1991 C.2       4 UNK         0.4949 
     33 O          22.0121  -28.7225  -39.8420 O.2       4 UNK        -0.5039 
     34 N          23.2708  -26.8376  -39.9529 N.am      5 UNK        -0.4663 
     35 CA         24.4885  -27.3604  -39.3342 C.3       5 UNK         0.0242 
     36 CB         25.3979  -26.1897  -38.9298 C.3       5 UNK        -0.1982 
     37 C          25.2432  -28.3429  -40.2446 C.2       5 UNK         0.5017 
     38 O          25.8646  -29.2731  -39.7298 O.2       5 UNK        -0.5012 
     39 N          25.1582  -28.1542  -41.5706 N.am      6 UNK        -0.4439 
     40 CA         25.6551  -29.1132  -42.5582 C.3       6 UNK         0.0297 
     41 CB         25.7379  -28.4554  -43.9443 C.3       6 UNK        -0.2006 
     42 C          24.7425  -30.3489  -42.5623 C.2       6 UNK         0.4892 
     43 O          23.5269  -30.1994  -42.6823 O.2       6 UNK        -0.5089 
     44 N          25.3502  -31.5255  -42.3550 N.am      7 UNK        -0.4243 
     45 CA         24.7232  -32.8278  -42.0727 C.3       7 UNK         0.0196 
     46 CB         23.7254  -33.2413  -43.1770 C.3       7 UNK        -0.2007 
     47 C          24.0974  -32.9370  -40.6640 C.2       7 UNK         0.5020 
     48 O          23.6027  -34.0106  -40.3199 O.2       7 UNK        -0.5147 
     49 N          24.1506  -31.8562  -39.8675 N.am      8 UNK        -0.4734 
     50 CA         23.6819  -31.7165  -38.4802 C.3       8 UNK         0.0238 
     51 CB         24.5832  -32.5347  -37.5317 C.3       8 UNK        -0.1912 
     52 C          22.1823  -32.0111  -38.2615 C.2       8 UNK         0.5038 
     53 O          21.7829  -32.3098  -37.1341 O.2       8 UNK        -0.5046 
     54 N          21.3813  -31.9314  -39.3292 N.am      9 UNK        -0.4200 
     55 CA         19.9404  -32.2151  -39.3268 C.3       9 UNK         0.0839 
     56 C          19.0466  -31.0341  -38.8512 C.2       9 UNK         0.5513 
     57 N          19.5592  -29.8167  -38.7187 N.am      9 UNK        -0.7519 
     58 O          17.8665  -31.2347  -38.5757 O.2       9 UNK        -0.4960 
     59 C59        19.4813  -32.8070  -40.6843 C.3       10 UNK        -0.0876 
     60 S60        19.8727  -31.7345  -42.1047 S.3       10 UNK        -0.2414 
     61 C61        18.8414  -32.4825  -43.4014 C.3       10 UNK         0.0169 
     62 H62        18.6363  -29.0862  -41.3733 H         1 UNK         0.0903 
     63 H63        16.9651  -28.6694  -41.0062 H         1 UNK         0.0903 
     64 H64        17.3243  -29.9326  -42.1884 H         1 UNK         0.0903 
     65 H65        15.8096  -27.3499  -42.4545 H         1 UNK         0.3096 
     66 H66        15.5910  -25.4915  -43.5544 H         1 UNK         0.1121 
     67 H67        15.2775  -25.6971  -45.8866 H         1 UNK         0.0849 
     68 H68        14.8247  -27.1897  -45.1520 H         1 UNK         0.0849 
     69 H69        15.6173  -29.3208  -45.5664 H         1 UNK         0.0865 
     70 H70        15.8942  -29.5957  -47.2701 H         1 UNK         0.0865 
     71 H71        16.7391  -31.0236  -44.3593 H         1 UNK         0.1346 
     72 H72        20.8669  -31.8977  -45.1053 H         1 UNK         0.1412 
     73 H73        18.7667  -29.1704  -47.6547 H         1 UNK         0.1426 
     74 H74        21.0994  -30.4170  -48.2838 H         1 UNK         0.0716 
     75 H75        22.0467  -30.8586  -46.8813 H         1 UNK         0.0716 
     76 H76        22.7134  -28.8589  -44.8554 H         1 UNK         0.0695 
     77 H77        20.9774  -28.8112  -44.7301 H         1 UNK         0.0695 
     78 H78        22.7289  -26.3695  -45.2444 H         1 UNK         0.0983 
     79 H79        19.8129  -26.6301  -45.1539 H         1 UNK         0.3095 
     80 H80        19.1794  -23.1861  -45.0819 H         1 UNK         0.0454 
     81 H81        18.3623  -23.2533  -47.4288 H         1 UNK         0.0851 
     82 H82        19.3644  -24.6667  -47.7605 H         1 UNK         0.0851 
     83 H83        20.1119  -23.1188  -47.3921 H         1 UNK         0.0851 
     84 H84        17.7596  -25.5302  -46.1101 H         1 UNK         0.2976 
     85 H85        20.2584  -27.3138  -42.8617 H         1 UNK         0.3116 
     86 H86        20.1063  -27.3185  -40.6516 H         1 UNK         0.0646 
     87 H87        21.7402  -24.7454  -40.9660 H         1 UNK         0.0847 
     88 H88        20.8699  -25.2044  -39.5046 H         1 UNK         0.0847 
     89 H89        19.9921  -24.9151  -40.9961 H         1 UNK         0.0847 
     90 H90        23.3168  -25.9015  -40.3301 H         1 UNK         0.3040 
     91 H91        24.2033  -27.9036  -38.4304 H         1 UNK         0.1015 
     92 H92        25.7041  -25.5981  -39.7937 H         1 UNK         0.0786 
     93 H93        26.3053  -26.5513  -38.4439 H         1 UNK         0.0786 
     94 H94        24.8985  -25.5239  -38.2257 H         1 UNK         0.0786 
     95 H95        24.5492  -27.4166  -41.9189 H         1 UNK         0.3172 
     96 H96        26.6658  -29.4116  -42.2708 H         1 UNK         0.0595 
     97 H97        24.7728  -28.0774  -44.2758 H         1 UNK         0.0839 
     98 H98        26.0848  -29.1671  -44.6945 H         1 UNK         0.0839 
     99 H99        26.4368  -27.6189  -43.9422 H         1 UNK         0.0839 
    100 H100       26.3572  -31.5161  -42.2608 H         1 UNK         0.2998 
    101 H101       25.5394  -33.5518  -42.0881 H         1 UNK         0.0822 
    102 H102       23.4196  -34.2810  -43.0538 H         1 UNK         0.0787 
    103 H103       22.8166  -32.6390  -43.1546 H         1 UNK         0.0787 
    104 H104       24.1669  -33.1489  -44.1691 H         1 UNK         0.0787 
    105 H105       24.5895  -31.0251  -40.2444 H         1 UNK         0.3055 
    106 H106       23.8080  -30.6624  -38.2274 H         1 UNK         0.1106 
    107 H107       24.3423  -32.3348  -36.4869 H         1 UNK         0.0828 
    108 H108       24.4689  -33.6071  -37.6930 H         1 UNK         0.0828 
    109 H109       25.6348  -32.2838  -37.6709 H         1 UNK         0.0828 
    110 H110       21.7727  -31.6332  -40.2118 H         1 UNK         0.2931 
    111 H111       19.7720  -33.0037  -38.5907 H         1 UNK         0.0412 
    112 H112       20.5147  -29.6231  -39.0029 H         1 UNK         0.3472 
    113 H113       18.9713  -29.0705  -38.3859 H         1 UNK         0.3472 
    114 H114       18.4100  -33.0162  -40.6673 H         1 UNK         0.0970 
    115 H115       19.9696  -33.7693  -40.8458 H         1 UNK         0.0970 
    116 H116       17.8351  -32.6520  -43.0154 H         1 UNK         0.0612 
    117 H117       19.2463  -33.4589  -43.6706 H         1 UNK         0.0612 
@<TRIPOS>BOND
     1    1    2 1    
     2    1   62 1    
     3    1   63 1    
     4    1   64 1    
     5    2    3 2    
     6    2    4 am   BACKBONE|DICT|INTERRES
     7    4    5 1    
     8    4   65 1    
     9    5    6 1    
    10    5   25 1    
    11    5   66 1    
    12    6    7 1    
    13    6   67 1    
    14    6   68 1    
    15    7    8 1    
    16    8    9 1    
    17    8   69 1    
    18    8   70 1    
    19    9   10 ar   
    20    9   14 ar   
    21   10   11 ar   
    22   10   71 1    
    23   11   12 ar   
    24   11   61 1    
    25   12   13 ar   
    26   12   72 1    
    27   13   14 ar   
    28   13   15 1    
    29   14   73 1    
    30   15   16 1    
    31   15   74 1    
    32   15   75 1    
    33   16   17 1    
    34   17   18 1    
    35   17   76 1    
    36   17   77 1    
    37   18   19 1    
    38   18   27 1    
    39   18   78 1    
    40   19   20 am   BACKBONE|DICT|INTERRES
    41   19   79 1    
    42   20   21 2    
    43   20   22 1    
    44   22   23 1    
    45   22   24 1    
    46   22   80 1    
    47   23   81 1    
    48   23   82 1    
    49   23   83 1    
    50   24   25 am   BACKBONE|DICT|INTERRES
    51   24   84 1    
    52   25   26 2    
    53   27   28 2    
    54   27   29 am   BACKBONE|DICT|INTERRES
    55   29   30 1    
    56   29   85 1    
    57   30   31 1    
    58   30   32 1    
    59   30   86 1    
    60   31   87 1    
    61   31   88 1    
    62   31   89 1    
    63   32   33 2    
    64   32   34 am   BACKBONE|DICT|INTERRES
    65   34   35 1    
    66   34   90 1    
    67   35   36 1    
    68   35   37 1    
    69   35   91 1    
    70   36   92 1    
    71   36   93 1    
    72   36   94 1    
    73   37   38 2    
    74   37   39 am   BACKBONE|DICT|INTERRES
    75   39   40 1    
    76   39   95 1    
    77   40   41 1    
    78   40   42 1    
    79   40   96 1    
    80   41   97 1    
    81   41   98 1    
    82   41   99 1    
    83   42   43 2    
    84   42   44 am   BACKBONE|DICT|INTERRES
    85   44   45 1    
    86   44  100 1    
    87   45   46 1    
    88   45   47 1    
    89   45  101 1    
    90   46  102 1    
    91   46  103 1    
    92   46  104 1    
    93   47   48 2    
    94   47   49 am   BACKBONE|DICT|INTERRES
    95   49   50 1    
    96   49  105 1    
    97   50   51 1    
    98   50   52 1    
    99   50  106 1    
   100   51  107 1    
   101   51  108 1    
   102   51  109 1    
   103   52   53 2    
   104   52   54 am   BACKBONE|DICT|INTERRES
   105   54   55 1    
   106   54  110 1    
   107   55   56 1    
   108   55   59 1    
   109   55  111 1    
   110   56   57 am   BACKBONE|DICT|INTERRES
   111   56   58 2    
   112   57  112 1    
   113   57  113 1    
   114   59   60 1    
   115   59  114 1    
   116   59  115 1    
   117   60   61 1    
   118   61  116 1    
   119   61  117 1    
@<TRIPOS>SUBSTRUCTURE
     1 UNK         1 GROUP             0       ****    0 ROOT    
