@<TRIPOS>MOLECULE
3R8
117   119    1
SMALL
USER_CHARGES


@<TRIPOS>ATOM
      1 CA         13.7922  -23.1927  -44.6929 C.3       0 UNK        -0.2013 
      2 C          14.9180  -24.2032  -44.8483 C.2       0 UNK         0.4866 
      3 O          15.4833  -24.3322  -45.9352 O.2       0 UNK        -0.5176 
      4 N          15.2612  -24.9181  -43.7696 N.am      1 UNK        -0.4884 
      5 CA         16.3024  -25.9531  -43.7259 C.3       1 UNK         0.0853 
      6 C6         16.0451  -26.9807  -42.5940 C.3       10 UNK        -0.0849 
      7 S7         14.4292  -27.8300  -42.7032 S.3       10 UNK        -0.2776 
      8 C8         14.4829  -28.6441  -44.3411 C.3       10 UNK         0.0316 
      9 C9         15.7735  -29.4140  -44.6074 C.ar      10 UNK        -0.0863 
     10 C10        16.2787  -30.3119  -43.6608 C.ar      10 UNK        -0.1009 
     11 C11        17.4798  -30.9862  -43.8921 C.ar      10 UNK        -0.0712 
     12 C12        18.1617  -30.7877  -45.0957 C.ar      10 UNK        -0.0894 
     13 C13        17.6575  -29.9112  -46.0611 C.ar      10 UNK        -0.0745 
     14 C14        16.4642  -29.2265  -45.8105 C.ar      10 UNK        -0.0972 
     15 C15        18.3941  -29.7175  -47.3806 C.3       10 UNK         0.0209 
     16 S16        19.2642  -28.1196  -47.4689 S.3       10 UNK        -0.2568 
     17 C17        20.5735  -28.3417  -46.2169 C.3       10 UNK        -0.0983 
     18 CA         21.2611  -27.0107  -45.8194 C.3       3 UNK         0.0876 
     19 N          20.2849  -25.9829  -45.4417 N.am      3 UNK        -0.4424 
     20 C          20.5460  -24.7143  -45.0958 C.2       2 UNK         0.4918 
     21 O          21.6795  -24.2369  -45.0411 O.2       2 UNK        -0.4875 
     22 CA         19.3404  -23.8074  -44.7752 C.3       2 UNK         0.0481 
     23 CB         19.1886  -22.7158  -45.8474 C.3       2 UNK        -0.1831 
     24 N          18.0637  -24.5180  -44.6464 N.am      2 UNK        -0.4498 
     25 C          17.7156  -25.3333  -43.6425 C.2       1 UNK         0.5027 
     26 O          18.4586  -25.5928  -42.6941 O.2       1 UNK        -0.4969 
     27 C          22.3079  -27.2655  -44.7159 C.2       3 UNK         0.5005 
     28 O          23.5041  -27.3099  -45.0101 O.2       3 UNK        -0.5279 
     29 N          21.8257  -27.4100  -43.4709 N.am      4 UNK        -0.4463 
     30 CA         22.5474  -27.6210  -42.2084 C.3       4 UNK         0.0283 
     31 CB         23.4197  -26.4015  -41.8535 C.3       4 UNK        -0.1875 
     32 C          23.3630  -28.9239  -42.1213 C.2       4 UNK         0.4949 
     33 O          23.1804  -29.6722  -41.1626 O.2       4 UNK        -0.5039 
     34 N          24.2646  -29.1518  -43.0873 N.am      5 UNK        -0.4663 
     35 CA         25.2062  -30.2748  -43.2057 C.3       5 UNK         0.0242 
     36 CB         24.4621  -31.5474  -43.6522 C.3       5 UNK        -0.1982 
     37 C          26.0256  -30.4839  -41.9178 C.2       5 UNK         0.5017 
     38 O          25.8761  -31.5057  -41.2452 O.2       5 UNK        -0.5012 
     39 N          26.8110  -29.4565  -41.5573 N.am      6 UNK        -0.4439 
     40 CA         27.6057  -29.3431  -40.3223 C.3       6 UNK         0.0297 
     41 CB         28.7510  -30.3785  -40.3104 C.3       6 UNK        -0.2006 
     42 C          26.7507  -29.3897  -39.0362 C.2       6 UNK         0.4892 
     43 O          27.2282  -29.8453  -37.9964 O.2       6 UNK        -0.5089 
     44 N          25.4944  -28.9325  -39.1515 N.am      7 UNK        -0.4243 
     45 CA         24.4152  -28.9528  -38.1557 C.3       7 UNK         0.0196 
     46 CB         24.7940  -28.1402  -36.8993 C.3       7 UNK        -0.2007 
     47 C          23.8948  -30.3643  -37.8093 C.2       7 UNK         0.5020 
     48 O          23.1062  -30.4934  -36.8717 O.2       7 UNK        -0.5147 
     49 N          24.3099  -31.3937  -38.5611 N.am      8 UNK        -0.4734 
     50 CA         23.8709  -32.7793  -38.3784 C.3       8 UNK         0.0238 
     51 CB         25.0508  -33.7197  -38.6757 C.3       8 UNK        -0.1912 
     52 C          22.6657  -33.1383  -39.2631 C.2       8 UNK         0.5038 
     53 O          21.9893  -34.1250  -38.9703 O.2       8 UNK        -0.5046 
     54 N          22.4224  -32.3565  -40.3248 N.am      9 UNK        -0.4200 
     55 CA         21.3805  -32.5698  -41.3429 C.3       9 UNK         0.0839 
     56 C          21.5402  -33.8757  -42.1843 C.2       9 UNK         0.5513 
     57 N          22.7208  -34.4814  -42.2401 N.am      9 UNK        -0.7519 
     58 O          20.5966  -34.3373  -42.8195 O.2       9 UNK        -0.4960 
     59 C59        19.9402  -32.3383  -40.7857 C.3       10 UNK        -0.0876 
     60 S60        19.0863  -30.9866  -41.6645 S.3       10 UNK        -0.2414 
     61 C61        18.0520  -31.9151  -42.8356 C.3       10 UNK         0.0169 
     62 H62        12.9827  -23.4248  -45.3844 H         1 UNK         0.0903 
     63 H63        13.3841  -23.1889  -43.6823 H         1 UNK         0.0903 
     64 H64        14.1549  -22.1899  -44.9166 H         1 UNK         0.0903 
     65 H65        14.7726  -24.7629  -42.8988 H         1 UNK         0.3096 
     66 H66        16.2810  -26.4969  -44.6718 H         1 UNK         0.1121 
     67 H67        16.8289  -27.7406  -42.5807 H         1 UNK         0.0849 
     68 H68        16.0952  -26.4898  -41.6203 H         1 UNK         0.0849 
     69 H69        13.6422  -29.3351  -44.4155 H         1 UNK         0.0865 
     70 H70        14.3190  -27.8863  -45.1089 H         1 UNK         0.0865 
     71 H71        15.7521  -30.4632  -42.7283 H         1 UNK         0.1346 
     72 H72        19.0902  -31.3121  -45.2767 H         1 UNK         0.1412 
     73 H73        16.0785  -28.5444  -46.5564 H         1 UNK         0.1426 
     74 H74        17.6776  -29.7717  -48.2016 H         1 UNK         0.0716 
     75 H75        19.1089  -30.5247  -47.5488 H         1 UNK         0.0716 
     76 H76        21.3066  -29.0480  -46.6115 H         1 UNK         0.0695 
     77 H77        20.1340  -28.8139  -45.3370 H         1 UNK         0.0695 
     78 H78        21.7981  -26.6310  -46.6914 H         1 UNK         0.0983 
     79 H79        19.3177  -26.2624  -45.5022 H         1 UNK         0.3095 
     80 H80        19.5504  -23.3194  -43.8213 H         1 UNK         0.0454 
     81 H81        20.1044  -22.1312  -45.9457 H         1 UNK         0.0851 
     82 H82        18.3890  -22.0192  -45.5950 H         1 UNK         0.0851 
     83 H83        18.9669  -23.1412  -46.8270 H         1 UNK         0.0851 
     84 H84        17.3637  -24.3461  -45.3636 H         1 UNK         0.2976 
     85 H85        20.8210  -27.3537  -43.3704 H         1 UNK         0.3116 
     86 H86        21.7717  -27.6941  -41.4440 H         1 UNK         0.0646 
     87 H87        24.2197  -26.2439  -42.5774 H         1 UNK         0.0847 
     88 H88        22.8238  -25.4895  -41.8149 H         1 UNK         0.0847 
     89 H89        23.8852  -26.5240  -40.8747 H         1 UNK         0.0847 
     90 H90        24.2836  -28.4691  -43.8444 H         1 UNK         0.3040 
     91 H91        25.9157  -30.0154  -43.9933 H         1 UNK         0.1015 
     92 H92        25.1585  -32.3702  -43.8181 H         1 UNK         0.0786 
     93 H93        23.9191  -31.3859  -44.5834 H         1 UNK         0.0786 
     94 H94        23.7481  -31.8747  -42.9007 H         1 UNK         0.0786 
     95 H95        26.8383  -28.6511  -42.1687 H         1 UNK         0.3172 
     96 H96        28.0602  -28.3515  -40.3434 H         1 UNK         0.0595 
     97 H97        28.3749  -31.3978  -40.2159 H         1 UNK         0.0839 
     98 H98        29.4276  -30.2048  -39.4728 H         1 UNK         0.0839 
     99 H99        29.3466  -30.3235  -41.2215 H         1 UNK         0.0839 
    100 H100       25.2084  -28.6317  -40.0720 H         1 UNK         0.2998 
    101 H101       23.5738  -28.4438  -38.6284 H         1 UNK         0.0822 
    102 H102       23.9335  -28.0142  -36.2411 H         1 UNK         0.0787 
    103 H103       25.1464  -27.1429  -37.1623 H         1 UNK         0.0787 
    104 H104       25.5746  -28.6310  -36.3175 H         1 UNK         0.0787 
    105 H105       24.9373  -31.2157  -39.3384 H         1 UNK         0.3055 
    106 H106       23.5695  -32.9377  -37.3404 H         1 UNK         0.1106 
    107 H107       25.9035  -33.5004  -38.0330 H         1 UNK         0.0828 
    108 H108       24.7737  -34.7604  -38.5022 H         1 UNK         0.0828 
    109 H109       25.3835  -33.6403  -39.7110 H         1 UNK         0.0828 
    110 H110       22.9985  -31.5335  -40.4723 H         1 UNK         0.2931 
    111 H111       21.5854  -31.7851  -42.0710 H         1 UNK         0.0412 
    112 H112       23.5099  -34.1125  -41.7349 H         1 UNK         0.3472 
    113 H113       22.8188  -35.3193  -42.7915 H         1 UNK         0.3472 
    114 H114       19.3327  -33.2449  -40.8087 H         1 UNK         0.0970 
    115 H115       19.9728  -32.0530  -39.7333 H         1 UNK         0.0970 
    116 H116       18.6430  -32.6952  -43.3150 H         1 UNK         0.0612 
    117 H117       17.2498  -32.4188  -42.2943 H         1 UNK         0.0612 
@<TRIPOS>BOND
     1    1    2 1    
     2    1   62 1    
     3    1   63 1    
     4    1   64 1    
     5    2    3 2    
     6    2    4 am   BACKBONE|DICT|INTERRES
     7    4    5 1    
     8    4   65 1    
     9    5    6 1    
    10    5   25 1    
    11    5   66 1    
    12    6    7 1    
    13    6   67 1    
    14    6   68 1    
    15    7    8 1    
    16    8    9 1    
    17    8   69 1    
    18    8   70 1    
    19    9   10 ar   
    20    9   14 ar   
    21   10   11 ar   
    22   10   71 1    
    23   11   12 ar   
    24   11   61 1    
    25   12   13 ar   
    26   12   72 1    
    27   13   14 ar   
    28   13   15 1    
    29   14   73 1    
    30   15   16 1    
    31   15   74 1    
    32   15   75 1    
    33   16   17 1    
    34   17   18 1    
    35   17   76 1    
    36   17   77 1    
    37   18   19 1    
    38   18   27 1    
    39   18   78 1    
    40   19   20 am   BACKBONE|DICT|INTERRES
    41   19   79 1    
    42   20   21 2    
    43   20   22 1    
    44   22   23 1    
    45   22   24 1    
    46   22   80 1    
    47   23   81 1    
    48   23   82 1    
    49   23   83 1    
    50   24   25 am   BACKBONE|DICT|INTERRES
    51   24   84 1    
    52   25   26 2    
    53   27   28 2    
    54   27   29 am   BACKBONE|DICT|INTERRES
    55   29   30 1    
    56   29   85 1    
    57   30   31 1    
    58   30   32 1    
    59   30   86 1    
    60   31   87 1    
    61   31   88 1    
    62   31   89 1    
    63   32   33 2    
    64   32   34 am   BACKBONE|DICT|INTERRES
    65   34   35 1    
    66   34   90 1    
    67   35   36 1    
    68   35   37 1    
    69   35   91 1    
    70   36   92 1    
    71   36   93 1    
    72   36   94 1    
    73   37   38 2    
    74   37   39 am   BACKBONE|DICT|INTERRES
    75   39   40 1    
    76   39   95 1    
    77   40   41 1    
    78   40   42 1    
    79   40   96 1    
    80   41   97 1    
    81   41   98 1    
    82   41   99 1    
    83   42   43 2    
    84   42   44 am   BACKBONE|DICT|INTERRES
    85   44   45 1    
    86   44  100 1    
    87   45   46 1    
    88   45   47 1    
    89   45  101 1    
    90   46  102 1    
    91   46  103 1    
    92   46  104 1    
    93   47   48 2    
    94   47   49 am   BACKBONE|DICT|INTERRES
    95   49   50 1    
    96   49  105 1    
    97   50   51 1    
    98   50   52 1    
    99   50  106 1    
   100   51  107 1    
   101   51  108 1    
   102   51  109 1    
   103   52   53 2    
   104   52   54 am   BACKBONE|DICT|INTERRES
   105   54   55 1    
   106   54  110 1    
   107   55   56 1    
   108   55   59 1    
   109   55  111 1    
   110   56   57 am   BACKBONE|DICT|INTERRES
   111   56   58 2    
   112   57  112 1    
   113   57  113 1    
   114   59   60 1    
   115   59  114 1    
   116   59  115 1    
   117   60   61 1    
   118   61  116 1    
   119   61  117 1    
@<TRIPOS>SUBSTRUCTURE
     1 UNK         1 GROUP             0       ****    0 ROOT    
