@<TRIPOS>MOLECULE
3R8
117   119    1
SMALL
USER_CHARGES


@<TRIPOS>ATOM
      1 CA         13.7642  -24.6753  -45.0292 C.3       0 UNK        -0.2013 
      2 C          15.1593  -24.9543  -45.5677 C.2       0 UNK         0.4866 
      3 O          15.5719  -24.3370  -46.5498 O.2       0 UNK        -0.5176 
      4 N          15.8903  -25.8799  -44.9330 N.am      1 UNK        -0.4884 
      5 CA         17.2453  -26.2890  -45.3262 C.3       1 UNK         0.0853 
      6 C6         17.6672  -27.6116  -44.6436 C.3       10 UNK        -0.0849 
      7 S7         16.6086  -29.0499  -45.0146 S.3       10 UNK        -0.2776 
      8 C8         17.7990  -30.4231  -44.8071 C.3       10 UNK         0.0316 
      9 C9         18.1739  -30.6535  -43.3451 C.ar      10 UNK        -0.0863 
     10 C10        17.6260  -31.7231  -42.6295 C.ar      10 UNK        -0.1009 
     11 C11        17.9591  -31.9229  -41.2847 C.ar      10 UNK        -0.0712 
     12 C12        18.8132  -31.0212  -40.6423 C.ar      10 UNK        -0.0894 
     13 C13        19.3627  -29.9477  -41.3458 C.ar      10 UNK        -0.0745 
     14 C14        19.0747  -29.7985  -42.7032 C.ar      10 UNK        -0.0972 
     15 C15        20.2538  -28.9316  -40.6515 C.3       10 UNK         0.0209 
     16 S16        19.4758  -27.2834  -40.6246 S.3       10 UNK        -0.2568 
     17 C17        20.9596  -26.2291  -40.6043 C.3       10 UNK        -0.0983 
     18 CA         21.4328  -25.8974  -42.0472 C.3       3 UNK         0.0876 
     19 N          20.4723  -25.1047  -42.8232 N.am      3 UNK        -0.4424 
     20 C          20.0581  -23.8539  -42.5833 C.2       2 UNK         0.4918 
     21 O          20.5038  -23.1463  -41.6800 O.2       2 UNK        -0.4875 
     22 CA         18.9288  -23.2941  -43.4776 C.3       2 UNK         0.0481 
     23 CB         19.4925  -22.3352  -44.5449 C.3       2 UNK        -0.1831 
     24 N          18.0404  -24.3113  -44.0713 N.am      2 UNK        -0.4498 
     25 C          18.3212  -25.2245  -45.0151 C.2       1 UNK         0.5027 
     26 O          19.4186  -25.3099  -45.5669 O.2       1 UNK        -0.4969 
     27 C          22.8640  -25.3285  -42.1065 C.2       3 UNK         0.5005 
     28 O          23.5791  -25.3378  -41.1030 O.2       3 UNK        -0.5279 
     29 N          23.2989  -24.9233  -43.3098 N.am      4 UNK        -0.4463 
     30 CA         24.6930  -24.5625  -43.6065 C.3       4 UNK         0.0283 
     31 CB         24.7835  -24.0021  -45.0347 C.3       4 UNK        -0.1875 
     32 C          25.6755  -25.7390  -43.4227 C.2       4 UNK         0.4949 
     33 O          26.8403  -25.5141  -43.0964 O.2       4 UNK        -0.5039 
     34 N          25.1728  -26.9697  -43.5975 N.am      5 UNK        -0.4663 
     35 CA         25.8804  -28.2284  -43.3469 C.3       5 UNK         0.0242 
     36 CB         25.3421  -29.2894  -44.3243 C.3       5 UNK        -0.1982 
     37 C          25.7533  -28.7213  -41.8898 C.2       5 UNK         0.5017 
     38 O          26.1973  -29.8333  -41.6029 O.2       5 UNK        -0.5012 
     39 N          25.1194  -27.9326  -41.0062 N.am      6 UNK        -0.4439 
     40 CA         24.8203  -28.1817  -39.5862 C.3       6 UNK         0.0297 
     41 CB         26.1003  -28.4226  -38.7624 C.3       6 UNK        -0.2006 
     42 C          23.7753  -29.2836  -39.3264 C.2       6 UNK         0.4892 
     43 O          22.8991  -29.0852  -38.4854 O.2       6 UNK        -0.5089 
     44 N          23.8651  -30.4038  -40.0488 N.am      7 UNK        -0.4243 
     45 CA         22.9537  -31.5420  -39.9915 C.3       7 UNK         0.0196 
     46 CB         23.2704  -32.4259  -38.7690 C.3       7 UNK        -0.2007 
     47 C          23.0869  -32.3005  -41.3145 C.2       7 UNK         0.5020 
     48 O          23.9464  -33.1747  -41.4314 O.2       7 UNK        -0.5147 
     49 N          22.2809  -31.9116  -42.3111 N.am      8 UNK        -0.4734 
     50 CA         22.3065  -32.5112  -43.6497 C.3       8 UNK         0.0238 
     51 CB         21.6750  -31.5441  -44.6627 C.3       8 UNK        -0.1912 
     52 C          21.6113  -33.8827  -43.7109 C.2       8 UNK         0.5038 
     53 O          21.9971  -34.7081  -44.5401 O.2       8 UNK        -0.5046 
     54 N          20.6032  -34.0998  -42.8546 N.am      9 UNK        -0.4200 
     55 CA         19.8977  -35.3806  -42.7101 C.3       9 UNK         0.0839 
     56 C          20.7650  -36.4857  -42.0428 C.2       9 UNK         0.5513 
     57 N          20.4594  -37.7497  -42.3042 N.am      9 UNK        -0.7519 
     58 O          21.6863  -36.2159  -41.2749 O.2       9 UNK        -0.4960 
     59 C59        18.5191  -35.2129  -42.0166 C.3       10 UNK        -0.0876 
     60 S60        18.5852  -34.4544  -40.3535 S.3       10 UNK        -0.2414 
     61 C61        17.3820  -33.0966  -40.5096 C.3       10 UNK         0.0169 
     62 H62        13.5304  -25.2923  -44.1618 H         1 UNK         0.0903 
     63 H63        13.6775  -23.6297  -44.7350 H         1 UNK         0.0903 
     64 H64        13.0187  -24.8758  -45.7981 H         1 UNK         0.0903 
     65 H65        15.4924  -26.3814  -44.1506 H         1 UNK         0.3096 
     66 H66        17.2539  -26.4416  -46.4080 H         1 UNK         0.1121 
     67 H67        18.6810  -27.8649  -44.9593 H         1 UNK         0.0849 
     68 H68        17.6956  -27.4851  -43.5590 H         1 UNK         0.0849 
     69 H69        18.6940  -30.2265  -45.3988 H         1 UNK         0.0865 
     70 H70        17.3584  -31.3286  -45.2269 H         1 UNK         0.0865 
     71 H71        16.9387  -32.3993  -43.1189 H         1 UNK         0.1346 
     72 H72        19.0438  -31.1564  -39.5941 H         1 UNK         0.1412 
     73 H73        19.5304  -28.9828  -43.2427 H         1 UNK         0.1426 
     74 H74        21.2115  -28.8902  -41.1716 H         1 UNK         0.0716 
     75 H75        20.4652  -29.2320  -39.6246 H         1 UNK         0.0716 
     76 H76        21.7330  -26.7495  -40.0357 H         1 UNK         0.0695 
     77 H77        20.7400  -25.3178  -40.0463 H         1 UNK         0.0695 
     78 H78        21.5098  -26.8474  -42.5780 H         1 UNK         0.0983 
     79 H79        20.0844  -25.5542  -43.6431 H         1 UNK         0.3095 
     80 H80        18.2876  -22.7044  -42.8207 H         1 UNK         0.0454 
     81 H81        18.6959  -21.9017  -45.1492 H         1 UNK         0.0851 
     82 H82        20.1922  -22.8318  -45.2173 H         1 UNK         0.0851 
     83 H83        20.0300  -21.5092  -44.0774 H         1 UNK         0.0851 
     84 H84        17.1174  -24.3614  -43.6620 H         1 UNK         0.2976 
     85 H85        22.6513  -24.9248  -44.0855 H         1 UNK         0.3116 
     86 H86        24.9899  -23.7751  -42.9104 H         1 UNK         0.0646 
     87 H87        25.8052  -23.7008  -45.2705 H         1 UNK         0.0847 
     88 H88        24.1527  -23.1215  -45.1574 H         1 UNK         0.0847 
     89 H89        24.4822  -24.7393  -45.7801 H         1 UNK         0.0847 
     90 H90        24.2106  -27.0484  -43.8918 H         1 UNK         0.3040 
     91 H91        26.9455  -28.0889  -43.5454 H         1 UNK         0.1015 
     92 H92        25.4413  -28.9631  -45.3598 H         1 UNK         0.0786 
     93 H93        24.2906  -29.5108  -44.1398 H         1 UNK         0.0786 
     94 H94        25.8921  -30.2270  -44.2311 H         1 UNK         0.0786 
     95 H95        24.7815  -27.0366  -41.3411 H         1 UNK         0.3172 
     96 H96        24.3789  -27.2519  -39.2235 H         1 UNK         0.0595 
     97 H97        26.5980  -29.3530  -39.0369 H         1 UNK         0.0839 
     98 H98        25.8690  -28.4847  -37.6982 H         1 UNK         0.0839 
     99 H99        26.8140  -27.6090  -38.8914 H         1 UNK         0.0839 
    100 H100       24.6386  -30.4801  -40.7062 H         1 UNK         0.2998 
    101 H101       21.9263  -31.1871  -39.8991 H         1 UNK         0.0822 
    102 H102       24.3088  -32.7596  -38.7692 H         1 UNK         0.0787 
    103 H103       23.0920  -31.8918  -37.8357 H         1 UNK         0.0787 
    104 H104       22.6394  -33.3157  -38.7592 H         1 UNK         0.0787 
    105 H105       21.6040  -31.1801  -42.1494 H         1 UNK         0.3055 
    106 H106       23.3498  -32.6621  -43.9381 H         1 UNK         0.1106 
    107 H107       20.6073  -31.4277  -44.4902 H         1 UNK         0.0828 
    108 H108       21.7965  -31.9174  -45.6804 H         1 UNK         0.0828 
    109 H109       22.1352  -30.5573  -44.6231 H         1 UNK         0.0828 
    110 H110       20.3631  -33.3842  -42.1853 H         1 UNK         0.2931 
    111 H111       19.6892  -35.7290  -43.7241 H         1 UNK         0.0412 
    112 H112       19.7046  -37.9872  -42.9294 H         1 UNK         0.3472 
    113 H113       21.0009  -38.4833  -41.8734 H         1 UNK         0.3472 
    114 H114       17.8719  -34.6179  -42.6608 H         1 UNK         0.0970 
    115 H115       18.0169  -36.1780  -41.9290 H         1 UNK         0.0970 
    116 H116       16.4678  -33.4645  -40.9780 H         1 UNK         0.0612 
    117 H117       17.0980  -32.7649  -39.5098 H         1 UNK         0.0612 
@<TRIPOS>BOND
     1    1    2 1    
     2    1   62 1    
     3    1   63 1    
     4    1   64 1    
     5    2    3 2    
     6    2    4 am   BACKBONE|DICT|INTERRES
     7    4    5 1    
     8    4   65 1    
     9    5    6 1    
    10    5   25 1    
    11    5   66 1    
    12    6    7 1    
    13    6   67 1    
    14    6   68 1    
    15    7    8 1    
    16    8    9 1    
    17    8   69 1    
    18    8   70 1    
    19    9   10 ar   
    20    9   14 ar   
    21   10   11 ar   
    22   10   71 1    
    23   11   12 ar   
    24   11   61 1    
    25   12   13 ar   
    26   12   72 1    
    27   13   14 ar   
    28   13   15 1    
    29   14   73 1    
    30   15   16 1    
    31   15   74 1    
    32   15   75 1    
    33   16   17 1    
    34   17   18 1    
    35   17   76 1    
    36   17   77 1    
    37   18   19 1    
    38   18   27 1    
    39   18   78 1    
    40   19   20 am   BACKBONE|DICT|INTERRES
    41   19   79 1    
    42   20   21 2    
    43   20   22 1    
    44   22   23 1    
    45   22   24 1    
    46   22   80 1    
    47   23   81 1    
    48   23   82 1    
    49   23   83 1    
    50   24   25 am   BACKBONE|DICT|INTERRES
    51   24   84 1    
    52   25   26 2    
    53   27   28 2    
    54   27   29 am   BACKBONE|DICT|INTERRES
    55   29   30 1    
    56   29   85 1    
    57   30   31 1    
    58   30   32 1    
    59   30   86 1    
    60   31   87 1    
    61   31   88 1    
    62   31   89 1    
    63   32   33 2    
    64   32   34 am   BACKBONE|DICT|INTERRES
    65   34   35 1    
    66   34   90 1    
    67   35   36 1    
    68   35   37 1    
    69   35   91 1    
    70   36   92 1    
    71   36   93 1    
    72   36   94 1    
    73   37   38 2    
    74   37   39 am   BACKBONE|DICT|INTERRES
    75   39   40 1    
    76   39   95 1    
    77   40   41 1    
    78   40   42 1    
    79   40   96 1    
    80   41   97 1    
    81   41   98 1    
    82   41   99 1    
    83   42   43 2    
    84   42   44 am   BACKBONE|DICT|INTERRES
    85   44   45 1    
    86   44  100 1    
    87   45   46 1    
    88   45   47 1    
    89   45  101 1    
    90   46  102 1    
    91   46  103 1    
    92   46  104 1    
    93   47   48 2    
    94   47   49 am   BACKBONE|DICT|INTERRES
    95   49   50 1    
    96   49  105 1    
    97   50   51 1    
    98   50   52 1    
    99   50  106 1    
   100   51  107 1    
   101   51  108 1    
   102   51  109 1    
   103   52   53 2    
   104   52   54 am   BACKBONE|DICT|INTERRES
   105   54   55 1    
   106   54  110 1    
   107   55   56 1    
   108   55   59 1    
   109   55  111 1    
   110   56   57 am   BACKBONE|DICT|INTERRES
   111   56   58 2    
   112   57  112 1    
   113   57  113 1    
   114   59   60 1    
   115   59  114 1    
   116   59  115 1    
   117   60   61 1    
   118   61  116 1    
   119   61  117 1    
@<TRIPOS>SUBSTRUCTURE
     1 UNK         1 GROUP             0       ****    0 ROOT    
