@<TRIPOS>MOLECULE
3R8
117   119    1
SMALL
USER_CHARGES


@<TRIPOS>ATOM
      1 CA         13.3904  -23.1135  -44.1224 C.3       0 UNK        -0.2013 
      2 C          14.5813  -23.8229  -44.7493 C.2       0 UNK         0.4866 
      3 O          15.4870  -23.1642  -45.2619 O.2       0 UNK        -0.5176 
      4 N          14.5835  -25.1609  -44.7216 N.am      1 UNK        -0.4884 
      5 CA         15.6799  -26.0096  -45.1974 C.3       1 UNK         0.0853 
      6 C6         15.2067  -27.4657  -45.4507 C.3       10 UNK        -0.0849 
      7 S7         14.3932  -28.2484  -44.0093 S.3       10 UNK        -0.2776 
      8 C8         15.1061  -29.9258  -44.0152 C.3       10 UNK         0.0316 
      9 C9         16.6184  -29.9424  -43.8231 C.ar      10 UNK        -0.0863 
     10 C10        17.1979  -29.4122  -42.6665 C.ar      10 UNK        -0.1009 
     11 C11        18.5818  -29.4618  -42.4687 C.ar      10 UNK        -0.0712 
     12 C12        19.3887  -30.0490  -43.4534 C.ar      10 UNK        -0.0894 
     13 C13        18.8198  -30.5987  -44.6061 C.ar      10 UNK        -0.0745 
     14 C14        17.4368  -30.5319  -44.7895 C.ar      10 UNK        -0.0972 
     15 C15        19.6813  -31.3114  -45.6377 C.3       10 UNK         0.0209 
     16 S16        20.3069  -30.1715  -46.9096 S.3       10 UNK        -0.2568 
     17 C17        21.8495  -29.5773  -46.1426 C.3       10 UNK        -0.0983 
     18 CA         21.8978  -28.0385  -46.0004 C.3       3 UNK         0.0876 
     19 N          20.8043  -27.5175  -45.1683 N.am      3 UNK        -0.4424 
     20 C          20.4963  -26.2201  -45.0546 C.2       2 UNK         0.4918 
     21 O          21.0428  -25.3246  -45.7004 O.2       2 UNK        -0.4875 
     22 CA         19.3670  -25.8724  -44.0823 C.3       2 UNK         0.0481 
     23 CB         19.5759  -24.4882  -43.4313 C.3       2 UNK        -0.1831 
     24 N          18.1012  -25.9317  -44.8068 N.am      2 UNK        -0.4498 
     25 C          16.8893  -25.9386  -44.2387 C.2       1 UNK         0.5027 
     26 O          16.7038  -25.8915  -43.0191 O.2       1 UNK        -0.4969 
     27 C          23.2874  -27.6086  -45.4822 C.2       3 UNK         0.5005 
     28 O          24.1943  -27.3871  -46.2864 O.2       3 UNK        -0.5279 
     29 N          23.4244  -27.4976  -44.1562 N.am      4 UNK        -0.4463 
     30 CA         24.6158  -27.0677  -43.4342 C.3       4 UNK         0.0283 
     31 CB         25.6737  -28.1899  -43.4228 C.3       4 UNK        -0.1875 
     32 C          24.1900  -26.6922  -42.0095 C.2       4 UNK         0.4949 
     33 O          23.0431  -26.9399  -41.6231 O.2       4 UNK        -0.5039 
     34 N          25.1230  -26.1172  -41.2425 N.am      5 UNK        -0.4663 
     35 CA         24.9632  -25.8147  -39.8187 C.3       5 UNK         0.0242 
     36 CB         25.9990  -24.7485  -39.4152 C.3       5 UNK        -0.1982 
     37 C          25.0828  -27.1025  -38.9810 C.2       5 UNK         0.5017 
     38 O          26.1331  -27.3503  -38.3851 O.2       5 UNK        -0.5012 
     39 N          24.0085  -27.9046  -38.9949 N.am      6 UNK        -0.4439 
     40 CA         23.8882  -29.2579  -38.4383 C.3       6 UNK         0.0297 
     41 CB         24.2025  -29.2857  -36.9250 C.3       6 UNK        -0.2006 
     42 C          24.6975  -30.2897  -39.2510 C.2       6 UNK         0.4892 
     43 O          25.1467  -29.9882  -40.3595 O.2       6 UNK        -0.5089 
     44 N          24.8177  -31.5110  -38.7086 N.am      7 UNK        -0.4243 
     45 CA         25.4782  -32.7052  -39.2620 C.3       7 UNK         0.0196 
     46 CB         26.9786  -32.4640  -39.5235 C.3       7 UNK        -0.2007 
     47 C          24.7754  -33.2889  -40.5007 C.2       7 UNK         0.5020 
     48 O          24.3810  -34.4548  -40.4794 O.2       7 UNK        -0.5147 
     49 N          24.5911  -32.4663  -41.5406 N.am      8 UNK        -0.4734 
     50 CA         23.8662  -32.8031  -42.7723 C.3       8 UNK         0.0238 
     51 CB         24.1292  -31.7131  -43.8240 C.3       8 UNK        -0.1912 
     52 C          22.3516  -32.9761  -42.5569 C.2       8 UNK         0.5038 
     53 O          21.6950  -33.6247  -43.3712 O.2       8 UNK        -0.5046 
     54 N          21.8352  -32.3881  -41.4718 N.am      9 UNK        -0.4200 
     55 CA         20.4299  -32.4376  -41.0462 C.3       9 UNK         0.0839 
     56 C          19.9715  -33.8132  -40.4795 C.2       9 UNK         0.5513 
     57 N          20.8639  -34.7639  -40.2255 N.am      9 UNK        -0.7519 
     58 O          18.7801  -34.0206  -40.2659 O.2       9 UNK        -0.4960 
     59 C59        20.0952  -31.2909  -40.0526 C.3       10 UNK        -0.0876 
     60 S60        20.6947  -29.6499  -40.5928 S.3       10 UNK        -0.2414 
     61 C61        19.1638  -28.8593  -41.1890 C.3       10 UNK         0.0169 
     62 H62        12.8886  -22.4939  -44.8652 H         1 UNK         0.0903 
     63 H63        12.6619  -23.8175  -43.7202 H         1 UNK         0.0903 
     64 H64        13.7235  -22.4691  -43.3094 H         1 UNK         0.0903 
     65 H65        13.8378  -25.6564  -44.2526 H         1 UNK         0.3096 
     66 H66        16.0030  -25.6042  -46.1593 H         1 UNK         0.1121 
     67 H67        14.4906  -27.4729  -46.2739 H         1 UNK         0.0849 
     68 H68        16.0423  -28.0789  -45.7922 H         1 UNK         0.0849 
     69 H69        14.6457  -30.5041  -43.2130 H         1 UNK         0.0865 
     70 H70        14.8247  -30.4216  -44.9456 H         1 UNK         0.0865 
     71 H71        16.5637  -28.9558  -41.9183 H         1 UNK         0.1346 
     72 H72        20.4582  -30.1102  -43.3114 H         1 UNK         0.1412 
     73 H73        16.9965  -30.9600  -45.6800 H         1 UNK         0.1426 
     74 H74        19.0941  -32.0870  -46.1319 H         1 UNK         0.0716 
     75 H75        20.5072  -31.8344  -45.1535 H         1 UNK         0.0716 
     76 H76        22.6730  -29.9275  -46.7684 H         1 UNK         0.0695 
     77 H77        21.9893  -30.0521  -45.1711 H         1 UNK         0.0695 
     78 H78        21.7852  -27.6048  -46.9969 H         1 UNK         0.0983 
     79 H79        20.2529  -28.2009  -44.6686 H         1 UNK         0.3095 
     80 H80        19.3562  -26.6260  -43.2951 H         1 UNK         0.0454 
     81 H81        20.5618  -24.4208  -42.9693 H         1 UNK         0.0851 
     82 H82        18.8435  -24.2964  -42.6477 H         1 UNK         0.0851 
     83 H83        19.5007  -23.6824  -44.1623 H         1 UNK         0.0851 
     84 H84        18.1813  -25.9781  -45.8141 H         1 UNK         0.2976 
     85 H85        22.6235  -27.6418  -43.5520 H         1 UNK         0.3116 
     86 H86        25.0222  -26.1780  -43.9194 H         1 UNK         0.0646 
     87 H87        25.3169  -29.0702  -42.8890 H         1 UNK         0.0847 
     88 H88        25.9477  -28.4986  -44.4314 H         1 UNK         0.0847 
     89 H89        26.5902  -27.8653  -42.9295 H         1 UNK         0.0847 
     90 H90        26.0451  -25.9726  -41.6287 H         1 UNK         0.3040 
     91 H91        23.9691  -25.3937  -39.6498 H         1 UNK         0.1015 
     92 H92        25.9123  -24.5035  -38.3557 H         1 UNK         0.0786 
     93 H93        25.8530  -23.8234  -39.9733 H         1 UNK         0.0786 
     94 H94        27.0214  -25.0868  -39.5890 H         1 UNK         0.0786 
     95 H95        23.2642  -27.6371  -39.6312 H         1 UNK         0.3172 
     96 H96        22.8396  -29.5306  -38.5567 H         1 UNK         0.0595 
     97 H97        25.2722  -29.2046  -36.7280 H         1 UNK         0.0839 
     98 H98        23.8565  -30.2102  -36.4624 H         1 UNK         0.0839 
     99 H99        23.7054  -28.4681  -36.4028 H         1 UNK         0.0839 
    100 H100       24.3817  -31.6555  -37.8084 H         1 UNK         0.2998 
    101 H101       25.4085  -33.4648  -38.4814 H         1 UNK         0.0822 
    102 H102       27.4690  -33.3844  -39.8433 H         1 UNK         0.0787 
    103 H103       27.4867  -32.1231  -38.6213 H         1 UNK         0.0787 
    104 H104       27.1492  -31.7211  -40.3030 H         1 UNK         0.0787 
    105 H105       24.9107  -31.5059  -41.4279 H         1 UNK         0.3055 
    106 H106       24.2542  -33.7527  -43.1476 H         1 UNK         0.1106 
    107 H107       25.1955  -31.5911  -44.0150 H         1 UNK         0.0828 
    108 H108       23.6583  -31.9676  -44.7746 H         1 UNK         0.0828 
    109 H109       23.7299  -30.7483  -43.5097 H         1 UNK         0.0828 
    110 H110       22.4588  -31.8671  -40.8755 H         1 UNK         0.2931 
    111 H111       19.8255  -32.2816  -41.9402 H         1 UNK         0.0412 
    112 H112       20.5503  -35.6497  -39.8606 H         1 UNK         0.3472 
    113 H113       21.8459  -34.6104  -40.4016 H         1 UNK         0.3472 
    114 H114       19.0180  -31.2417  -39.8818 H         1 UNK         0.0970 
    115 H115       20.5421  -31.4955  -39.0780 H         1 UNK         0.0970 
    116 H116       19.3727  -27.8041  -41.3603 H         1 UNK         0.0612 
    117 H117       18.4258  -28.8947  -40.3861 H         1 UNK         0.0612 
@<TRIPOS>BOND
     1    1    2 1    
     2    1   62 1    
     3    1   63 1    
     4    1   64 1    
     5    2    3 2    
     6    2    4 am   BACKBONE|DICT|INTERRES
     7    4    5 1    
     8    4   65 1    
     9    5    6 1    
    10    5   25 1    
    11    5   66 1    
    12    6    7 1    
    13    6   67 1    
    14    6   68 1    
    15    7    8 1    
    16    8    9 1    
    17    8   69 1    
    18    8   70 1    
    19    9   10 ar   
    20    9   14 ar   
    21   10   11 ar   
    22   10   71 1    
    23   11   12 ar   
    24   11   61 1    
    25   12   13 ar   
    26   12   72 1    
    27   13   14 ar   
    28   13   15 1    
    29   14   73 1    
    30   15   16 1    
    31   15   74 1    
    32   15   75 1    
    33   16   17 1    
    34   17   18 1    
    35   17   76 1    
    36   17   77 1    
    37   18   19 1    
    38   18   27 1    
    39   18   78 1    
    40   19   20 am   BACKBONE|DICT|INTERRES
    41   19   79 1    
    42   20   21 2    
    43   20   22 1    
    44   22   23 1    
    45   22   24 1    
    46   22   80 1    
    47   23   81 1    
    48   23   82 1    
    49   23   83 1    
    50   24   25 am   BACKBONE|DICT|INTERRES
    51   24   84 1    
    52   25   26 2    
    53   27   28 2    
    54   27   29 am   BACKBONE|DICT|INTERRES
    55   29   30 1    
    56   29   85 1    
    57   30   31 1    
    58   30   32 1    
    59   30   86 1    
    60   31   87 1    
    61   31   88 1    
    62   31   89 1    
    63   32   33 2    
    64   32   34 am   BACKBONE|DICT|INTERRES
    65   34   35 1    
    66   34   90 1    
    67   35   36 1    
    68   35   37 1    
    69   35   91 1    
    70   36   92 1    
    71   36   93 1    
    72   36   94 1    
    73   37   38 2    
    74   37   39 am   BACKBONE|DICT|INTERRES
    75   39   40 1    
    76   39   95 1    
    77   40   41 1    
    78   40   42 1    
    79   40   96 1    
    80   41   97 1    
    81   41   98 1    
    82   41   99 1    
    83   42   43 2    
    84   42   44 am   BACKBONE|DICT|INTERRES
    85   44   45 1    
    86   44  100 1    
    87   45   46 1    
    88   45   47 1    
    89   45  101 1    
    90   46  102 1    
    91   46  103 1    
    92   46  104 1    
    93   47   48 2    
    94   47   49 am   BACKBONE|DICT|INTERRES
    95   49   50 1    
    96   49  105 1    
    97   50   51 1    
    98   50   52 1    
    99   50  106 1    
   100   51  107 1    
   101   51  108 1    
   102   51  109 1    
   103   52   53 2    
   104   52   54 am   BACKBONE|DICT|INTERRES
   105   54   55 1    
   106   54  110 1    
   107   55   56 1    
   108   55   59 1    
   109   55  111 1    
   110   56   57 am   BACKBONE|DICT|INTERRES
   111   56   58 2    
   112   57  112 1    
   113   57  113 1    
   114   59   60 1    
   115   59  114 1    
   116   59  115 1    
   117   60   61 1    
   118   61  116 1    
   119   61  117 1    
@<TRIPOS>SUBSTRUCTURE
     1 UNK         1 GROUP             0       ****    0 ROOT    
