@<TRIPOS>MOLECULE
3R8
117   119    1
SMALL
USER_CHARGES


@<TRIPOS>ATOM
      1 CA         16.3930  -24.4689  -48.2244 C.3       0 UNK        -0.2013 
      2 C          17.6787  -24.2025  -47.4556 C.2       0 UNK         0.4866 
      3 O          17.9996  -23.0453  -47.1817 O.2       0 UNK        -0.5176 
      4 N          18.4216  -25.2639  -47.1153 N.am      1 UNK        -0.4884 
      5 CA         19.6514  -25.2047  -46.3163 C.3       1 UNK         0.0853 
      6 C6         20.5589  -26.4453  -46.5866 C.3       10 UNK        -0.0849 
      7 S7         20.3878  -27.8812  -45.4666 S.3       10 UNK        -0.2776 
      8 C8         18.8782  -28.6655  -46.1044 C.3       10 UNK         0.0316 
      9 C9         18.4417  -29.7845  -45.1762 C.ar      10 UNK        -0.0863 
     10 C10        18.7613  -31.1127  -45.4668 C.ar      10 UNK        -0.1009 
     11 C11        18.3925  -32.1380  -44.5912 C.ar      10 UNK        -0.0712 
     12 C12        17.7165  -31.8240  -43.4075 C.ar      10 UNK        -0.0894 
     13 C13        17.3913  -30.4964  -43.1078 C.ar      10 UNK        -0.0745 
     14 C14        17.7348  -29.4849  -44.0090 C.ar      10 UNK        -0.0972 
     15 C15        16.6722  -30.1536  -41.8110 C.3       10 UNK         0.0209 
     16 S16        17.8448  -29.7707  -40.4682 S.3       10 UNK        -0.2568 
     17 C17        18.3736  -28.0701  -40.8768 C.3       10 UNK        -0.0983 
     18 CA         19.7561  -28.0176  -41.5864 C.3       3 UNK         0.0876 
     19 N          19.9791  -26.7379  -42.2675 N.am      3 UNK        -0.4424 
     20 C          20.1934  -25.5430  -41.6954 C.2       2 UNK         0.4918 
     21 O          20.3017  -25.3852  -40.4781 O.2       2 UNK        -0.4875 
     22 CA         20.3171  -24.3067  -42.6163 C.3       2 UNK         0.0481 
     23 CB         21.5280  -23.4407  -42.2306 C.3       2 UNK        -0.1831 
     24 N          20.3846  -24.6033  -44.0528 N.am      2 UNK        -0.4498 
     25 C          19.3421  -24.9478  -44.8211 C.2       1 UNK         0.5027 
     26 O          18.2001  -25.1086  -44.3815 O.2       1 UNK        -0.4969 
     27 C          20.9667  -28.3855  -40.7071 C.2       3 UNK         0.5005 
     28 O          22.0246  -28.6824  -41.2627 O.2       3 UNK        -0.5279 
     29 N          20.8206  -28.3212  -39.3756 N.am      4 UNK        -0.4463 
     30 CA         21.8540  -28.5966  -38.3694 C.3       4 UNK         0.0283 
     31 CB         21.2666  -28.3566  -36.9697 C.3       4 UNK        -0.1875 
     32 C          23.1565  -27.7927  -38.5424 C.2       4 UNK         0.4949 
     33 O          24.2204  -28.2887  -38.1730 O.2       4 UNK        -0.5039 
     34 N          23.0535  -26.5840  -39.1096 N.am      5 UNK        -0.4663 
     35 CA         24.1857  -25.7050  -39.4096 C.3       5 UNK         0.0242 
     36 CB         23.7664  -24.2547  -39.1137 C.3       5 UNK        -0.1982 
     37 C          24.7129  -25.8593  -40.8515 C.2       5 UNK         0.5017 
     38 O          25.6042  -25.1004  -41.2353 O.2       5 UNK        -0.5012 
     39 N          24.1679  -26.8048  -41.6297 N.am      6 UNK        -0.4439 
     40 CA         24.5382  -27.0709  -43.0181 C.3       6 UNK         0.0297 
     41 CB         23.5191  -26.4018  -43.9617 C.3       6 UNK        -0.2006 
     42 C          24.6921  -28.5860  -43.2244 C.2       6 UNK         0.4892 
     43 O          25.7068  -29.1421  -42.8026 O.2       6 UNK        -0.5089 
     44 N          23.7119  -29.2214  -43.8837 N.am      7 UNK        -0.4243 
     45 CA         23.7198  -30.6392  -44.2614 C.3       7 UNK         0.0196 
     46 CB         22.5361  -30.9074  -45.2050 C.3       7 UNK        -0.2007 
     47 C          23.6782  -31.6234  -43.0786 C.2       7 UNK         0.5020 
     48 O          24.1420  -32.7550  -43.2281 O.2       7 UNK        -0.5147 
     49 N          23.1158  -31.1893  -41.9426 N.am      8 UNK        -0.4734 
     50 CA         22.8817  -31.9155  -40.6893 C.3       8 UNK         0.0238 
     51 CB         24.1977  -32.3831  -40.0376 C.3       8 UNK        -0.1912 
     52 C          21.8568  -33.0540  -40.8092 C.2       8 UNK         0.5038 
     53 O          20.8406  -33.0170  -40.1152 O.2       8 UNK        -0.5046 
     54 N          22.1391  -34.0304  -41.6801 N.am      9 UNK        -0.4200 
     55 CA         21.2974  -35.1983  -41.9935 C.3       9 UNK         0.0839 
     56 C          21.0335  -36.1592  -40.7927 C.2       9 UNK         0.5513 
     57 N          21.8737  -36.1699  -39.7646 N.am      9 UNK        -0.7519 
     58 O          20.0777  -36.9313  -40.8019 O.2       9 UNK        -0.4960 
     59 C59        20.0032  -34.8011  -42.7595 C.3       10 UNK        -0.0876 
     60 S60        20.3802  -34.0509  -44.3786 S.3       10 UNK        -0.2414 
     61 C61        18.7177  -33.5814  -44.9424 C.3       10 UNK         0.0169 
     62 H62        16.4170  -23.9559  -49.1854 H         1 UNK         0.0903 
     63 H63        16.2410  -25.5318  -48.4113 H         1 UNK         0.0903 
     64 H64        15.5367  -24.0982  -47.6614 H         1 UNK         0.0903 
     65 H65        18.0940  -26.1882  -47.3515 H         1 UNK         0.3096 
     66 H66        20.2029  -24.3278  -46.6651 H         1 UNK         0.1121 
     67 H67        20.4546  -26.7849  -47.6187 H         1 UNK         0.0849 
     68 H68        21.6009  -26.1311  -46.5090 H         1 UNK         0.0849 
     69 H69        18.0785  -27.9283  -46.1791 H         1 UNK         0.0865 
     70 H70        19.0567  -29.0425  -47.1127 H         1 UNK         0.0865 
     71 H71        19.3055  -31.3501  -46.3709 H         1 UNK         0.1346 
     72 H72        17.4436  -32.6121  -42.7192 H         1 UNK         0.1412 
     73 H73        17.4858  -28.4563  -43.7857 H         1 UNK         0.1426 
     74 H74        15.9876  -29.3173  -41.9604 H         1 UNK         0.0716 
     75 H75        16.0527  -30.9964  -41.5006 H         1 UNK         0.0716 
     76 H76        18.3616  -27.4622  -39.9710 H         1 UNK         0.0695 
     77 H77        17.6152  -27.6230  -41.5207 H         1 UNK         0.0695 
     78 H78        19.7534  -28.7665  -42.3785 H         1 UNK         0.0983 
     79 H79        19.9373  -26.7747  -43.2766 H         1 UNK         0.3095 
     80 H80        19.4217  -23.7056  -42.4453 H         1 UNK         0.0454 
     81 H81        21.6422  -22.5886  -42.9008 H         1 UNK         0.0851 
     82 H82        21.4061  -23.0347  -41.2262 H         1 UNK         0.0851 
     83 H83        22.4578  -24.0092  -42.2447 H         1 UNK         0.0851 
     84 H84        21.2933  -24.5120  -44.4834 H         1 UNK         0.2976 
     85 H85        19.9140  -28.0522  -39.0211 H         1 UNK         0.3116 
     86 H86        22.1128  -29.6524  -38.4428 H         1 UNK         0.0646 
     87 H87        20.4050  -28.9980  -36.7835 H         1 UNK         0.0847 
     88 H88        22.0024  -28.5752  -36.1943 H         1 UNK         0.0847 
     89 H89        20.9516  -27.3208  -36.8361 H         1 UNK         0.0847 
     90 H90        22.1365  -26.2610  -39.3968 H         1 UNK         0.3040 
     91 H91        25.0228  -25.9461  -38.7505 H         1 UNK         0.1015 
     92 H92        22.9092  -23.9540  -39.7131 H         1 UNK         0.0786 
     93 H93        24.5764  -23.5543  -39.3217 H         1 UNK         0.0786 
     94 H94        23.4974  -24.1300  -38.0646 H         1 UNK         0.0786 
     95 H95        23.4660  -27.4301  -41.2395 H         1 UNK         0.3172 
     96 H96        25.5195  -26.6433  -43.2345 H         1 UNK         0.0595 
     97 H97        22.4962  -26.6823  -43.7151 H         1 UNK         0.0839 
     98 H98        23.7038  -26.6701  -45.0030 H         1 UNK         0.0839 
     99 H99        23.5918  -25.3167  -43.8993 H         1 UNK         0.0839 
    100 H100       22.9035  -28.6879  -44.1695 H         1 UNK         0.2998 
    101 H101       24.6455  -30.8297  -44.8085 H         1 UNK         0.0822 
    102 H102       22.5364  -31.9427  -45.5490 H         1 UNK         0.0787 
    103 H103       21.5810  -30.7328  -44.7075 H         1 UNK         0.0787 
    104 H104       22.5757  -30.2722  -46.0900 H         1 UNK         0.0787 
    105 H105       22.7652  -30.2327  -41.9332 H         1 UNK         0.3055 
    106 H106       22.4355  -31.1842  -40.0182 H         1 UNK         0.1106 
    107 H107       24.0079  -32.8460  -39.0685 H         1 UNK         0.0828 
    108 H108       24.7262  -33.1150  -40.6486 H         1 UNK         0.0828 
    109 H109       24.8706  -31.5423  -39.8677 H         1 UNK         0.0828 
    110 H110       22.9785  -33.9175  -42.2411 H         1 UNK         0.2931 
    111 H111       21.8969  -35.8003  -42.6773 H         1 UNK         0.0412 
    112 H112       21.7065  -36.7998  -38.9955 H         1 UNK         0.3472 
    113 H113       22.6703  -35.5536  -39.7502 H         1 UNK         0.3472 
    114 H114       19.3785  -35.6760  -42.9472 H         1 UNK         0.0970 
    115 H115       19.3987  -34.1129  -42.1672 H         1 UNK         0.0970 
    116 H116       18.6692  -33.7134  -46.0243 H         1 UNK         0.0612 
    117 H117       17.9708  -34.2574  -44.5232 H         1 UNK         0.0612 
@<TRIPOS>BOND
     1    1    2 1    
     2    1   62 1    
     3    1   63 1    
     4    1   64 1    
     5    2    3 2    
     6    2    4 am   BACKBONE|DICT|INTERRES
     7    4    5 1    
     8    4   65 1    
     9    5    6 1    
    10    5   25 1    
    11    5   66 1    
    12    6    7 1    
    13    6   67 1    
    14    6   68 1    
    15    7    8 1    
    16    8    9 1    
    17    8   69 1    
    18    8   70 1    
    19    9   10 ar   
    20    9   14 ar   
    21   10   11 ar   
    22   10   71 1    
    23   11   12 ar   
    24   11   61 1    
    25   12   13 ar   
    26   12   72 1    
    27   13   14 ar   
    28   13   15 1    
    29   14   73 1    
    30   15   16 1    
    31   15   74 1    
    32   15   75 1    
    33   16   17 1    
    34   17   18 1    
    35   17   76 1    
    36   17   77 1    
    37   18   19 1    
    38   18   27 1    
    39   18   78 1    
    40   19   20 am   BACKBONE|DICT|INTERRES
    41   19   79 1    
    42   20   21 2    
    43   20   22 1    
    44   22   23 1    
    45   22   24 1    
    46   22   80 1    
    47   23   81 1    
    48   23   82 1    
    49   23   83 1    
    50   24   25 am   BACKBONE|DICT|INTERRES
    51   24   84 1    
    52   25   26 2    
    53   27   28 2    
    54   27   29 am   BACKBONE|DICT|INTERRES
    55   29   30 1    
    56   29   85 1    
    57   30   31 1    
    58   30   32 1    
    59   30   86 1    
    60   31   87 1    
    61   31   88 1    
    62   31   89 1    
    63   32   33 2    
    64   32   34 am   BACKBONE|DICT|INTERRES
    65   34   35 1    
    66   34   90 1    
    67   35   36 1    
    68   35   37 1    
    69   35   91 1    
    70   36   92 1    
    71   36   93 1    
    72   36   94 1    
    73   37   38 2    
    74   37   39 am   BACKBONE|DICT|INTERRES
    75   39   40 1    
    76   39   95 1    
    77   40   41 1    
    78   40   42 1    
    79   40   96 1    
    80   41   97 1    
    81   41   98 1    
    82   41   99 1    
    83   42   43 2    
    84   42   44 am   BACKBONE|DICT|INTERRES
    85   44   45 1    
    86   44  100 1    
    87   45   46 1    
    88   45   47 1    
    89   45  101 1    
    90   46  102 1    
    91   46  103 1    
    92   46  104 1    
    93   47   48 2    
    94   47   49 am   BACKBONE|DICT|INTERRES
    95   49   50 1    
    96   49  105 1    
    97   50   51 1    
    98   50   52 1    
    99   50  106 1    
   100   51  107 1    
   101   51  108 1    
   102   51  109 1    
   103   52   53 2    
   104   52   54 am   BACKBONE|DICT|INTERRES
   105   54   55 1    
   106   54  110 1    
   107   55   56 1    
   108   55   59 1    
   109   55  111 1    
   110   56   57 am   BACKBONE|DICT|INTERRES
   111   56   58 2    
   112   57  112 1    
   113   57  113 1    
   114   59   60 1    
   115   59  114 1    
   116   59  115 1    
   117   60   61 1    
   118   61  116 1    
   119   61  117 1    
@<TRIPOS>SUBSTRUCTURE
     1 UNK         1 GROUP             0       ****    0 ROOT    
