@<TRIPOS>MOLECULE
3R8
117   119    1
SMALL
USER_CHARGES


@<TRIPOS>ATOM
      1 CA         15.7728  -24.3467  -47.5489 C.3       0 UNK        -0.2013 
      2 C          16.2554  -25.4384  -46.6063 C.2       0 UNK         0.4866 
      3 O          17.4370  -25.4717  -46.2603 O.2       0 UNK        -0.5176 
      4 N          15.3510  -26.3289  -46.1786 N.am      1 UNK        -0.4884 
      5 CA         15.6189  -27.4529  -45.2720 C.3       1 UNK         0.0853 
      6 C6         14.5804  -28.5920  -45.4587 C.3       10 UNK        -0.0849 
      7 S7         15.0255  -29.6279  -46.8929 S.3       10 UNK        -0.2776 
      8 C8         15.8610  -31.0365  -46.0826 C.3       10 UNK         0.0316 
      9 C9         16.9914  -30.5944  -45.1591 C.ar      10 UNK        -0.0863 
     10 C10        16.8038  -30.5861  -43.7735 C.ar      10 UNK        -0.1009 
     11 C11        17.8245  -30.1627  -42.9188 C.ar      10 UNK        -0.0712 
     12 C12        19.0493  -29.7599  -43.4564 C.ar      10 UNK        -0.0894 
     13 C13        19.2534  -29.7676  -44.8399 C.ar      10 UNK        -0.0745 
     14 C14        18.2200  -30.1850  -45.6861 C.ar      10 UNK        -0.0972 
     15 C15        20.5966  -29.3578  -45.4253 C.3       10 UNK         0.0209 
     16 S16        20.8118  -27.5496  -45.4663 S.3       10 UNK        -0.2568 
     17 C17        21.6090  -27.2235  -43.8566 C.3       10 UNK        -0.0983 
     18 CA         20.9732  -26.0344  -43.0943 C.3       3 UNK         0.0876 
     19 N          19.5378  -26.2212  -42.8587 N.am      3 UNK        -0.4424 
     20 C          18.7128  -25.2936  -42.3520 C.2       2 UNK         0.4918 
     21 O          19.0719  -24.1609  -42.0255 O.2       2 UNK        -0.4875 
     22 CA         17.2313  -25.6884  -42.2574 C.3       2 UNK         0.0481 
     23 CB         16.3196  -24.5287  -41.8055 C.3       2 UNK        -0.1831 
     24 N          16.8089  -26.1965  -43.5580 N.am      2 UNK        -0.4498 
     25 C          15.7591  -26.9834  -43.8081 C.2       1 UNK         0.5027 
     26 O          14.9397  -27.3269  -42.9539 O.2       1 UNK        -0.4969 
     27 C          21.7354  -25.7868  -41.7761 C.2       3 UNK         0.5005 
     28 O          21.5044  -26.4991  -40.7957 O.2       3 UNK        -0.5279 
     29 N          22.6438  -24.8019  -41.7883 N.am      4 UNK        -0.4463 
     30 CA         23.4921  -24.4428  -40.6468 C.3       4 UNK         0.0283 
     31 CB         23.9170  -22.9710  -40.7828 C.3       4 UNK        -0.1875 
     32 C          24.7318  -25.3450  -40.5013 C.2       4 UNK         0.4949 
     33 O          25.3468  -25.3475  -39.4343 O.2       4 UNK        -0.5039 
     34 N          25.0960  -26.0689  -41.5694 N.am      5 UNK        -0.4663 
     35 CA         26.2278  -26.9963  -41.6088 C.3       5 UNK         0.0242 
     36 CB         26.4798  -27.4181  -43.0652 C.3       5 UNK        -0.1982 
     37 C          25.9947  -28.2259  -40.7143 C.2       5 UNK         0.5017 
     38 O          24.8898  -28.7751  -40.7058 O.2       5 UNK        -0.5012 
     39 N          27.0445  -28.6408  -39.9931 N.am      6 UNK        -0.4439 
     40 CA         27.0304  -29.7747  -39.0673 C.3       6 UNK         0.0297 
     41 CB         28.3670  -29.8344  -38.3098 C.3       6 UNK        -0.2006 
     42 C          26.7564  -31.1042  -39.7880 C.2       6 UNK         0.4892 
     43 O          27.4308  -31.4096  -40.7734 O.2       6 UNK        -0.5089 
     44 N          25.7696  -31.8521  -39.2747 N.am      7 UNK        -0.4243 
     45 CA         25.2920  -33.1632  -39.7388 C.3       7 UNK         0.0196 
     46 CB         26.4054  -34.2264  -39.6267 C.3       7 UNK        -0.2007 
     47 C          24.6332  -33.1721  -41.1346 C.2       7 UNK         0.5020 
     48 O          24.2650  -34.2476  -41.6087 O.2       7 UNK        -0.5147 
     49 N          24.4440  -32.0016  -41.7629 N.am      8 UNK        -0.4734 
     50 CA         23.8526  -31.8633  -43.1011 C.3       8 UNK         0.0238 
     51 CB         24.0854  -30.4339  -43.6120 C.3       8 UNK        -0.1912 
     52 C          22.3598  -32.2363  -43.1620 C.2       8 UNK         0.5038 
     53 O          21.8751  -32.6082  -44.2306 O.2       8 UNK        -0.5046 
     54 N          21.6767  -32.1532  -42.0138 N.am      9 UNK        -0.4200 
     55 CA         20.3077  -32.6420  -41.7981 C.3       9 UNK         0.0839 
     56 C          20.1987  -34.1945  -41.6779 C.2       9 UNK         0.5513 
     57 N          21.2940  -34.9440  -41.6035 N.am      9 UNK        -0.7519 
     58 O          19.0983  -34.7388  -41.6662 O.2       9 UNK        -0.4960 
     59 C59        19.6619  -31.9002  -40.5943 C.3       10 UNK        -0.0876 
     60 S60        17.8414  -31.7868  -40.6778 S.3       10 UNK        -0.2414 
     61 C61        17.5939  -30.1413  -41.4159 C.3       10 UNK         0.0169 
     62 H62        14.7101  -24.4398  -47.7721 H         1 UNK         0.0903 
     63 H63        15.9419  -23.3662  -47.1046 H         1 UNK         0.0903 
     64 H64        16.3220  -24.3943  -48.4888 H         1 UNK         0.0903 
     65 H65        14.3920  -26.2387  -46.4834 H         1 UNK         0.3096 
     66 H66        16.6023  -27.8540  -45.5268 H         1 UNK         0.1121 
     67 H67        14.5083  -29.2373  -44.5824 H         1 UNK         0.0849 
     68 H68        13.5769  -28.1878  -45.6011 H         1 UNK         0.0849 
     69 H69        16.2577  -31.7028  -46.8500 H         1 UNK         0.0865 
     70 H70        15.1219  -31.6196  -45.5306 H         1 UNK         0.0865 
     71 H71        15.8584  -30.9029  -43.3545 H         1 UNK         0.1346 
     72 H72        19.8463  -29.4584  -42.7927 H         1 UNK         0.1412 
     73 H73        18.3685  -30.1900  -46.7575 H         1 UNK         0.1426 
     74 H74        21.4045  -29.8229  -44.8618 H         1 UNK         0.0716 
     75 H75        20.6909  -29.7367  -46.4440 H         1 UNK         0.0716 
     76 H76        21.5919  -28.1231  -43.2408 H         1 UNK         0.0695 
     77 H77        22.6635  -27.0240  -44.0567 H         1 UNK         0.0695 
     78 H78        21.0725  -25.1436  -43.7188 H         1 UNK         0.0983 
     79 H79        19.1594  -27.1185  -43.1216 H         1 UNK         0.3095 
     80 H80        17.1612  -26.4948  -41.5245 H         1 UNK         0.0454 
     81 H81        16.3405  -23.7022  -42.5166 H         1 UNK         0.0851 
     82 H82        15.2842  -24.8512  -41.6976 H         1 UNK         0.0851 
     83 H83        16.6354  -24.1373  -40.8377 H         1 UNK         0.0851 
     84 H84        17.3810  -25.9202  -44.3539 H         1 UNK         0.2976 
     85 H85        22.7661  -24.2554  -42.6297 H         1 UNK         0.3116 
     86 H86        22.9081  -24.5410  -39.7289 H         1 UNK         0.0646 
     87 H87        24.5206  -22.6586  -39.9293 H         1 UNK         0.0847 
     88 H88        23.0514  -22.3094  -40.8225 H         1 UNK         0.0847 
     89 H89        24.5127  -22.8016  -41.6806 H         1 UNK         0.0847 
     90 H90        24.5179  -26.0226  -42.3940 H         1 UNK         0.3040 
     91 H91        27.1096  -26.4627  -41.2468 H         1 UNK         0.1015 
     92 H92        26.7784  -26.5664  -43.6768 H         1 UNK         0.0786 
     93 H93        25.5902  -27.8564  -43.5174 H         1 UNK         0.0786 
     94 H94        27.2794  -28.1577  -43.1290 H         1 UNK         0.0786 
     95 H95        27.9247  -28.1560  -40.0932 H         1 UNK         0.3172 
     96 H96        26.2361  -29.5932  -38.3398 H         1 UNK         0.0595 
     97 H97        28.3740  -30.6598  -37.5963 H         1 UNK         0.0839 
     98 H98        28.5471  -28.9194  -37.7451 H         1 UNK         0.0839 
     99 H99        29.2092  -29.9842  -38.9869 H         1 UNK         0.0839 
    100 H100       25.2729  -31.4792  -38.4765 H         1 UNK         0.2998 
    101 H101       24.5010  -33.4496  -39.0440 H         1 UNK         0.0822 
    102 H102       26.0149  -35.2259  -39.8224 H         1 UNK         0.0787 
    103 H103       27.2098  -34.0496  -40.3413 H         1 UNK         0.0787 
    104 H104       26.8410  -34.2420  -38.6276 H         1 UNK         0.0787 
    105 H105       24.7624  -31.1524  -41.3131 H         1 UNK         0.3055 
    106 H106       24.3783  -32.5508  -43.7678 H         1 UNK         0.1106 
    107 H107       23.7211  -30.3175  -44.6332 H         1 UNK         0.0828 
    108 H108       23.5783  -29.6936  -42.9921 H         1 UNK         0.0828 
    109 H109       25.1483  -30.1940  -43.6231 H         1 UNK         0.0828 
    110 H110       22.1782  -31.8496  -41.1928 H         1 UNK         0.2931 
    111 H111       19.7422  -32.3801  -42.6937 H         1 UNK         0.0412 
    112 H112       21.1942  -35.9443  -41.5332 H         1 UNK         0.3472 
    113 H113       22.2212  -34.5375  -41.6394 H         1 UNK         0.3472 
    114 H114       20.0517  -30.8837  -40.5217 H         1 UNK         0.0970 
    115 H115       19.9385  -32.3789  -39.6530 H         1 UNK         0.0970 
    116 H116       18.2417  -29.4090  -40.9315 H         1 UNK         0.0612 
    117 H117       16.5716  -29.8180  -41.2133 H         1 UNK         0.0612 
@<TRIPOS>BOND
     1    1    2 1    
     2    1   62 1    
     3    1   63 1    
     4    1   64 1    
     5    2    3 2    
     6    2    4 am   BACKBONE|DICT|INTERRES
     7    4    5 1    
     8    4   65 1    
     9    5    6 1    
    10    5   25 1    
    11    5   66 1    
    12    6    7 1    
    13    6   67 1    
    14    6   68 1    
    15    7    8 1    
    16    8    9 1    
    17    8   69 1    
    18    8   70 1    
    19    9   10 ar   
    20    9   14 ar   
    21   10   11 ar   
    22   10   71 1    
    23   11   12 ar   
    24   11   61 1    
    25   12   13 ar   
    26   12   72 1    
    27   13   14 ar   
    28   13   15 1    
    29   14   73 1    
    30   15   16 1    
    31   15   74 1    
    32   15   75 1    
    33   16   17 1    
    34   17   18 1    
    35   17   76 1    
    36   17   77 1    
    37   18   19 1    
    38   18   27 1    
    39   18   78 1    
    40   19   20 am   BACKBONE|DICT|INTERRES
    41   19   79 1    
    42   20   21 2    
    43   20   22 1    
    44   22   23 1    
    45   22   24 1    
    46   22   80 1    
    47   23   81 1    
    48   23   82 1    
    49   23   83 1    
    50   24   25 am   BACKBONE|DICT|INTERRES
    51   24   84 1    
    52   25   26 2    
    53   27   28 2    
    54   27   29 am   BACKBONE|DICT|INTERRES
    55   29   30 1    
    56   29   85 1    
    57   30   31 1    
    58   30   32 1    
    59   30   86 1    
    60   31   87 1    
    61   31   88 1    
    62   31   89 1    
    63   32   33 2    
    64   32   34 am   BACKBONE|DICT|INTERRES
    65   34   35 1    
    66   34   90 1    
    67   35   36 1    
    68   35   37 1    
    69   35   91 1    
    70   36   92 1    
    71   36   93 1    
    72   36   94 1    
    73   37   38 2    
    74   37   39 am   BACKBONE|DICT|INTERRES
    75   39   40 1    
    76   39   95 1    
    77   40   41 1    
    78   40   42 1    
    79   40   96 1    
    80   41   97 1    
    81   41   98 1    
    82   41   99 1    
    83   42   43 2    
    84   42   44 am   BACKBONE|DICT|INTERRES
    85   44   45 1    
    86   44  100 1    
    87   45   46 1    
    88   45   47 1    
    89   45  101 1    
    90   46  102 1    
    91   46  103 1    
    92   46  104 1    
    93   47   48 2    
    94   47   49 am   BACKBONE|DICT|INTERRES
    95   49   50 1    
    96   49  105 1    
    97   50   51 1    
    98   50   52 1    
    99   50  106 1    
   100   51  107 1    
   101   51  108 1    
   102   51  109 1    
   103   52   53 2    
   104   52   54 am   BACKBONE|DICT|INTERRES
   105   54   55 1    
   106   54  110 1    
   107   55   56 1    
   108   55   59 1    
   109   55  111 1    
   110   56   57 am   BACKBONE|DICT|INTERRES
   111   56   58 2    
   112   57  112 1    
   113   57  113 1    
   114   59   60 1    
   115   59  114 1    
   116   59  115 1    
   117   60   61 1    
   118   61  116 1    
   119   61  117 1    
@<TRIPOS>SUBSTRUCTURE
     1 UNK         1 GROUP             0       ****    0 ROOT    
