@<TRIPOS>MOLECULE
3R8
117   119    1
SMALL
USER_CHARGES


@<TRIPOS>ATOM
      1 CA         18.9490  -21.6221  -41.8470 C.3       0 UNK        -0.2013 
      2 C          18.1749  -22.7009  -42.5894 C.2       0 UNK         0.4866 
      3 O          17.0236  -22.9740  -42.2509 O.2       0 UNK        -0.5176 
      4 N          18.8021  -23.3211  -43.5922 N.am      1 UNK        -0.4884 
      5 CA         18.2499  -24.3853  -44.4282 C.3       1 UNK         0.0853 
      6 C6         18.2041  -25.7472  -43.6726 C.3       10 UNK        -0.0849 
      7 S7         16.9559  -26.8933  -44.3460 S.3       10 UNK        -0.2776 
      8 C8         17.0913  -28.2917  -43.1738 C.3       10 UNK         0.0316 
      9 C9         18.1566  -29.3459  -43.4942 C.ar      10 UNK        -0.0863 
     10 C10        18.1564  -30.5290  -42.7475 C.ar      10 UNK        -0.1009 
     11 C11        19.0727  -31.5503  -43.0159 C.ar      10 UNK        -0.0712 
     12 C12        20.0237  -31.3748  -44.0248 C.ar      10 UNK        -0.0894 
     13 C13        20.0443  -30.1977  -44.7772 C.ar      10 UNK        -0.0745 
     14 C14        19.1080  -29.1938  -44.5117 C.ar      10 UNK        -0.0972 
     15 C15        21.0445  -30.0241  -45.9123 C.3       10 UNK         0.0209 
     16 S16        22.7382  -29.6597  -45.3451 S.3       10 UNK        -0.2568 
     17 C17        22.5461  -28.2178  -44.2429 C.3       10 UNK        -0.0983 
     18 CA         22.5951  -26.8579  -44.9872 C.3       3 UNK         0.0876 
     19 N          21.3952  -26.6669  -45.7987 N.am      3 UNK        -0.4424 
     20 C          21.3285  -26.2371  -47.0624 C.2       2 UNK         0.4918 
     21 O          22.3023  -26.1090  -47.8043 O.2       2 UNK        -0.4875 
     22 CA         19.9180  -25.8656  -47.5732 C.3       2 UNK         0.0481 
     23 CB         19.3223  -27.0091  -48.4097 C.3       2 UNK        -0.1831 
     24 N          18.9926  -25.5309  -46.4803 N.am      2 UNK        -0.4498 
     25 C          19.0745  -24.4198  -45.7343 C.2       1 UNK         0.5027 
     26 O          19.8010  -23.4647  -46.0265 O.2       1 UNK        -0.4969 
     27 C          22.6563  -25.6918  -43.9760 C.2       3 UNK         0.5005 
     28 O          21.7244  -24.8831  -43.9069 O.2       3 UNK        -0.5279 
     29 N          23.7202  -25.6336  -43.1627 N.am      4 UNK        -0.4463 
     30 CA         23.8842  -24.6839  -42.0530 C.3       4 UNK         0.0283 
     31 CB         25.3615  -24.6732  -41.6190 C.3       4 UNK        -0.1875 
     32 C          22.9296  -25.0057  -40.8824 C.2       4 UNK         0.4949 
     33 O          23.3725  -25.4491  -39.8232 O.2       4 UNK        -0.5039 
     34 N          21.6241  -24.8463  -41.1373 N.am      5 UNK        -0.4663 
     35 CA         20.4490  -25.2221  -40.3369 C.3       5 UNK         0.0242 
     36 CB         20.4758  -24.5870  -38.9334 C.3       5 UNK        -0.1982 
     37 C          20.1972  -26.7407  -40.2677 C.2       5 UNK         0.5017 
     38 O          19.0368  -27.1491  -40.2418 O.2       5 UNK        -0.5012 
     39 N          21.2652  -27.5428  -40.2662 N.am      6 UNK        -0.4439 
     40 CA         21.2764  -29.0013  -40.2694 C.3       6 UNK         0.0297 
     41 CB         20.8803  -29.5356  -38.8777 C.3       6 UNK        -0.2006 
     42 C          22.6830  -29.4715  -40.6685 C.2       6 UNK         0.4892 
     43 O          23.5988  -28.6512  -40.7779 O.2       6 UNK        -0.5089 
     44 N          22.8325  -30.7839  -40.8585 N.am      7 UNK        -0.4243 
     45 CA         24.1006  -31.4643  -41.1111 C.3       7 UNK         0.0196 
     46 CB         24.4060  -31.4764  -42.6232 C.3       7 UNK        -0.2007 
     47 C          24.0317  -32.8558  -40.4649 C.2       7 UNK         0.5020 
     48 O          23.4653  -32.9884  -39.3773 O.2       7 UNK        -0.5147 
     49 N          24.5669  -33.8835  -41.1366 N.am      8 UNK        -0.4734 
     50 CA         24.4905  -35.2937  -40.7339 C.3       8 UNK         0.0238 
     51 CB         25.6372  -36.0686  -41.4105 C.3       8 UNK        -0.1912 
     52 C          23.1023  -35.8950  -41.0410 C.2       8 UNK         0.5038 
     53 O          22.9960  -36.8598  -41.8010 O.2       8 UNK        -0.5046 
     54 N          22.0628  -35.2720  -40.4777 N.am      9 UNK        -0.4200 
     55 CA         20.6460  -35.6041  -40.6588 C.3       9 UNK         0.0839 
     56 C          20.2714  -36.9845  -40.0560 C.2       9 UNK         0.5513 
     57 N          19.3397  -37.6974  -40.6738 N.am      9 UNK        -0.7519 
     58 O          20.7823  -37.3922  -39.0145 O.2       9 UNK        -0.4960 
     59 C59        19.7323  -34.4875  -40.0887 C.3       10 UNK        -0.0876 
     60 S60        20.0878  -32.8395  -40.7930 S.3       10 UNK        -0.2414 
     61 C61        19.0021  -32.8595  -42.2463 C.3       10 UNK         0.0169 
     62 H62        19.0279  -21.8778  -40.7906 H         1 UNK         0.0903 
     63 H63        19.9579  -21.5002  -42.2411 H         1 UNK         0.0903 
     64 H64        18.4338  -20.6655  -41.9294 H         1 UNK         0.0903 
     65 H65        19.7272  -23.0282  -43.8878 H         1 UNK         0.3096 
     66 H66        17.2351  -24.0918  -44.7068 H         1 UNK         0.1121 
     67 H67        17.9296  -25.5819  -42.6297 H         1 UNK         0.0849 
     68 H68        19.1843  -26.2252  -43.6378 H         1 UNK         0.0849 
     69 H69        17.2593  -27.9077  -42.1667 H         1 UNK         0.0865 
     70 H70        16.1194  -28.7868  -43.1484 H         1 UNK         0.0865 
     71 H71        17.4224  -30.6670  -41.9650 H         1 UNK         0.1346 
     72 H72        20.7366  -32.1600  -44.2368 H         1 UNK         0.1412 
     73 H73        19.1214  -28.3031  -45.1179 H         1 UNK         0.1426 
     74 H74        20.7224  -29.2397  -46.5958 H         1 UNK         0.0716 
     75 H75        21.0704  -30.9384  -46.5066 H         1 UNK         0.0716 
     76 H76        23.3673  -28.2889  -43.5286 H         1 UNK         0.0695 
     77 H77        21.6380  -28.3133  -43.6462 H         1 UNK         0.0695 
     78 H78        23.4899  -26.8100  -45.6116 H         1 UNK         0.0983 
     79 H79        20.5416  -26.6306  -45.2674 H         1 UNK         0.3095 
     80 H80        20.0220  -24.9914  -48.2193 H         1 UNK         0.0454 
     81 H81        18.3792  -26.7120  -48.8684 H         1 UNK         0.0851 
     82 H82        19.1350  -27.9001  -47.8104 H         1 UNK         0.0851 
     83 H83        19.9969  -27.2947  -49.2181 H         1 UNK         0.0851 
     84 H84        18.3234  -26.2391  -46.2052 H         1 UNK         0.2976 
     85 H85        24.4328  -26.3452  -43.2447 H         1 UNK         0.3116 
     86 H86        23.6365  -23.6825  -42.4118 H         1 UNK         0.0646 
     87 H87        26.0150  -24.3747  -42.4387 H         1 UNK         0.0847 
     88 H88        25.6875  -25.6534  -41.2681 H         1 UNK         0.0847 
     89 H89        25.5230  -23.9661  -40.8043 H         1 UNK         0.0847 
     90 H90        21.4142  -24.5826  -42.0986 H         1 UNK         0.3040 
     91 H91        19.5930  -24.7998  -40.8648 H         1 UNK         0.1015 
     92 H92        21.2726  -24.9971  -38.3126 H         1 UNK         0.0786 
     93 H93        19.5360  -24.7682  -38.4102 H         1 UNK         0.0786 
     94 H94        20.6134  -23.5072  -38.9890 H         1 UNK         0.0786 
     95 H95        22.1914  -27.1224  -40.2795 H         1 UNK         0.3172 
     96 H96        20.5699  -29.3607  -41.0211 H         1 UNK         0.0595 
     97 H97        20.9063  -30.6250  -38.8439 H         1 UNK         0.0839 
     98 H98        19.8678  -29.2356  -38.6080 H         1 UNK         0.0839 
     99 H99        21.5551  -29.1704  -38.1025 H         1 UNK         0.0839 
    100 H100       22.0402  -31.3958  -40.7023 H         1 UNK         0.2998 
    101 H101       24.9030  -30.9298  -40.5981 H         1 UNK         0.0822 
    102 H102       24.4595  -30.4608  -43.0135 H         1 UNK         0.0787 
    103 H103       25.3693  -31.9398  -42.8384 H         1 UNK         0.0787 
    104 H104       23.6384  -32.0076  -43.1878 H         1 UNK         0.0787 
    105 H105       24.9805  -33.6972  -42.0392 H         1 UNK         0.3055 
    106 H106       24.6361  -35.3620  -39.6532 H         1 UNK         0.1106 
    107 H107       26.6094  -35.6587  -41.1363 H         1 UNK         0.0828 
    108 H108       25.5566  -36.0445  -42.4980 H         1 UNK         0.0828 
    109 H109       25.6331  -37.1163  -41.1065 H         1 UNK         0.0828 
    110 H110       22.2628  -34.4737  -39.8847 H         1 UNK         0.2931 
    111 H111       20.4747  -35.6571  -41.7360 H         1 UNK         0.0412 
    112 H112       19.0698  -38.5899  -40.2895 H         1 UNK         0.3472 
    113 H113       18.9081  -37.3683  -41.5238 H         1 UNK         0.3472 
    114 H114       19.8518  -34.4195  -39.0056 H         1 UNK         0.0970 
    115 H115       18.6805  -34.7265  -40.2572 H         1 UNK         0.0970 
    116 H116       19.2848  -33.6890  -42.8963 H         1 UNK         0.0612 
    117 H117       17.9757  -33.0510  -41.9295 H         1 UNK         0.0612 
@<TRIPOS>BOND
     1    1    2 1    
     2    1   62 1    
     3    1   63 1    
     4    1   64 1    
     5    2    3 2    
     6    2    4 am   BACKBONE|DICT|INTERRES
     7    4    5 1    
     8    4   65 1    
     9    5    6 1    
    10    5   25 1    
    11    5   66 1    
    12    6    7 1    
    13    6   67 1    
    14    6   68 1    
    15    7    8 1    
    16    8    9 1    
    17    8   69 1    
    18    8   70 1    
    19    9   10 ar   
    20    9   14 ar   
    21   10   11 ar   
    22   10   71 1    
    23   11   12 ar   
    24   11   61 1    
    25   12   13 ar   
    26   12   72 1    
    27   13   14 ar   
    28   13   15 1    
    29   14   73 1    
    30   15   16 1    
    31   15   74 1    
    32   15   75 1    
    33   16   17 1    
    34   17   18 1    
    35   17   76 1    
    36   17   77 1    
    37   18   19 1    
    38   18   27 1    
    39   18   78 1    
    40   19   20 am   BACKBONE|DICT|INTERRES
    41   19   79 1    
    42   20   21 2    
    43   20   22 1    
    44   22   23 1    
    45   22   24 1    
    46   22   80 1    
    47   23   81 1    
    48   23   82 1    
    49   23   83 1    
    50   24   25 am   BACKBONE|DICT|INTERRES
    51   24   84 1    
    52   25   26 2    
    53   27   28 2    
    54   27   29 am   BACKBONE|DICT|INTERRES
    55   29   30 1    
    56   29   85 1    
    57   30   31 1    
    58   30   32 1    
    59   30   86 1    
    60   31   87 1    
    61   31   88 1    
    62   31   89 1    
    63   32   33 2    
    64   32   34 am   BACKBONE|DICT|INTERRES
    65   34   35 1    
    66   34   90 1    
    67   35   36 1    
    68   35   37 1    
    69   35   91 1    
    70   36   92 1    
    71   36   93 1    
    72   36   94 1    
    73   37   38 2    
    74   37   39 am   BACKBONE|DICT|INTERRES
    75   39   40 1    
    76   39   95 1    
    77   40   41 1    
    78   40   42 1    
    79   40   96 1    
    80   41   97 1    
    81   41   98 1    
    82   41   99 1    
    83   42   43 2    
    84   42   44 am   BACKBONE|DICT|INTERRES
    85   44   45 1    
    86   44  100 1    
    87   45   46 1    
    88   45   47 1    
    89   45  101 1    
    90   46  102 1    
    91   46  103 1    
    92   46  104 1    
    93   47   48 2    
    94   47   49 am   BACKBONE|DICT|INTERRES
    95   49   50 1    
    96   49  105 1    
    97   50   51 1    
    98   50   52 1    
    99   50  106 1    
   100   51  107 1    
   101   51  108 1    
   102   51  109 1    
   103   52   53 2    
   104   52   54 am   BACKBONE|DICT|INTERRES
   105   54   55 1    
   106   54  110 1    
   107   55   56 1    
   108   55   59 1    
   109   55  111 1    
   110   56   57 am   BACKBONE|DICT|INTERRES
   111   56   58 2    
   112   57  112 1    
   113   57  113 1    
   114   59   60 1    
   115   59  114 1    
   116   59  115 1    
   117   60   61 1    
   118   61  116 1    
   119   61  117 1    
@<TRIPOS>SUBSTRUCTURE
     1 UNK         1 GROUP             0       ****    0 ROOT    
