@<TRIPOS>MOLECULE
3R8
117   119    1
SMALL
USER_CHARGES


@<TRIPOS>ATOM
      1 CA         16.5517  -32.4447  -46.1258 C.3       0 UNK        -0.2013 
      2 C          16.5868  -30.9238  -46.1283 C.2       0 UNK         0.4866 
      3 O          16.2826  -30.3101  -47.1516 O.2       0 UNK        -0.5176 
      4 N          16.9453  -30.3188  -44.9878 N.am      1 UNK        -0.4884 
      5 CA         17.0970  -28.8725  -44.7837 C.3       1 UNK         0.0853 
      6 C6         15.7525  -28.0991  -44.9410 C.3       10 UNK        -0.0849 
      7 S7         15.7057  -26.4117  -44.2313 S.3       10 UNK        -0.2776 
      8 C8         15.4520  -26.6998  -42.4491 C.3       10 UNK         0.0316 
      9 C9         16.7718  -26.9298  -41.7257 C.ar      10 UNK        -0.0863 
     10 C10        17.0771  -28.1830  -41.1893 C.ar      10 UNK        -0.1009 
     11 C11        18.3075  -28.4074  -40.5644 C.ar      10 UNK        -0.0712 
     12 C12        19.2222  -27.3556  -40.4463 C.ar      10 UNK        -0.0894 
     13 C13        18.9180  -26.0875  -40.9507 C.ar      10 UNK        -0.0745 
     14 C14        17.6892  -25.8831  -41.5879 C.ar      10 UNK        -0.0972 
     15 C15        19.8922  -24.9284  -40.7656 C.3       10 UNK         0.0209 
     16 S16        20.3591  -24.1413  -42.3422 S.3       10 UNK        -0.2568 
     17 C17        21.8691  -25.0521  -42.8160 C.3       10 UNK        -0.0983 
     18 CA         21.6100  -26.4731  -43.3872 C.3       3 UNK         0.0876 
     19 N          20.5577  -26.5099  -44.4090 N.am      3 UNK        -0.4424 
     20 C          20.6051  -26.0318  -45.6611 C.2       2 UNK         0.4918 
     21 O          21.5849  -25.4602  -46.1401 O.2       2 UNK        -0.4875 
     22 CA         19.3399  -26.2110  -46.5306 C.3       2 UNK         0.0481 
     23 CB         19.6847  -26.7434  -47.9370 C.3       2 UNK        -0.1831 
     24 N          18.2767  -27.0171  -45.9081 N.am      2 UNK        -0.4498 
     25 C          18.3083  -28.3150  -45.5722 C.2       1 UNK         0.5027 
     26 O          19.2857  -29.0395  -45.7777 O.2       1 UNK        -0.4969 
     27 C          22.9109  -27.1744  -43.8467 C.2       3 UNK         0.5005 
     28 O          24.0082  -26.7070  -43.5280 O.2       3 UNK        -0.5279 
     29 N          22.7744  -28.2741  -44.6072 N.am      4 UNK        -0.4463 
     30 CA         23.8856  -29.0845  -45.1140 C.3       4 UNK         0.0283 
     31 CB         23.3522  -30.1454  -46.0915 C.3       4 UNK        -0.1875 
     32 C          24.6667  -29.7230  -43.9539 C.2       4 UNK         0.4949 
     33 O          24.1234  -30.5791  -43.2563 O.2       4 UNK        -0.5039 
     34 N          25.8987  -29.2436  -43.7340 N.am      5 UNK        -0.4663 
     35 CA         26.7390  -29.5203  -42.5605 C.3       5 UNK         0.0242 
     36 CB         27.2386  -30.9811  -42.5617 C.3       5 UNK        -0.1982 
     37 C          26.0600  -29.0949  -41.2396 C.2       5 UNK         0.5017 
     38 O          26.1319  -29.8149  -40.2414 O.2       5 UNK        -0.5012 
     39 N          25.4069  -27.9227  -41.2748 N.am      6 UNK        -0.4439 
     40 CA         24.6757  -27.2723  -40.1874 C.3       6 UNK         0.0297 
     41 CB         25.6360  -26.8414  -39.0537 C.3       6 UNK        -0.2006 
     42 C          23.4763  -28.1209  -39.7301 C.2       6 UNK         0.4892 
     43 O          22.5632  -28.3445  -40.5251 O.2       6 UNK        -0.5089 
     44 N          23.4906  -28.5594  -38.4652 N.am      7 UNK        -0.4243 
     45 CA         22.4151  -29.2999  -37.8026 C.3       7 UNK         0.0196 
     46 CB         22.6761  -29.2909  -36.2866 C.3       7 UNK        -0.2007 
     47 C          22.2064  -30.7404  -38.3074 C.2       7 UNK         0.5020 
     48 O          21.2122  -31.3555  -37.9218 O.2       7 UNK        -0.5147 
     49 N          23.1263  -31.2679  -39.1287 N.am      8 UNK        -0.4734 
     50 CA         23.0080  -32.5905  -39.7491 C.3       8 UNK         0.0238 
     51 CB         24.3523  -32.9927  -40.3767 C.3       8 UNK        -0.1912 
     52 C          21.8650  -32.6386  -40.7781 C.2       8 UNK         0.5038 
     53 O          20.9514  -33.4488  -40.6223 O.2       8 UNK        -0.5046 
     54 N          21.9501  -31.7582  -41.7851 N.am      9 UNK        -0.4200 
     55 CA         20.9778  -31.4982  -42.8591 C.3       9 UNK         0.0839 
     56 C          20.4707  -32.7200  -43.6830 C.2       9 UNK         0.5513 
     57 N          21.2236  -33.8103  -43.7611 N.am      9 UNK        -0.7519 
     58 O          19.4075  -32.6691  -44.2956 O.2       9 UNK        -0.4960 
     59 C59        19.8903  -30.4697  -42.4545 C.3       10 UNK        -0.0876 
     60 S60        18.6064  -31.0725  -41.3065 S.3       10 UNK        -0.2414 
     61 C61        18.6491  -29.7872  -40.0165 C.3       10 UNK         0.0169 
     62 H62        16.7145  -32.8536  -45.1285 H         1 UNK         0.0903 
     63 H63        15.5865  -32.8013  -46.4843 H         1 UNK         0.0903 
     64 H64        17.3281  -32.8370  -46.7821 H         1 UNK         0.0903 
     65 H65        17.2362  -30.8968  -44.2103 H         1 UNK         0.3096 
     66 H66        17.3961  -28.7813  -43.7428 H         1 UNK         0.1121 
     67 H67        14.9469  -28.6706  -44.4770 H         1 UNK         0.0849 
     68 H68        15.4818  -28.0271  -45.9958 H         1 UNK         0.0849 
     69 H69        14.9640  -25.8239  -42.0190 H         1 UNK         0.0865 
     70 H70        14.7642  -27.5334  -42.2990 H         1 UNK         0.0865 
     71 H71        16.3698  -28.9964  -41.2797 H         1 UNK         0.1346 
     72 H72        20.1687  -27.5224  -39.9514 H         1 UNK         0.1412 
     73 H73        17.4485  -24.9059  -41.9847 H         1 UNK         0.1426 
     74 H74        20.7898  -25.2466  -40.2328 H         1 UNK         0.0716 
     75 H75        19.4144  -24.1779  -40.1346 H         1 UNK         0.0716 
     76 H76        22.5279  -25.1032  -41.9476 H         1 UNK         0.0695 
     77 H77        22.3927  -24.4432  -43.5553 H         1 UNK         0.0695 
     78 H78        21.2397  -27.0844  -42.5636 H         1 UNK         0.0983 
     79 H79        19.6880  -26.9255  -44.1138 H         1 UNK         0.3095 
     80 H80        18.9182  -25.2124  -46.6520 H         1 UNK         0.0454 
     81 H81        20.1844  -27.7115  -47.8951 H         1 UNK         0.0851 
     82 H82        20.3526  -26.0593  -48.4617 H         1 UNK         0.0851 
     83 H83        18.7906  -26.8534  -48.5504 H         1 UNK         0.0851 
     84 H84        17.4428  -26.5031  -45.6445 H         1 UNK         0.2976 
     85 H85        21.8417  -28.5839  -44.8416 H         1 UNK         0.3116 
     86 H86        24.5526  -28.4233  -45.6712 H         1 UNK         0.0646 
     87 H87        22.8316  -29.6852  -46.9315 H         1 UNK         0.0847 
     88 H88        24.1706  -30.7371  -46.5035 H         1 UNK         0.0847 
     89 H89        22.6631  -30.8401  -45.6124 H         1 UNK         0.0847 
     90 H90        26.2418  -28.5230  -44.3552 H         1 UNK         0.3040 
     91 H91        27.6182  -28.8805  -42.6531 H         1 UNK         0.1015 
     92 H92        26.4204  -31.6960  -42.4932 H         1 UNK         0.0786 
     93 H93        27.9065  -31.1687  -41.7200 H         1 UNK         0.0786 
     94 H94        27.7967  -31.2040  -43.4708 H         1 UNK         0.0786 
     95 H95        25.2898  -27.4763  -42.1805 H         1 UNK         0.3172 
     96 H96        24.2507  -26.3624  -40.6130 H         1 UNK         0.0595 
     97 H97        26.1342  -27.6884  -38.5810 H         1 UNK         0.0839 
     98 H98        25.1068  -26.2881  -38.2765 H         1 UNK         0.0839 
     99 H99        26.4136  -26.1798  -39.4359 H         1 UNK         0.0839 
    100 H100       24.3025  -28.3489  -37.9030 H         1 UNK         0.2998 
    101 H101       21.4820  -28.7639  -37.9892 H         1 UNK         0.0822 
    102 H102       21.8709  -29.7912  -35.7464 H         1 UNK         0.0787 
    103 H103       23.6048  -29.8045  -36.0349 H         1 UNK         0.0787 
    104 H104       22.7371  -28.2737  -35.8990 H         1 UNK         0.0787 
    105 H105       23.9177  -30.6980  -39.3984 H         1 UNK         0.3055 
    106 H106       22.7735  -33.3131  -38.9639 H         1 UNK         0.1106 
    107 H107       24.2859  -33.9720  -40.8522 H         1 UNK         0.0828 
    108 H108       24.6704  -32.2798  -41.1362 H         1 UNK         0.0828 
    109 H109       25.1396  -33.0492  -39.6248 H         1 UNK         0.0828 
    110 H110       22.7935  -31.1997  -41.8605 H         1 UNK         0.2931 
    111 H111       21.5740  -30.9655  -43.5968 H         1 UNK         0.0412 
    112 H112       20.9009  -34.5954  -44.3040 H         1 UNK         0.3472 
    113 H113       22.0997  -33.8605  -43.2668 H         1 UNK         0.3472 
    114 H114       20.3816  -29.5955  -42.0249 H         1 UNK         0.0970 
    115 H115       19.3888  -30.1047  -43.3481 H         1 UNK         0.0970 
    116 H116       19.6370  -29.7881  -39.5558 H         1 UNK         0.0612 
    117 H117       17.9386  -30.0478  -39.2312 H         1 UNK         0.0612 
@<TRIPOS>BOND
     1    1    2 1    
     2    1   62 1    
     3    1   63 1    
     4    1   64 1    
     5    2    3 2    
     6    2    4 am   BACKBONE|DICT|INTERRES
     7    4    5 1    
     8    4   65 1    
     9    5    6 1    
    10    5   25 1    
    11    5   66 1    
    12    6    7 1    
    13    6   67 1    
    14    6   68 1    
    15    7    8 1    
    16    8    9 1    
    17    8   69 1    
    18    8   70 1    
    19    9   10 ar   
    20    9   14 ar   
    21   10   11 ar   
    22   10   71 1    
    23   11   12 ar   
    24   11   61 1    
    25   12   13 ar   
    26   12   72 1    
    27   13   14 ar   
    28   13   15 1    
    29   14   73 1    
    30   15   16 1    
    31   15   74 1    
    32   15   75 1    
    33   16   17 1    
    34   17   18 1    
    35   17   76 1    
    36   17   77 1    
    37   18   19 1    
    38   18   27 1    
    39   18   78 1    
    40   19   20 am   BACKBONE|DICT|INTERRES
    41   19   79 1    
    42   20   21 2    
    43   20   22 1    
    44   22   23 1    
    45   22   24 1    
    46   22   80 1    
    47   23   81 1    
    48   23   82 1    
    49   23   83 1    
    50   24   25 am   BACKBONE|DICT|INTERRES
    51   24   84 1    
    52   25   26 2    
    53   27   28 2    
    54   27   29 am   BACKBONE|DICT|INTERRES
    55   29   30 1    
    56   29   85 1    
    57   30   31 1    
    58   30   32 1    
    59   30   86 1    
    60   31   87 1    
    61   31   88 1    
    62   31   89 1    
    63   32   33 2    
    64   32   34 am   BACKBONE|DICT|INTERRES
    65   34   35 1    
    66   34   90 1    
    67   35   36 1    
    68   35   37 1    
    69   35   91 1    
    70   36   92 1    
    71   36   93 1    
    72   36   94 1    
    73   37   38 2    
    74   37   39 am   BACKBONE|DICT|INTERRES
    75   39   40 1    
    76   39   95 1    
    77   40   41 1    
    78   40   42 1    
    79   40   96 1    
    80   41   97 1    
    81   41   98 1    
    82   41   99 1    
    83   42   43 2    
    84   42   44 am   BACKBONE|DICT|INTERRES
    85   44   45 1    
    86   44  100 1    
    87   45   46 1    
    88   45   47 1    
    89   45  101 1    
    90   46  102 1    
    91   46  103 1    
    92   46  104 1    
    93   47   48 2    
    94   47   49 am   BACKBONE|DICT|INTERRES
    95   49   50 1    
    96   49  105 1    
    97   50   51 1    
    98   50   52 1    
    99   50  106 1    
   100   51  107 1    
   101   51  108 1    
   102   51  109 1    
   103   52   53 2    
   104   52   54 am   BACKBONE|DICT|INTERRES
   105   54   55 1    
   106   54  110 1    
   107   55   56 1    
   108   55   59 1    
   109   55  111 1    
   110   56   57 am   BACKBONE|DICT|INTERRES
   111   56   58 2    
   112   57  112 1    
   113   57  113 1    
   114   59   60 1    
   115   59  114 1    
   116   59  115 1    
   117   60   61 1    
   118   61  116 1    
   119   61  117 1    
@<TRIPOS>SUBSTRUCTURE
     1 UNK         1 GROUP             0       ****    0 ROOT    
