@<TRIPOS>MOLECULE
3R8
117   119    1
SMALL
USER_CHARGES


@<TRIPOS>ATOM
      1 CA         14.0066  -21.7443  -46.1926 C.3       0 UNK        -0.2013 
      2 C          15.3526  -22.4537  -46.2007 C.2       0 UNK         0.4866 
      3 O          16.3247  -21.9157  -46.7313 O.2       0 UNK        -0.5176 
      4 N          15.4166  -23.6547  -45.6170 N.am      1 UNK        -0.4884 
      5 CA         16.6207  -24.4754  -45.5082 C.3       1 UNK         0.0853 
      6 C6         16.7674  -25.4530  -46.7138 C.3       10 UNK        -0.0849 
      7 S7         18.4769  -25.7326  -47.3085 S.3       10 UNK        -0.2776 
      8 C8         19.4346  -26.2749  -45.8515 C.3       10 UNK         0.0316 
      9 C9         19.4095  -27.7808  -45.6002 C.ar      10 UNK        -0.0863 
     10 C10        20.6165  -28.4741  -45.4664 C.ar      10 UNK        -0.1009 
     11 C11        20.6342  -29.8287  -45.1235 C.ar      10 UNK        -0.0712 
     12 C12        19.4254  -30.5113  -44.9645 C.ar      10 UNK        -0.0894 
     13 C13        18.2100  -29.8312  -45.0803 C.ar      10 UNK        -0.0745 
     14 C14        18.2088  -28.4703  -45.4030 C.ar      10 UNK        -0.0972 
     15 C15        16.9033  -30.5421  -44.7614 C.3       10 UNK         0.0209 
     16 S16        16.1433  -29.8990  -43.2314 S.3       10 UNK        -0.2568 
     17 C17        17.4256  -30.2337  -41.9699 C.3       10 UNK        -0.0983 
     18 CA         18.4499  -29.0757  -41.8029 C.3       3 UNK         0.0876 
     19 N          17.8025  -27.7733  -41.5999 N.am      3 UNK        -0.4424 
     20 C          18.3276  -26.5950  -41.9534 C.2       2 UNK         0.4918 
     21 O          19.4850  -26.4532  -42.3565 O.2       2 UNK        -0.4875 
     22 CA         17.4168  -25.3641  -41.8450 C.3       2 UNK         0.0481 
     23 CB         17.9840  -24.3550  -40.8334 C.3       2 UNK        -0.1831 
     24 N          17.2936  -24.7264  -43.1574 N.am      2 UNK        -0.4498 
     25 C          16.5225  -25.1913  -44.1507 C.2       1 UNK         0.5027 
     26 O          15.7256  -26.1218  -44.0178 O.2       1 UNK        -0.4969 
     27 C          19.5393  -29.3766  -40.7513 C.2       3 UNK         0.5005 
     28 O          19.4980  -30.4175  -40.0927 O.2       3 UNK        -0.5279 
     29 N          20.4983  -28.4541  -40.6199 N.am      4 UNK        -0.4463 
     30 CA         21.6885  -28.5656  -39.7779 C.3       4 UNK         0.0283 
     31 CB         21.3541  -28.1424  -38.3342 C.3       4 UNK        -0.1875 
     32 C          22.8706  -27.7709  -40.3646 C.2       4 UNK         0.4949 
     33 O          23.8010  -27.4354  -39.6309 O.2       4 UNK        -0.5039 
     34 N          22.8197  -27.4536  -41.6683 N.am      5 UNK        -0.4663 
     35 CA         23.8475  -26.6703  -42.3627 C.3       5 UNK         0.0242 
     36 CB         23.2842  -26.1558  -43.6957 C.3       5 UNK        -0.1982 
     37 C          25.1468  -27.4595  -42.5979 C.2       5 UNK         0.5017 
     38 O          26.2260  -26.8682  -42.5636 O.2       5 UNK        -0.5012 
     39 N          25.0197  -28.7749  -42.8119 N.am      6 UNK        -0.4439 
     40 CA         26.1202  -29.7228  -42.9781 C.3       6 UNK         0.0297 
     41 CB         25.9166  -30.5168  -44.2827 C.3       6 UNK        -0.2006 
     42 C          26.1865  -30.6235  -41.7361 C.2       6 UNK         0.4892 
     43 O          26.0488  -31.8441  -41.8461 O.2       6 UNK        -0.5089 
     44 N          26.3638  -29.9869  -40.5686 N.am      7 UNK        -0.4243 
     45 CA         26.4031  -30.5799  -39.2283 C.3       7 UNK         0.0196 
     46 CB         27.6707  -31.4459  -39.0438 C.3       7 UNK        -0.2007 
     47 C          25.0905  -31.3143  -38.9030 C.2       7 UNK         0.5020 
     48 O          24.1032  -30.6603  -38.5729 O.2       7 UNK        -0.5147 
     49 N          25.0939  -32.6480  -39.0057 N.am      8 UNK        -0.4734 
     50 CA         23.9132  -33.4904  -38.8104 C.3       8 UNK         0.0238 
     51 CB         24.3718  -34.8994  -38.3976 C.3       8 UNK        -0.1912 
     52 C          23.0026  -33.5655  -40.0501 C.2       8 UNK         0.5038 
     53 O          21.8479  -33.9673  -39.9021 O.2       8 UNK        -0.5046 
     54 N          23.5289  -33.2252  -41.2385 N.am      9 UNK        -0.4200 
     55 CA         22.8634  -33.3663  -42.5484 C.3       9 UNK         0.0839 
     56 C          22.5073  -34.8365  -42.9392 C.2       9 UNK         0.5513 
     57 N          23.1617  -35.8440  -42.3732 N.am      9 UNK        -0.7519 
     58 O          21.6568  -35.0752  -43.7929 O.2       9 UNK        -0.4960 
     59 C59        21.6828  -32.3652  -42.7356 C.3       10 UNK        -0.0876 
     60 S60        22.2877  -30.6789  -43.0799 S.3       10 UNK        -0.2414 
     61 C61        21.9601  -30.5306  -44.8693 C.3       10 UNK         0.0169 
     62 H62        13.2362  -22.3352  -45.6974 H         1 UNK         0.0903 
     63 H63        14.0884  -20.7900  -45.6729 H         1 UNK         0.0903 
     64 H64        13.6795  -21.5493  -47.2136 H         1 UNK         0.0903 
     65 H65        14.5968  -24.0469  -45.1708 H         1 UNK         0.3096 
     66 H66        17.4912  -23.8153  -45.4853 H         1 UNK         0.1121 
     67 H67        16.2493  -25.0291  -47.5757 H         1 UNK         0.0849 
     68 H68        16.2590  -26.4029  -46.5512 H         1 UNK         0.0849 
     69 H69        20.4635  -25.9516  -46.0172 H         1 UNK         0.0865 
     70 H70        19.1218  -25.7495  -44.9539 H         1 UNK         0.0865 
     71 H71        21.5506  -27.9488  -45.5954 H         1 UNK         0.1346 
     72 H72        19.4285  -31.5567  -44.6925 H         1 UNK         0.1412 
     73 H73        17.2671  -27.9470  -45.4425 H         1 UNK         0.1426 
     74 H74        17.0547  -31.6181  -44.6622 H         1 UNK         0.0716 
     75 H75        16.2070  -30.4029  -45.5895 H         1 UNK         0.0716 
     76 H76        17.9371  -31.1626  -42.2296 H         1 UNK         0.0695 
     77 H77        16.9148  -30.4231  -41.0242 H         1 UNK         0.0695 
     78 H78        19.0077  -29.0053  -42.7344 H         1 UNK         0.0983 
     79 H79        16.8467  -27.8057  -41.2762 H         1 UNK         0.3095 
     80 H80        16.4266  -25.6713  -41.5012 H         1 UNK         0.0454 
     81 H81        18.9748  -24.0017  -41.1226 H         1 UNK         0.0851 
     82 H82        18.0760  -24.8055  -39.8443 H         1 UNK         0.0851 
     83 H83        17.3340  -23.4858  -40.7331 H         1 UNK         0.0851 
     84 H84        17.9173  -23.9525  -43.3368 H         1 UNK         0.2976 
     85 H85        20.4076  -27.6055  -41.1748 H         1 UNK         0.3116 
     86 H86        22.0035  -29.6107  -39.7692 H         1 UNK         0.0646 
     87 H87        21.0593  -27.0939  -38.2819 H         1 UNK         0.0847 
     88 H88        22.2155  -28.2764  -37.6783 H         1 UNK         0.0847 
     89 H89        20.5433  -28.7419  -37.9208 H         1 UNK         0.0847 
     90 H90        22.0424  -27.7812  -42.2238 H         1 UNK         0.3040 
     91 H91        24.0922  -25.8058  -41.7410 H         1 UNK         0.1015 
     92 H92        23.1328  -26.9688  -44.4037 H         1 UNK         0.0786 
     93 H93        23.9739  -25.4496  -44.1598 H         1 UNK         0.0786 
     94 H94        22.3329  -25.6401  -43.5594 H         1 UNK         0.0786 
     95 H95        24.0911  -29.1770  -42.7756 H         1 UNK         0.3172 
     96 H96        27.0756  -29.1995  -43.0512 H         1 UNK         0.0595 
     97 H97        25.8616  -29.8535  -45.1458 H         1 UNK         0.0839 
     98 H98        25.0049  -31.1137  -44.2605 H         1 UNK         0.0839 
     99 H99        26.7476  -31.2025  -44.4529 H         1 UNK         0.0839 
    100 H100       26.4082  -28.9771  -40.5942 H         1 UNK         0.2998 
    101 H101       26.4685  -29.7490  -38.5238 H         1 UNK         0.0822 
    102 H102       28.5717  -30.8423  -39.1548 H         1 UNK         0.0787 
    103 H103       27.7030  -31.8857  -38.0459 H         1 UNK         0.0787 
    104 H104       27.7339  -32.2597  -39.7666 H         1 UNK         0.0787 
    105 H105       25.9427  -33.1028  -39.3111 H         1 UNK         0.3055 
    106 H106       23.3129  -33.0768  -37.9964 H         1 UNK         0.1106 
    107 H107       23.5163  -35.5528  -38.2202 H         1 UNK         0.0828 
    108 H108       24.9857  -35.3685  -39.1672 H         1 UNK         0.0828 
    109 H109       24.9519  -34.8728  -37.4749 H         1 UNK         0.0828 
    110 H110       24.4820  -32.8756  -41.2739 H         1 UNK         0.2931 
    111 H111       23.6286  -33.1010  -43.2788 H         1 UNK         0.0412 
    112 H112       22.9364  -36.7900  -42.6390 H         1 UNK         0.3472 
    113 H113       23.8794  -35.6683  -41.6890 H         1 UNK         0.3472 
    114 H114       21.0439  -32.3372  -41.8520 H         1 UNK         0.0970 
    115 H115       21.0282  -32.6678  -43.5516 H         1 UNK         0.0970 
    116 H116       21.9713  -31.5108  -45.3479 H         1 UNK         0.0612 
    117 H117       22.7769  -29.9664  -45.3219 H         1 UNK         0.0612 
@<TRIPOS>BOND
     1    1    2 1    
     2    1   62 1    
     3    1   63 1    
     4    1   64 1    
     5    2    3 2    
     6    2    4 am   BACKBONE|DICT|INTERRES
     7    4    5 1    
     8    4   65 1    
     9    5    6 1    
    10    5   25 1    
    11    5   66 1    
    12    6    7 1    
    13    6   67 1    
    14    6   68 1    
    15    7    8 1    
    16    8    9 1    
    17    8   69 1    
    18    8   70 1    
    19    9   10 ar   
    20    9   14 ar   
    21   10   11 ar   
    22   10   71 1    
    23   11   12 ar   
    24   11   61 1    
    25   12   13 ar   
    26   12   72 1    
    27   13   14 ar   
    28   13   15 1    
    29   14   73 1    
    30   15   16 1    
    31   15   74 1    
    32   15   75 1    
    33   16   17 1    
    34   17   18 1    
    35   17   76 1    
    36   17   77 1    
    37   18   19 1    
    38   18   27 1    
    39   18   78 1    
    40   19   20 am   BACKBONE|DICT|INTERRES
    41   19   79 1    
    42   20   21 2    
    43   20   22 1    
    44   22   23 1    
    45   22   24 1    
    46   22   80 1    
    47   23   81 1    
    48   23   82 1    
    49   23   83 1    
    50   24   25 am   BACKBONE|DICT|INTERRES
    51   24   84 1    
    52   25   26 2    
    53   27   28 2    
    54   27   29 am   BACKBONE|DICT|INTERRES
    55   29   30 1    
    56   29   85 1    
    57   30   31 1    
    58   30   32 1    
    59   30   86 1    
    60   31   87 1    
    61   31   88 1    
    62   31   89 1    
    63   32   33 2    
    64   32   34 am   BACKBONE|DICT|INTERRES
    65   34   35 1    
    66   34   90 1    
    67   35   36 1    
    68   35   37 1    
    69   35   91 1    
    70   36   92 1    
    71   36   93 1    
    72   36   94 1    
    73   37   38 2    
    74   37   39 am   BACKBONE|DICT|INTERRES
    75   39   40 1    
    76   39   95 1    
    77   40   41 1    
    78   40   42 1    
    79   40   96 1    
    80   41   97 1    
    81   41   98 1    
    82   41   99 1    
    83   42   43 2    
    84   42   44 am   BACKBONE|DICT|INTERRES
    85   44   45 1    
    86   44  100 1    
    87   45   46 1    
    88   45   47 1    
    89   45  101 1    
    90   46  102 1    
    91   46  103 1    
    92   46  104 1    
    93   47   48 2    
    94   47   49 am   BACKBONE|DICT|INTERRES
    95   49   50 1    
    96   49  105 1    
    97   50   51 1    
    98   50   52 1    
    99   50  106 1    
   100   51  107 1    
   101   51  108 1    
   102   51  109 1    
   103   52   53 2    
   104   52   54 am   BACKBONE|DICT|INTERRES
   105   54   55 1    
   106   54  110 1    
   107   55   56 1    
   108   55   59 1    
   109   55  111 1    
   110   56   57 am   BACKBONE|DICT|INTERRES
   111   56   58 2    
   112   57  112 1    
   113   57  113 1    
   114   59   60 1    
   115   59  114 1    
   116   59  115 1    
   117   60   61 1    
   118   61  116 1    
   119   61  117 1    
@<TRIPOS>SUBSTRUCTURE
     1 UNK         1 GROUP             0       ****    0 ROOT    
