@<TRIPOS>MOLECULE
3R8
117   119    1
SMALL
USER_CHARGES


@<TRIPOS>ATOM
      1 CA         16.4639  -22.3772  -48.3783 C.3       0 UNK        -0.2013 
      2 C          17.6267  -23.0096  -47.6280 C.2       0 UNK         0.4866 
      3 O          18.7076  -22.4224  -47.5660 O.2       0 UNK        -0.5176 
      4 N          17.4177  -24.2063  -47.0661 N.am      1 UNK        -0.4884 
      5 CA         18.4061  -24.9388  -46.2690 C.3       1 UNK         0.0853 
      6 C6         17.9571  -26.3935  -45.9898 C.3       10 UNK        -0.0849 
      7 S7         17.8057  -27.4286  -47.4834 S.3       10 UNK        -0.2776 
      8 C8         19.0667  -28.7235  -47.1802 C.3       10 UNK         0.0316 
      9 C9         18.9593  -29.4594  -45.8393 C.ar      10 UNK        -0.0863 
     10 C10        20.1134  -30.0294  -45.2910 C.ar      10 UNK        -0.1009 
     11 C11        20.0726  -30.6927  -44.0609 C.ar      10 UNK        -0.0712 
     12 C12        18.8604  -30.7879  -43.3728 C.ar      10 UNK        -0.0894 
     13 C13        17.7009  -30.2071  -43.8944 C.ar      10 UNK        -0.0745 
     14 C14        17.7511  -29.5700  -45.1374 C.ar      10 UNK        -0.0972 
     15 C15        16.3974  -30.2448  -43.1067 C.3       10 UNK         0.0209 
     16 S16        16.5674  -29.5230  -41.4385 S.3       10 UNK        -0.2568 
     17 C17        17.0358  -27.7878  -41.7847 C.3       10 UNK        -0.0983 
     18 CA         18.5655  -27.5279  -41.7685 C.3       3 UNK         0.0876 
     19 N          18.8868  -26.1550  -42.1692 N.am      3 UNK        -0.4424 
     20 C          20.1250  -25.6807  -42.3680 C.2       2 UNK         0.4918 
     21 O          21.1498  -26.3416  -42.1822 O.2       2 UNK        -0.4875 
     22 CA         20.2165  -24.2747  -42.9848 C.3       2 UNK         0.0481 
     23 CB         21.6158  -23.6460  -42.8514 C.3       2 UNK        -0.1831 
     24 N          19.8859  -24.4173  -44.4010 N.am      2 UNK        -0.4498 
     25 C          18.6583  -24.2583  -44.9100 C.2       1 UNK         0.5027 
     26 O          17.7242  -23.7280  -44.3025 O.2       1 UNK        -0.4969 
     27 C          19.2329  -27.8969  -40.4258 C.2       3 UNK         0.5005 
     28 O          19.0707  -27.1710  -39.4426 O.2       3 UNK        -0.5279 
     29 N          20.0007  -28.9972  -40.4466 N.am      4 UNK        -0.4463 
     30 CA         20.8201  -29.5619  -39.3649 C.3       4 UNK         0.0283 
     31 CB         19.9614  -29.9106  -38.1315 C.3       4 UNK        -0.1875 
     32 C          22.0637  -28.7279  -38.9881 C.2       4 UNK         0.4949 
     33 O          22.7910  -29.1298  -38.0790 O.2       4 UNK        -0.5039 
     34 N          22.3092  -27.6109  -39.6866 N.am      5 UNK        -0.4663 
     35 CA         23.4905  -26.7604  -39.5223 C.3       5 UNK         0.0242 
     36 CB         23.0457  -25.3039  -39.3200 C.3       5 UNK        -0.1982 
     37 C          24.4341  -26.8824  -40.7277 C.2       5 UNK         0.5017 
     38 O          25.6504  -26.8574  -40.5383 O.2       5 UNK        -0.5012 
     39 N          23.8689  -27.0342  -41.9362 N.am      6 UNK        -0.4439 
     40 CA         24.5944  -27.2522  -43.1927 C.3       6 UNK         0.0297 
     41 CB         23.5993  -27.2130  -44.3655 C.3       6 UNK        -0.2006 
     42 C          25.3916  -28.5690  -43.2195 C.2       6 UNK         0.4892 
     43 O          26.4683  -28.6140  -43.8155 O.2       6 UNK        -0.5089 
     44 N          24.8517  -29.6015  -42.5647 N.am      7 UNK        -0.4243 
     45 CA         25.4362  -30.9234  -42.3754 C.3       7 UNK         0.0196 
     46 CB         25.4026  -31.7281  -43.6900 C.3       7 UNK        -0.2007 
     47 C          24.6351  -31.6296  -41.2772 C.2       7 UNK         0.5020 
     48 O          23.5146  -31.2129  -40.9708 O.2       7 UNK        -0.5147 
     49 N          25.1964  -32.7090  -40.7230 N.am      8 UNK        -0.4734 
     50 CA         24.5567  -33.5548  -39.7102 C.3       8 UNK         0.0238 
     51 CB         25.6513  -34.2484  -38.8766 C.3       8 UNK        -0.1912 
     52 C          23.5715  -34.5549  -40.3494 C.2       8 UNK         0.5038 
     53 O          23.7593  -35.7675  -40.2296 O.2       8 UNK        -0.5046 
     54 N          22.5613  -34.0246  -41.0488 N.am      9 UNK        -0.4200 
     55 CA         21.4957  -34.7835  -41.7205 C.3       9 UNK         0.0839 
     56 C          20.6073  -35.5763  -40.7233 C.2       9 UNK         0.5513 
     57 N          20.1502  -36.7605  -41.1063 N.am      9 UNK        -0.7519 
     58 O          20.2931  -35.1077  -39.6309 O.2       9 UNK        -0.4960 
     59 C59        20.6177  -33.8717  -42.6162 C.3       10 UNK        -0.0876 
     60 S60        21.5808  -33.0165  -43.9114 S.3       10 UNK        -0.2414 
     61 C61        21.3474  -31.2687  -43.4640 C.3       10 UNK         0.0169 
     62 H62        16.2009  -21.4218  -47.9253 H         1 UNK         0.0903 
     63 H63        16.7404  -22.1976  -49.4169 H         1 UNK         0.0903 
     64 H64        15.5783  -23.0123  -48.3687 H         1 UNK         0.0903 
     65 H65        16.5100  -24.6429  -47.1431 H         1 UNK         0.3096 
     66 H66        19.3441  -24.9575  -46.8291 H         1 UNK         0.1121 
     67 H67        16.9928  -26.4052  -45.4771 H         1 UNK         0.0849 
     68 H68        18.6580  -26.8720  -45.3034 H         1 UNK         0.0849 
     69 H69        19.0076  -29.4590  -47.9833 H         1 UNK         0.0865 
     70 H70        20.0498  -28.2572  -47.2638 H         1 UNK         0.0865 
     71 H71        21.0534  -29.9516  -45.8207 H         1 UNK         0.1346 
     72 H72        18.8163  -31.2864  -42.4150 H         1 UNK         0.1412 
     73 H73        16.8475  -29.1384  -45.5441 H         1 UNK         0.1426 
     74 H74        16.0734  -31.2819  -43.0107 H         1 UNK         0.0716 
     75 H75        15.6013  -29.7208  -43.6380 H         1 UNK         0.0716 
     76 H76        16.5405  -27.1533  -41.0475 H         1 UNK         0.0695 
     77 H77        16.6194  -27.5038  -42.7527 H         1 UNK         0.0695 
     78 H78        19.0088  -28.1531  -42.5443 H         1 UNK         0.0983 
     79 H79        18.1032  -25.5409  -42.3397 H         1 UNK         0.3095 
     80 H80        19.5022  -23.6220  -42.4785 H         1 UNK         0.0454 
     81 H81        22.3995  -24.2808  -43.2647 H         1 UNK         0.0851 
     82 H82        21.8597  -23.4609  -41.8061 H         1 UNK         0.0851 
     83 H83        21.6645  -22.6849  -43.3633 H         1 UNK         0.0851 
     84 H84        20.5837  -24.8835  -44.9640 H         1 UNK         0.2976 
     85 H85        20.0700  -29.4916  -41.3241 H         1 UNK         0.3116 
     86 H86        21.2080  -30.5024  -39.7580 H         1 UNK         0.0646 
     87 H87        19.5973  -29.0178  -37.6229 H         1 UNK         0.0847 
     88 H88        20.5387  -30.4819  -37.4035 H         1 UNK         0.0847 
     89 H89        19.0987  -30.5175  -38.4062 H         1 UNK         0.0847 
     90 H90        21.6545  -27.3397  -40.4102 H         1 UNK         0.3040 
     91 H91        24.0581  -27.0613  -38.6388 H         1 UNK         0.1015 
     92 H92        22.4396  -24.9487  -40.1516 H         1 UNK         0.0786 
     93 H93        23.9057  -24.6388  -39.2305 H         1 UNK         0.0786 
     94 H94        22.4556  -25.1964  -38.4097 H         1 UNK         0.0786 
     95 H95        22.8580  -26.9466  -42.0109 H         1 UNK         0.3172 
     96 H96        25.3041  -26.4314  -43.3147 H         1 UNK         0.0595 
     97 H97        24.1080  -27.3810  -45.3158 H         1 UNK         0.0839 
     98 H98        23.1023  -26.2463  -44.4344 H         1 UNK         0.0839 
     99 H99        22.8282  -27.9786  -44.2682 H         1 UNK         0.0839 
    100 H100       23.9801  -29.4717  -42.0651 H         1 UNK         0.2998 
    101 H101       26.4672  -30.8074  -42.0348 H         1 UNK         0.0822 
    102 H102       25.8019  -32.7331  -43.5493 H         1 UNK         0.0787 
    103 H103       24.3877  -31.8324  -44.0727 H         1 UNK         0.0787 
    104 H104       26.0024  -31.2529  -44.4660 H         1 UNK         0.0787 
    105 H105       26.1011  -33.0125  -41.0555 H         1 UNK         0.3055 
    106 H106       23.9762  -32.9240  -39.0321 H         1 UNK         0.1106 
    107 H107       25.2122  -34.8640  -38.0903 H         1 UNK         0.0828 
    108 H108       26.2769  -34.8989  -39.4890 H         1 UNK         0.0828 
    109 H109       26.2999  -33.5202  -38.3893 H         1 UNK         0.0828 
    110 H110       22.5130  -33.0150  -41.1144 H         1 UNK         0.2931 
    111 H111       21.9925  -35.5076  -42.3699 H         1 UNK         0.0412 
    112 H112       20.3950  -37.1485  -42.0045 H         1 UNK         0.3472 
    113 H113       19.5580  -37.2839  -40.4800 H         1 UNK         0.3472 
    114 H114       20.0833  -33.1478  -42.0008 H         1 UNK         0.0970 
    115 H115       19.8489  -34.4608  -43.1200 H         1 UNK         0.0970 
    116 H116       22.2094  -30.7002  -43.8160 H         1 UNK         0.0612 
    117 H117       21.3380  -31.1587  -42.3800 H         1 UNK         0.0612 
@<TRIPOS>BOND
     1    1    2 1    
     2    1   62 1    
     3    1   63 1    
     4    1   64 1    
     5    2    3 2    
     6    2    4 am   BACKBONE|DICT|INTERRES
     7    4    5 1    
     8    4   65 1    
     9    5    6 1    
    10    5   25 1    
    11    5   66 1    
    12    6    7 1    
    13    6   67 1    
    14    6   68 1    
    15    7    8 1    
    16    8    9 1    
    17    8   69 1    
    18    8   70 1    
    19    9   10 ar   
    20    9   14 ar   
    21   10   11 ar   
    22   10   71 1    
    23   11   12 ar   
    24   11   61 1    
    25   12   13 ar   
    26   12   72 1    
    27   13   14 ar   
    28   13   15 1    
    29   14   73 1    
    30   15   16 1    
    31   15   74 1    
    32   15   75 1    
    33   16   17 1    
    34   17   18 1    
    35   17   76 1    
    36   17   77 1    
    37   18   19 1    
    38   18   27 1    
    39   18   78 1    
    40   19   20 am   BACKBONE|DICT|INTERRES
    41   19   79 1    
    42   20   21 2    
    43   20   22 1    
    44   22   23 1    
    45   22   24 1    
    46   22   80 1    
    47   23   81 1    
    48   23   82 1    
    49   23   83 1    
    50   24   25 am   BACKBONE|DICT|INTERRES
    51   24   84 1    
    52   25   26 2    
    53   27   28 2    
    54   27   29 am   BACKBONE|DICT|INTERRES
    55   29   30 1    
    56   29   85 1    
    57   30   31 1    
    58   30   32 1    
    59   30   86 1    
    60   31   87 1    
    61   31   88 1    
    62   31   89 1    
    63   32   33 2    
    64   32   34 am   BACKBONE|DICT|INTERRES
    65   34   35 1    
    66   34   90 1    
    67   35   36 1    
    68   35   37 1    
    69   35   91 1    
    70   36   92 1    
    71   36   93 1    
    72   36   94 1    
    73   37   38 2    
    74   37   39 am   BACKBONE|DICT|INTERRES
    75   39   40 1    
    76   39   95 1    
    77   40   41 1    
    78   40   42 1    
    79   40   96 1    
    80   41   97 1    
    81   41   98 1    
    82   41   99 1    
    83   42   43 2    
    84   42   44 am   BACKBONE|DICT|INTERRES
    85   44   45 1    
    86   44  100 1    
    87   45   46 1    
    88   45   47 1    
    89   45  101 1    
    90   46  102 1    
    91   46  103 1    
    92   46  104 1    
    93   47   48 2    
    94   47   49 am   BACKBONE|DICT|INTERRES
    95   49   50 1    
    96   49  105 1    
    97   50   51 1    
    98   50   52 1    
    99   50  106 1    
   100   51  107 1    
   101   51  108 1    
   102   51  109 1    
   103   52   53 2    
   104   52   54 am   BACKBONE|DICT|INTERRES
   105   54   55 1    
   106   54  110 1    
   107   55   56 1    
   108   55   59 1    
   109   55  111 1    
   110   56   57 am   BACKBONE|DICT|INTERRES
   111   56   58 2    
   112   57  112 1    
   113   57  113 1    
   114   59   60 1    
   115   59  114 1    
   116   59  115 1    
   117   60   61 1    
   118   61  116 1    
   119   61  117 1    
@<TRIPOS>SUBSTRUCTURE
     1 UNK         1 GROUP             0       ****    0 ROOT    
