@<TRIPOS>MOLECULE
3R8
117   119    1
SMALL
USER_CHARGES


@<TRIPOS>ATOM
      1 CA         14.7388  -24.2374  -41.3517 C.3       0 UNK        -0.2013 
      2 C          15.2270  -24.4553  -42.7762 C.2       0 UNK         0.4866 
      3 O          14.9512  -23.6321  -43.6500 O.2       0 UNK        -0.5176 
      4 N          15.9425  -25.5611  -43.0184 N.am      1 UNK        -0.4884 
      5 CA         16.5523  -25.8929  -44.3107 C.3       1 UNK         0.0853 
      6 C6         16.7740  -27.4226  -44.4465 C.3       10 UNK        -0.0849 
      7 S7         16.7775  -27.9623  -46.1904 S.3       10 UNK        -0.2776 
      8 C8         16.4819  -29.7523  -46.0209 C.3       10 UNK         0.0316 
      9 C9         17.5969  -30.4638  -45.2640 C.ar      10 UNK        -0.0863 
     10 C10        17.2956  -31.2636  -44.1577 C.ar      10 UNK        -0.1009 
     11 C11        18.3076  -31.9488  -43.4795 C.ar      10 UNK        -0.0712 
     12 C12        19.6343  -31.8075  -43.8996 C.ar      10 UNK        -0.0894 
     13 C13        19.9540  -30.9986  -44.9944 C.ar      10 UNK        -0.0745 
     14 C14        18.9254  -30.3489  -45.6851 C.ar      10 UNK        -0.0972 
     15 C15        21.4073  -30.8645  -45.4410 C.3       10 UNK         0.0209 
     16 S16        21.8974  -29.1515  -45.8371 S.3       10 UNK        -0.2568 
     17 C17        21.8087  -28.3677  -44.1953 C.3       10 UNK        -0.0983 
     18 CA         21.9557  -26.8260  -44.2771 C.3       3 UNK         0.0876 
     19 N          20.8592  -26.2085  -45.0270 N.am      3 UNK        -0.4424 
     20 C          20.8831  -24.9850  -45.5724 C.2       2 UNK         0.4918 
     21 O          21.8777  -24.2574  -45.5636 O.2       2 UNK        -0.4875 
     22 CA         19.5889  -24.4730  -46.2335 C.3       2 UNK         0.0481 
     23 CB         19.6893  -24.5975  -47.7620 C.3       2 UNK        -0.1831 
     24 N          18.3659  -25.1437  -45.7787 N.am      2 UNK        -0.4498 
     25 C          17.8561  -25.0922  -44.5399 C.2       1 UNK         0.5027 
     26 O          18.3842  -24.4736  -43.6117 O.2       1 UNK        -0.4969 
     27 C          22.0724  -26.1835  -42.8785 C.2       3 UNK         0.5005 
     28 O          21.6951  -26.8000  -41.8814 O.2       3 UNK        -0.5279 
     29 N          22.6009  -24.9525  -42.8203 N.am      4 UNK        -0.4463 
     30 CA         22.8198  -24.1792  -41.5900 C.3       4 UNK         0.0283 
     31 CB         23.3019  -22.7670  -41.9572 C.3       4 UNK        -0.1875 
     32 C          23.7983  -24.8432  -40.6018 C.2       4 UNK         0.4949 
     33 O          23.6769  -24.6359  -39.3950 O.2       4 UNK        -0.5039 
     34 N          24.7246  -25.6545  -41.1297 N.am      5 UNK        -0.4663 
     35 CA         25.6539  -26.4923  -40.3667 C.3       5 UNK         0.0242 
     36 CB         26.9295  -26.6901  -41.2052 C.3       5 UNK        -0.1982 
     37 C          25.0523  -27.8543  -39.9607 C.2       5 UNK         0.5017 
     38 O          25.7755  -28.6762  -39.3957 O.2       5 UNK        -0.5012 
     39 N          23.7717  -28.0969  -40.2839 N.am      6 UNK        -0.4439 
     40 CA         22.9884  -29.3269  -40.1136 C.3       6 UNK         0.0297 
     41 CB         22.9228  -29.7813  -38.6430 C.3       6 UNK        -0.2006 
     42 C          23.4304  -30.4640  -41.0474 C.2       6 UNK         0.4892 
     43 O          22.5924  -30.9967  -41.7748 O.2       6 UNK        -0.5089 
     44 N          24.7272  -30.8017  -41.0303 N.am      7 UNK        -0.4243 
     45 CA         25.3828  -31.8566  -41.8096 C.3       7 UNK         0.0196 
     46 CB         25.4399  -31.4710  -43.3059 C.3       7 UNK        -0.2007 
     47 C          24.7427  -33.2325  -41.5446 C.2       7 UNK         0.5020 
     48 O          25.0667  -33.8633  -40.5384 O.2       7 UNK        -0.5147 
     49 N          23.8385  -33.6613  -42.4341 N.am      8 UNK        -0.4734 
     50 CA         23.0401  -34.8810  -42.2946 C.3       8 UNK         0.0238 
     51 CB         22.4782  -35.2678  -43.6729 C.3       8 UNK        -0.1912 
     52 C          21.8967  -34.7543  -41.2694 C.2       8 UNK         0.5038 
     53 O          21.4314  -35.7816  -40.7736 O.2       8 UNK        -0.5046 
     54 N          21.4457  -33.5230  -40.9915 N.am      9 UNK        -0.4200 
     55 CA         20.3789  -33.2183  -40.0270 C.3       9 UNK         0.0839 
     56 C          20.8456  -33.3157  -38.5481 C.2       9 UNK         0.5513 
     57 N          19.9080  -33.3249  -37.6109 N.am      9 UNK        -0.7519 
     58 O          22.0337  -33.3562  -38.2365 O.2       9 UNK        -0.4960 
     59 C59        19.6928  -31.8553  -40.3543 C.3       10 UNK        -0.0876 
     60 S60        17.9156  -32.0350  -40.7154 S.3       10 UNK        -0.2414 
     61 C61        17.9554  -32.8816  -42.3288 C.3       10 UNK         0.0169 
     62 H62        13.6514  -24.1683  -41.3339 H         1 UNK         0.0903 
     63 H63        15.0375  -25.0492  -40.6888 H         1 UNK         0.0903 
     64 H64        15.1460  -23.3081  -40.9542 H         1 UNK         0.0903 
     65 H65        16.1707  -26.1795  -42.2528 H         1 UNK         0.3096 
     66 H66        15.8471  -25.5806  -45.0852 H         1 UNK         0.1121 
     67 H67        17.6947  -27.7464  -43.9559 H         1 UNK         0.0849 
     68 H68        15.9658  -27.9602  -43.9471 H         1 UNK         0.0849 
     69 H69        15.5167  -29.9081  -45.5364 H         1 UNK         0.0865 
     70 H70        16.3987  -30.1911  -47.0161 H         1 UNK         0.0865 
     71 H71        16.2694  -31.3725  -43.8336 H         1 UNK         0.1346 
     72 H72        20.4193  -32.3365  -43.3783 H         1 UNK         0.1412 
     73 H73        19.1596  -29.7401  -46.5478 H         1 UNK         0.1426 
     74 H74        21.5575  -31.4849  -46.3252 H         1 UNK         0.0716 
     75 H75        22.0823  -31.2477  -44.6741 H         1 UNK         0.0716 
     76 H76        22.6033  -28.7981  -43.5828 H         1 UNK         0.0695 
     77 H77        20.8669  -28.6414  -43.7155 H         1 UNK         0.0695 
     78 H78        22.8905  -26.6164  -44.8025 H         1 UNK         0.0983 
     79 H79        20.0054  -26.7421  -45.0844 H         1 UNK         0.3095 
     80 H80        19.4962  -23.4142  -45.9837 H         1 UNK         0.0454 
     81 H81        19.7612  -25.6389  -48.0786 H         1 UNK         0.0851 
     82 H82        20.5733  -24.0812  -48.1392 H         1 UNK         0.0851 
     83 H83        18.8243  -24.1542  -48.2555 H         1 UNK         0.0851 
     84 H84        17.8836  -25.7118  -46.4632 H         1 UNK         0.2976 
     85 H85        22.8043  -24.4884  -43.6995 H         1 UNK         0.3116 
     86 H86        21.8564  -24.0904  -41.0834 H         1 UNK         0.0646 
     87 H87        23.4448  -22.1585  -41.0630 H         1 UNK         0.0847 
     88 H88        22.5762  -22.2501  -42.5854 H         1 UNK         0.0847 
     89 H89        24.2530  -22.7901  -42.4906 H         1 UNK         0.0847 
     90 H90        24.7532  -25.7477  -42.1349 H         1 UNK         0.3040 
     91 H91        25.9278  -25.9761  -39.4437 H         1 UNK         0.1015 
     92 H92        27.3800  -25.7343  -41.4738 H         1 UNK         0.0786 
     93 H93        26.7270  -27.2379  -42.1264 H         1 UNK         0.0786 
     94 H94        27.6819  -27.2528  -40.6506 H         1 UNK         0.0786 
     95 H95        23.2637  -27.3639  -40.7700 H         1 UNK         0.3172 
     96 H96        21.9715  -29.0634  -40.4088 H         1 UNK         0.0595 
     97 H97        23.8878  -30.1260  -38.2710 H         1 UNK         0.0839 
     98 H98        22.2222  -30.6075  -38.5265 H         1 UNK         0.0839 
     99 H99        22.5812  -28.9752  -37.9940 H         1 UNK         0.0839 
    100 H100       25.3198  -30.2873  -40.3843 H         1 UNK         0.2998 
    101 H101       26.4101  -31.9196  -41.4470 H         1 UNK         0.0822 
    102 H102       24.4537  -31.2835  -43.7309 H         1 UNK         0.0787 
    103 H103       26.0306  -30.5661  -43.4494 H         1 UNK         0.0787 
    104 H104       25.9119  -32.2574  -43.8964 H         1 UNK         0.0787 
    105 H105       23.6183  -33.0545  -43.2105 H         1 UNK         0.3055 
    106 H106       23.6948  -35.6856  -41.9514 H         1 UNK         0.1106 
    107 H107       21.8185  -34.4970  -44.0733 H         1 UNK         0.0828 
    108 H108       23.2775  -35.4354  -44.3950 H         1 UNK         0.0828 
    109 H109       21.9002  -36.1913  -43.6134 H         1 UNK         0.0828 
    110 H110       21.9273  -32.7219  -41.3902 H         1 UNK         0.2931 
    111 H111       19.6412  -34.0157  -40.1362 H         1 UNK         0.0412 
    112 H112       18.9304  -33.2792  -37.8554 H         1 UNK         0.3472 
    113 H113       20.1813  -33.3790  -36.6419 H         1 UNK         0.3472 
    114 H114       19.7931  -31.1400  -39.5355 H         1 UNK         0.0970 
    115 H115       20.1544  -31.3564  -41.2044 H         1 UNK         0.0970 
    116 H116       18.6541  -33.7184  -42.2954 H         1 UNK         0.0612 
    117 H117       16.9739  -33.3233  -42.5074 H         1 UNK         0.0612 
@<TRIPOS>BOND
     1    1    2 1    
     2    1   62 1    
     3    1   63 1    
     4    1   64 1    
     5    2    3 2    
     6    2    4 am   BACKBONE|DICT|INTERRES
     7    4    5 1    
     8    4   65 1    
     9    5    6 1    
    10    5   25 1    
    11    5   66 1    
    12    6    7 1    
    13    6   67 1    
    14    6   68 1    
    15    7    8 1    
    16    8    9 1    
    17    8   69 1    
    18    8   70 1    
    19    9   10 ar   
    20    9   14 ar   
    21   10   11 ar   
    22   10   71 1    
    23   11   12 ar   
    24   11   61 1    
    25   12   13 ar   
    26   12   72 1    
    27   13   14 ar   
    28   13   15 1    
    29   14   73 1    
    30   15   16 1    
    31   15   74 1    
    32   15   75 1    
    33   16   17 1    
    34   17   18 1    
    35   17   76 1    
    36   17   77 1    
    37   18   19 1    
    38   18   27 1    
    39   18   78 1    
    40   19   20 am   BACKBONE|DICT|INTERRES
    41   19   79 1    
    42   20   21 2    
    43   20   22 1    
    44   22   23 1    
    45   22   24 1    
    46   22   80 1    
    47   23   81 1    
    48   23   82 1    
    49   23   83 1    
    50   24   25 am   BACKBONE|DICT|INTERRES
    51   24   84 1    
    52   25   26 2    
    53   27   28 2    
    54   27   29 am   BACKBONE|DICT|INTERRES
    55   29   30 1    
    56   29   85 1    
    57   30   31 1    
    58   30   32 1    
    59   30   86 1    
    60   31   87 1    
    61   31   88 1    
    62   31   89 1    
    63   32   33 2    
    64   32   34 am   BACKBONE|DICT|INTERRES
    65   34   35 1    
    66   34   90 1    
    67   35   36 1    
    68   35   37 1    
    69   35   91 1    
    70   36   92 1    
    71   36   93 1    
    72   36   94 1    
    73   37   38 2    
    74   37   39 am   BACKBONE|DICT|INTERRES
    75   39   40 1    
    76   39   95 1    
    77   40   41 1    
    78   40   42 1    
    79   40   96 1    
    80   41   97 1    
    81   41   98 1    
    82   41   99 1    
    83   42   43 2    
    84   42   44 am   BACKBONE|DICT|INTERRES
    85   44   45 1    
    86   44  100 1    
    87   45   46 1    
    88   45   47 1    
    89   45  101 1    
    90   46  102 1    
    91   46  103 1    
    92   46  104 1    
    93   47   48 2    
    94   47   49 am   BACKBONE|DICT|INTERRES
    95   49   50 1    
    96   49  105 1    
    97   50   51 1    
    98   50   52 1    
    99   50  106 1    
   100   51  107 1    
   101   51  108 1    
   102   51  109 1    
   103   52   53 2    
   104   52   54 am   BACKBONE|DICT|INTERRES
   105   54   55 1    
   106   54  110 1    
   107   55   56 1    
   108   55   59 1    
   109   55  111 1    
   110   56   57 am   BACKBONE|DICT|INTERRES
   111   56   58 2    
   112   57  112 1    
   113   57  113 1    
   114   59   60 1    
   115   59  114 1    
   116   59  115 1    
   117   60   61 1    
   118   61  116 1    
   119   61  117 1    
@<TRIPOS>SUBSTRUCTURE
     1 UNK         1 GROUP             0       ****    0 ROOT    
