@<TRIPOS>MOLECULE
3R8
117   119    1
SMALL
USER_CHARGES


@<TRIPOS>ATOM
      1 CA         12.5587  -22.9119  -45.5404 C.3       0 UNK        -0.2013 
      2 C          13.5079  -24.0647  -45.8324 C.2       0 UNK         0.4866 
      3 O          13.4803  -24.6170  -46.9330 O.2       0 UNK        -0.5176 
      4 N          14.3404  -24.4387  -44.8533 N.am      1 UNK        -0.4884 
      5 CA         15.3511  -25.4936  -44.9743 C.3       1 UNK         0.0853 
      6 C6         15.9529  -25.8735  -43.6001 C.3       10 UNK        -0.0849 
      7 S7         14.7679  -26.6926  -42.4831 S.3       10 UNK        -0.2776 
      8 C8         15.3819  -28.4192  -42.4852 C.3       10 UNK         0.0316 
      9 C9         16.8451  -28.6144  -42.0697 C.ar      10 UNK        -0.0863 
     10 C10        17.5130  -29.7708  -42.4908 C.ar      10 UNK        -0.1009 
     11 C11        18.8491  -29.9935  -42.1435 C.ar      10 UNK        -0.0712 
     12 C12        19.5202  -29.0513  -41.3612 C.ar      10 UNK        -0.0894 
     13 C13        18.8843  -27.8741  -40.9659 C.ar      10 UNK        -0.0745 
     14 C14        17.5407  -27.6751  -41.2945 C.ar      10 UNK        -0.0972 
     15 C15        19.6641  -26.8037  -40.2163 C.3       10 UNK         0.0209 
     16 S16        21.0812  -26.1868  -41.1884 S.3       10 UNK        -0.2568 
     17 C17        20.2765  -25.5185  -42.6892 C.3       10 UNK        -0.0983 
     18 CA         20.4696  -26.4111  -43.9446 C.3       3 UNK         0.0876 
     19 N          19.6238  -25.9574  -45.0511 N.am      3 UNK        -0.4424 
     20 C          19.4176  -26.6303  -46.1921 C.2       2 UNK         0.4918 
     21 O          19.9081  -27.7332  -46.4379 O.2       2 UNK        -0.4875 
     22 CA         18.4260  -25.9908  -47.1796 C.3       2 UNK         0.0481 
     23 CB         18.4025  -26.7000  -48.5464 C.3       2 UNK        -0.1831 
     24 N          17.0979  -26.0663  -46.5747 N.am      2 UNK        -0.4498 
     25 C          16.5076  -25.0725  -45.9008 C.2       1 UNK         0.5027 
     26 O          16.9118  -23.9067  -45.8948 O.2       1 UNK        -0.4969 
     27 C          21.9460  -26.4741  -44.3885 C.2       3 UNK         0.5005 
     28 O          22.4857  -25.4629  -44.8444 O.2       3 UNK        -0.5279 
     29 N          22.5701  -27.6489  -44.2324 N.am      4 UNK        -0.4463 
     30 CA         23.9802  -27.8918  -44.5530 C.3       4 UNK         0.0283 
     31 CB         24.1421  -29.3491  -45.0191 C.3       4 UNK        -0.1875 
     32 C          24.9258  -27.5904  -43.3746 C.2       4 UNK         0.4949 
     33 O          26.1228  -27.8495  -43.4942 O.2       4 UNK        -0.5039 
     34 N          24.3848  -27.1062  -42.2455 N.am      5 UNK        -0.4663 
     35 CA         25.0378  -26.7643  -40.9693 C.3       5 UNK         0.0242 
     36 CB         26.1217  -25.6852  -41.1612 C.3       5 UNK        -0.1982 
     37 C          25.5821  -27.9636  -40.1674 C.2       5 UNK         0.5017 
     38 O          25.6373  -27.8813  -38.9395 O.2       5 UNK        -0.5012 
     39 N          25.9559  -29.0508  -40.8530 N.am      6 UNK        -0.4439 
     40 CA         26.3406  -30.3411  -40.2804 C.3       6 UNK         0.0297 
     41 CB         26.8346  -31.2568  -41.4125 C.3       6 UNK        -0.2006 
     42 C          25.1771  -31.0091  -39.5275 C.2       6 UNK         0.4892 
     43 O          24.0149  -30.8135  -39.8960 O.2       6 UNK        -0.5089 
     44 N          25.5195  -31.8119  -38.5099 N.am      7 UNK        -0.4243 
     45 CA         24.5860  -32.5756  -37.6766 C.3       7 UNK         0.0196 
     46 CB         25.3722  -33.3502  -36.6058 C.3       7 UNK        -0.2007 
     47 C          23.7223  -33.5253  -38.5218 C.2       7 UNK         0.5020 
     48 O          24.2629  -34.4312  -39.1600 O.2       7 UNK        -0.5147 
     49 N          22.4106  -33.2490  -38.5598 N.am      8 UNK        -0.4734 
     50 CA         21.3900  -33.9109  -39.3868 C.3       8 UNK         0.0238 
     51 CB         21.1378  -35.3477  -38.8813 C.3       8 UNK        -0.1912 
     52 C          21.6883  -33.8629  -40.9022 C.2       8 UNK         0.5038 
     53 O          21.2396  -34.7463  -41.6346 O.2       8 UNK        -0.5046 
     54 N          22.4432  -32.8430  -41.3408 N.am      9 UNK        -0.4200 
     55 CA         22.9811  -32.6827  -42.7013 C.3       9 UNK         0.0839 
     56 C          24.0149  -33.7781  -43.1103 C.2       9 UNK         0.5513 
     57 N          24.6145  -34.5089  -42.1762 N.am      9 UNK        -0.7519 
     58 O          24.3122  -33.9466  -44.2899 O.2       9 UNK        -0.4960 
     59 C59        21.8759  -32.4342  -43.7724 C.3       10 UNK        -0.0876 
     60 S60        21.0691  -30.8111  -43.5697 S.3       10 UNK        -0.2414 
     61 C61        19.5800  -31.2419  -42.6139 C.3       10 UNK         0.0169 
     62 H62        12.6817  -22.5286  -44.5276 H         1 UNK         0.0903 
     63 H63        12.7379  -22.0932  -46.2368 H         1 UNK         0.0903 
     64 H64        11.5254  -23.2380  -45.6560 H         1 UNK         0.0903 
     65 H65        14.3258  -23.9475  -43.9708 H         1 UNK         0.3096 
     66 H66        14.8679  -26.3739  -45.4053 H         1 UNK         0.1121 
     67 H67        16.8158  -26.5282  -43.7334 H         1 UNK         0.0849 
     68 H68        16.3383  -24.9868  -43.0925 H         1 UNK         0.0849 
     69 H69        14.7534  -29.0084  -41.8162 H         1 UNK         0.0865 
     70 H70        15.2295  -28.8272  -43.4858 H         1 UNK         0.0865 
     71 H71        16.9910  -30.5003  -43.0952 H         1 UNK         0.1346 
     72 H72        20.5571  -29.2133  -41.0981 H         1 UNK         0.1412 
     73 H73        17.0491  -26.7708  -40.9650 H         1 UNK         0.1426 
     74 H74        20.0319  -27.2206  -39.2779 H         1 UNK         0.0716 
     75 H75        19.0219  -25.9623  -39.9511 H         1 UNK         0.0716 
     76 H76        19.2124  -25.3902  -42.4845 H         1 UNK         0.0695 
     77 H77        20.6650  -24.5140  -42.8678 H         1 UNK         0.0695 
     78 H78        20.1370  -27.4211  -43.6938 H         1 UNK         0.0983 
     79 H79        19.2001  -25.0468  -44.9474 H         1 UNK         0.3095 
     80 H80        18.7271  -24.9537  -47.3419 H         1 UNK         0.0454 
     81 H81        18.1077  -27.7466  -48.4594 H         1 UNK         0.0851 
     82 H82        17.7077  -26.2137  -49.2311 H         1 UNK         0.0851 
     83 H83        19.3878  -26.6763  -49.0137 H         1 UNK         0.0851 
     84 H84        16.7108  -26.9969  -46.4974 H         1 UNK         0.2976 
     85 H85        22.0495  -28.4391  -43.8728 H         1 UNK         0.3116 
     86 H86        24.2787  -27.2432  -45.3793 H         1 UNK         0.0646 
     87 H87        25.1536  -29.5343  -45.3829 H         1 UNK         0.0847 
     88 H88        23.4587  -29.5863  -45.8348 H         1 UNK         0.0847 
     89 H89        23.9570  -30.0534  -44.2093 H         1 UNK         0.0847 
     90 H90        23.3830  -26.9681  -42.2508 H         1 UNK         0.3040 
     91 H91        24.2509  -26.3269  -40.3519 H         1 UNK         0.1015 
     92 H92        25.7224  -24.8086  -41.6714 H         1 UNK         0.0786 
     93 H93        26.9695  -26.0540  -41.7390 H         1 UNK         0.0786 
     94 H94        26.5101  -25.3506  -40.1984 H         1 UNK         0.0786 
     95 H95        25.9285  -28.9809  -41.8636 H         1 UNK         0.3172 
     96 H96        27.1603  -30.1677  -39.5802 H         1 UNK         0.0595 
     97 H97        27.6977  -30.8281  -41.9222 H         1 UNK         0.0839 
     98 H98        26.0583  -31.4308  -42.1585 H         1 UNK         0.0839 
     99 H99        27.1381  -32.2315  -41.0278 H         1 UNK         0.0839 
    100 H100       26.5006  -31.9362  -38.3063 H         1 UNK         0.2998 
    101 H101       23.9369  -31.8591  -37.1688 H         1 UNK         0.0822 
    102 H102       25.9366  -32.6765  -35.9607 H         1 UNK         0.0787 
    103 H103       24.6985  -33.9215  -35.9656 H         1 UNK         0.0787 
    104 H104       26.0743  -34.0564  -37.0514 H         1 UNK         0.0787 
    105 H105       22.0825  -32.4545  -38.0265 H         1 UNK         0.3055 
    106 H106       20.4666  -33.3454  -39.2502 H         1 UNK         0.1106 
    107 H107       22.0006  -35.9927  -39.0509 H         1 UNK         0.0828 
    108 H108       20.9140  -35.3603  -37.8147 H         1 UNK         0.0828 
    109 H109       20.2880  -35.8014  -39.3929 H         1 UNK         0.0828 
    110 H110       22.7934  -32.1697  -40.6657 H         1 UNK         0.2931 
    111 H111       23.5834  -31.7760  -42.6482 H         1 UNK         0.0412 
    112 H112       25.2883  -35.2035  -42.4565 H         1 UNK         0.3472 
    113 H113       24.3928  -34.3934  -41.1931 H         1 UNK         0.3472 
    114 H114       21.1313  -33.2309  -43.7740 H         1 UNK         0.0970 
    115 H115       22.3055  -32.4321  -44.7755 H         1 UNK         0.0970 
    116 H116       18.9324  -31.8706  -43.2268 H         1 UNK         0.0612 
    117 H117       19.8545  -31.8291  -41.7392 H         1 UNK         0.0612 
@<TRIPOS>BOND
     1    1    2 1    
     2    1   62 1    
     3    1   63 1    
     4    1   64 1    
     5    2    3 2    
     6    2    4 am   BACKBONE|DICT|INTERRES
     7    4    5 1    
     8    4   65 1    
     9    5    6 1    
    10    5   25 1    
    11    5   66 1    
    12    6    7 1    
    13    6   67 1    
    14    6   68 1    
    15    7    8 1    
    16    8    9 1    
    17    8   69 1    
    18    8   70 1    
    19    9   10 ar   
    20    9   14 ar   
    21   10   11 ar   
    22   10   71 1    
    23   11   12 ar   
    24   11   61 1    
    25   12   13 ar   
    26   12   72 1    
    27   13   14 ar   
    28   13   15 1    
    29   14   73 1    
    30   15   16 1    
    31   15   74 1    
    32   15   75 1    
    33   16   17 1    
    34   17   18 1    
    35   17   76 1    
    36   17   77 1    
    37   18   19 1    
    38   18   27 1    
    39   18   78 1    
    40   19   20 am   BACKBONE|DICT|INTERRES
    41   19   79 1    
    42   20   21 2    
    43   20   22 1    
    44   22   23 1    
    45   22   24 1    
    46   22   80 1    
    47   23   81 1    
    48   23   82 1    
    49   23   83 1    
    50   24   25 am   BACKBONE|DICT|INTERRES
    51   24   84 1    
    52   25   26 2    
    53   27   28 2    
    54   27   29 am   BACKBONE|DICT|INTERRES
    55   29   30 1    
    56   29   85 1    
    57   30   31 1    
    58   30   32 1    
    59   30   86 1    
    60   31   87 1    
    61   31   88 1    
    62   31   89 1    
    63   32   33 2    
    64   32   34 am   BACKBONE|DICT|INTERRES
    65   34   35 1    
    66   34   90 1    
    67   35   36 1    
    68   35   37 1    
    69   35   91 1    
    70   36   92 1    
    71   36   93 1    
    72   36   94 1    
    73   37   38 2    
    74   37   39 am   BACKBONE|DICT|INTERRES
    75   39   40 1    
    76   39   95 1    
    77   40   41 1    
    78   40   42 1    
    79   40   96 1    
    80   41   97 1    
    81   41   98 1    
    82   41   99 1    
    83   42   43 2    
    84   42   44 am   BACKBONE|DICT|INTERRES
    85   44   45 1    
    86   44  100 1    
    87   45   46 1    
    88   45   47 1    
    89   45  101 1    
    90   46  102 1    
    91   46  103 1    
    92   46  104 1    
    93   47   48 2    
    94   47   49 am   BACKBONE|DICT|INTERRES
    95   49   50 1    
    96   49  105 1    
    97   50   51 1    
    98   50   52 1    
    99   50  106 1    
   100   51  107 1    
   101   51  108 1    
   102   51  109 1    
   103   52   53 2    
   104   52   54 am   BACKBONE|DICT|INTERRES
   105   54   55 1    
   106   54  110 1    
   107   55   56 1    
   108   55   59 1    
   109   55  111 1    
   110   56   57 am   BACKBONE|DICT|INTERRES
   111   56   58 2    
   112   57  112 1    
   113   57  113 1    
   114   59   60 1    
   115   59  114 1    
   116   59  115 1    
   117   60   61 1    
   118   61  116 1    
   119   61  117 1    
@<TRIPOS>SUBSTRUCTURE
     1 UNK         1 GROUP             0       ****    0 ROOT    
