@<TRIPOS>MOLECULE
3R8
117   119    1
SMALL
USER_CHARGES


@<TRIPOS>ATOM
      1 CA         18.7682  -27.0406  -42.0168 C.3       0 UNK        -0.2013 
      2 C          17.7300  -26.3418  -42.8798 C.2       0 UNK         0.4866 
      3 O          17.2703  -25.2590  -42.5181 O.2       0 UNK        -0.5176 
      4 N          17.3605  -26.9450  -44.0192 N.am      1 UNK        -0.4884 
      5 CA         16.3941  -26.3928  -44.9827 C.3       1 UNK         0.0853 
      6 C6         15.9898  -27.4179  -46.0701 C.3       10 UNK        -0.0849 
      7 S7         15.2126  -28.9126  -45.3739 S.3       10 UNK        -0.2776 
      8 C8         16.4004  -30.2092  -45.8523 C.3       10 UNK         0.0316 
      9 C9         17.6699  -30.1734  -45.0120 C.ar      10 UNK        -0.0863 
     10 C10        17.6174  -30.5296  -43.6617 C.ar      10 UNK        -0.1009 
     11 C11        18.7810  -30.5609  -42.8902 C.ar      10 UNK        -0.0712 
     12 C12        20.0069  -30.2282  -43.4755 C.ar      10 UNK        -0.0894 
     13 C13        20.0736  -29.8604  -44.8224 C.ar      10 UNK        -0.0745 
     14 C14        18.9004  -29.8347  -45.5863 C.ar      10 UNK        -0.0972 
     15 C15        21.4206  -29.5560  -45.4667 C.3       10 UNK         0.0209 
     16 S16        21.5456  -27.8419  -46.0667 S.3       10 UNK        -0.2568 
     17 C17        22.0258  -26.9361  -44.5571 C.3       10 UNK        -0.0983 
     18 CA         22.0898  -25.4056  -44.8044 C.3       3 UNK         0.0876 
     19 N          20.7834  -24.8679  -45.1768 N.am      3 UNK        -0.4424 
     20 C          20.4667  -24.3321  -46.3614 C.2       2 UNK         0.4918 
     21 O          21.2762  -24.1386  -47.2698 O.2       2 UNK        -0.4875 
     22 CA         18.9762  -24.0232  -46.5740 C.3       2 UNK         0.0481 
     23 CB         18.6115  -23.7761  -48.0523 C.3       2 UNK        -0.1831 
     24 N          18.1997  -25.1354  -46.0305 N.am      2 UNK        -0.4498 
     25 C          16.9198  -25.1040  -45.6458 C.2       1 UNK         0.5027 
     26 O          16.1802  -24.1272  -45.7736 O.2       1 UNK        -0.4969 
     27 C          22.5671  -24.6544  -43.5518 C.2       3 UNK         0.5005 
     28 O          21.7483  -24.3186  -42.6914 O.2       3 UNK        -0.5279 
     29 N          23.8807  -24.4025  -43.4709 N.am      4 UNK        -0.4463 
     30 CA         24.5242  -23.6512  -42.3855 C.3       4 UNK         0.0283 
     31 CB         25.9004  -23.1609  -42.8670 C.3       4 UNK        -0.1875 
     32 C          24.6692  -24.4424  -41.0717 C.2       4 UNK         0.4949 
     33 O          24.9541  -23.8393  -40.0365 O.2       4 UNK        -0.5039 
     34 N          24.4867  -25.7645  -41.1304 N.am      5 UNK        -0.4663 
     35 CA         24.5334  -26.6886  -40.0035 C.3       5 UNK         0.0242 
     36 CB         25.9659  -27.2329  -39.8490 C.3       5 UNK        -0.1982 
     37 C          23.5319  -27.8207  -40.2600 C.2       5 UNK         0.5017 
     38 O          23.0421  -27.9619  -41.3844 O.2       5 UNK        -0.5012 
     39 N          23.2638  -28.6165  -39.2157 N.am      6 UNK        -0.4439 
     40 CA         22.3741  -29.7812  -39.2594 C.3       6 UNK         0.0297 
     41 CB         22.1844  -30.3359  -37.8378 C.3       6 UNK        -0.2006 
     42 C          22.8640  -30.8891  -40.2074 C.2       6 UNK         0.4892 
     43 O          22.0371  -31.5228  -40.8611 O.2       6 UNK        -0.5089 
     44 N          24.1903  -31.0890  -40.2737 N.am      7 UNK        -0.4243 
     45 CA         24.8912  -32.0500  -41.1330 C.3       7 UNK         0.0196 
     46 CB         24.8744  -31.5544  -42.5984 C.3       7 UNK        -0.2007 
     47 C          24.3475  -33.4802  -40.9439 C.2       7 UNK         0.5020 
     48 O          24.5238  -34.0530  -39.8674 O.2       7 UNK        -0.5147 
     49 N          23.6602  -34.0110  -41.9641 N.am      8 UNK        -0.4734 
     50 CA         22.9908  -35.3150  -41.9536 C.3       8 UNK         0.0238 
     51 CB         22.4653  -35.6183  -43.3663 C.3       8 UNK        -0.1912 
     52 C          21.8529  -35.4380  -40.9216 C.2       8 UNK         0.5038 
     53 O          21.5390  -36.5600  -40.5211 O.2       8 UNK        -0.5046 
     54 N          21.2654  -34.3079  -40.5038 N.am      9 UNK        -0.4200 
     55 CA         20.2449  -34.2447  -39.4455 C.3       9 UNK         0.0839 
     56 C          20.8270  -34.3629  -38.0060 C.2       9 UNK         0.5513 
     57 N          22.1408  -34.3374  -37.8058 N.am      9 UNK        -0.7519 
     58 O          20.0671  -34.4838  -37.0487 O.2       9 UNK        -0.4960 
     59 C59        19.3315  -32.9943  -39.5696 C.3       10 UNK        -0.0876 
     60 S60        18.6344  -32.7699  -41.2429 S.3       10 UNK        -0.2414 
     61 C61        18.7149  -30.9598  -41.4259 C.3       10 UNK         0.0169 
     62 H62        19.4667  -26.3147  -41.6003 H         1 UNK         0.0903 
     63 H63        18.2853  -27.5652  -41.1930 H         1 UNK         0.0903 
     64 H64        19.3455  -27.7595  -42.5921 H         1 UNK         0.0903 
     65 H65        17.7252  -27.8628  -44.2413 H         1 UNK         0.3096 
     66 H66        15.4957  -26.1190  -44.4245 H         1 UNK         0.1121 
     67 H67        16.8525  -27.6986  -46.6773 H         1 UNK         0.0849 
     68 H68        15.2705  -26.9727  -46.7608 H         1 UNK         0.0849 
     69 H69        15.9232  -31.1820  -45.7249 H         1 UNK         0.0865 
     70 H70        16.6282  -30.1252  -46.9162 H         1 UNK         0.0865 
     71 H71        16.6703  -30.7992  -43.2138 H         1 UNK         0.1346 
     72 H72        20.9103  -30.2631  -42.8813 H         1 UNK         0.1412 
     73 H73        18.9545  -29.5717  -46.6343 H         1 UNK         0.1426 
     74 H74        21.5596  -30.2297  -46.3133 H         1 UNK         0.0716 
     75 H75        22.2430  -29.7598  -44.7787 H         1 UNK         0.0716 
     76 H76        22.9969  -27.3139  -44.2316 H         1 UNK         0.0695 
     77 H77        21.3204  -27.1749  -43.7601 H         1 UNK         0.0695 
     78 H78        22.8110  -25.2156  -45.6028 H         1 UNK         0.0983 
     79 H79        20.0905  -24.8818  -44.4419 H         1 UNK         0.3095 
     80 H80        18.7514  -23.1216  -46.0007 H         1 UNK         0.0454 
     81 H81        19.1800  -22.9401  -48.4614 H         1 UNK         0.0851 
     82 H82        17.5558  -23.5324  -48.1698 H         1 UNK         0.0851 
     83 H83        18.8244  -24.6503  -48.6685 H         1 UNK         0.0851 
     84 H84        18.7193  -25.9907  -45.8823 H         1 UNK         0.2976 
     85 H85        24.4868  -24.7215  -44.2143 H         1 UNK         0.3116 
     86 H86        23.9108  -22.7743  -42.1665 H         1 UNK         0.0646 
     87 H87        26.3926  -22.5621  -42.0993 H         1 UNK         0.0847 
     88 H88        26.5653  -23.9921  -43.1055 H         1 UNK         0.0847 
     89 H89        25.8122  -22.5336  -43.7542 H         1 UNK         0.0847 
     90 H90        24.1719  -26.1816  -41.9970 H         1 UNK         0.3040 
     91 H91        24.2325  -26.1702  -39.0900 H         1 UNK         0.1015 
     92 H92        26.0460  -27.9064  -38.9951 H         1 UNK         0.0786 
     93 H93        26.6801  -26.4252  -39.6872 H         1 UNK         0.0786 
     94 H94        26.2834  -27.7859  -40.7342 H         1 UNK         0.0786 
     95 H95        23.7078  -28.4195  -38.3298 H         1 UNK         0.3172 
     96 H96        21.4033  -29.4415  -39.6260 H         1 UNK         0.0595 
     97 H97        23.1302  -30.6513  -37.3956 H         1 UNK         0.0839 
     98 H98        21.5259  -31.2046  -37.8374 H         1 UNK         0.0839 
     99 H99        21.7354  -29.5933  -37.1780 H         1 UNK         0.0839 
    100 H100       24.7769  -30.5355  -39.6665 H         1 UNK         0.2998 
    101 H101       25.9304  -32.0722  -40.8012 H         1 UNK         0.0822 
    102 H102       25.4162  -32.2372  -43.2544 H         1 UNK         0.0787 
    103 H103       23.8617  -31.4446  -42.9887 H         1 UNK         0.0787 
    104 H104       25.3590  -30.5815  -42.6829 H         1 UNK         0.0787 
    105 H105       23.5353  -33.4450  -42.7910 H         1 UNK         0.3055 
    106 H106       23.7386  -36.0677  -41.6942 H         1 UNK         0.1106 
    107 H107       23.2726  -35.6269  -44.0988 H         1 UNK         0.0828 
    108 H108       21.9875  -36.5985  -43.4032 H         1 UNK         0.0828 
    109 H109       21.7253  -34.8838  -43.6873 H         1 UNK         0.0828 
    110 H110       21.5867  -33.4118  -40.8596 H         1 UNK         0.2931 
    111 H111       19.5965  -35.1138  -39.5731 H         1 UNK         0.0412 
    112 H112       22.7863  -34.2524  -38.5811 H         1 UNK         0.3472 
    113 H113       22.4956  -34.4214  -36.8664 H         1 UNK         0.3472 
    114 H114       18.4984  -33.0624  -38.8676 H         1 UNK         0.0970 
    115 H115       19.8877  -32.1010  -39.2864 H         1 UNK         0.0970 
    116 H116       17.8389  -30.5122  -40.9545 H         1 UNK         0.0612 
    117 H117       19.5814  -30.5587  -40.9012 H         1 UNK         0.0612 
@<TRIPOS>BOND
     1    1    2 1    
     2    1   62 1    
     3    1   63 1    
     4    1   64 1    
     5    2    3 2    
     6    2    4 am   BACKBONE|DICT|INTERRES
     7    4    5 1    
     8    4   65 1    
     9    5    6 1    
    10    5   25 1    
    11    5   66 1    
    12    6    7 1    
    13    6   67 1    
    14    6   68 1    
    15    7    8 1    
    16    8    9 1    
    17    8   69 1    
    18    8   70 1    
    19    9   10 ar   
    20    9   14 ar   
    21   10   11 ar   
    22   10   71 1    
    23   11   12 ar   
    24   11   61 1    
    25   12   13 ar   
    26   12   72 1    
    27   13   14 ar   
    28   13   15 1    
    29   14   73 1    
    30   15   16 1    
    31   15   74 1    
    32   15   75 1    
    33   16   17 1    
    34   17   18 1    
    35   17   76 1    
    36   17   77 1    
    37   18   19 1    
    38   18   27 1    
    39   18   78 1    
    40   19   20 am   BACKBONE|DICT|INTERRES
    41   19   79 1    
    42   20   21 2    
    43   20   22 1    
    44   22   23 1    
    45   22   24 1    
    46   22   80 1    
    47   23   81 1    
    48   23   82 1    
    49   23   83 1    
    50   24   25 am   BACKBONE|DICT|INTERRES
    51   24   84 1    
    52   25   26 2    
    53   27   28 2    
    54   27   29 am   BACKBONE|DICT|INTERRES
    55   29   30 1    
    56   29   85 1    
    57   30   31 1    
    58   30   32 1    
    59   30   86 1    
    60   31   87 1    
    61   31   88 1    
    62   31   89 1    
    63   32   33 2    
    64   32   34 am   BACKBONE|DICT|INTERRES
    65   34   35 1    
    66   34   90 1    
    67   35   36 1    
    68   35   37 1    
    69   35   91 1    
    70   36   92 1    
    71   36   93 1    
    72   36   94 1    
    73   37   38 2    
    74   37   39 am   BACKBONE|DICT|INTERRES
    75   39   40 1    
    76   39   95 1    
    77   40   41 1    
    78   40   42 1    
    79   40   96 1    
    80   41   97 1    
    81   41   98 1    
    82   41   99 1    
    83   42   43 2    
    84   42   44 am   BACKBONE|DICT|INTERRES
    85   44   45 1    
    86   44  100 1    
    87   45   46 1    
    88   45   47 1    
    89   45  101 1    
    90   46  102 1    
    91   46  103 1    
    92   46  104 1    
    93   47   48 2    
    94   47   49 am   BACKBONE|DICT|INTERRES
    95   49   50 1    
    96   49  105 1    
    97   50   51 1    
    98   50   52 1    
    99   50  106 1    
   100   51  107 1    
   101   51  108 1    
   102   51  109 1    
   103   52   53 2    
   104   52   54 am   BACKBONE|DICT|INTERRES
   105   54   55 1    
   106   54  110 1    
   107   55   56 1    
   108   55   59 1    
   109   55  111 1    
   110   56   57 am   BACKBONE|DICT|INTERRES
   111   56   58 2    
   112   57  112 1    
   113   57  113 1    
   114   59   60 1    
   115   59  114 1    
   116   59  115 1    
   117   60   61 1    
   118   61  116 1    
   119   61  117 1    
@<TRIPOS>SUBSTRUCTURE
     1 UNK         1 GROUP             0       ****    0 ROOT    
