@<TRIPOS>MOLECULE
3R8
117   119    1
SMALL
USER_CHARGES


@<TRIPOS>ATOM
      1 CA         14.3462  -24.9780  -42.5669 C.3       0 UNK        -0.2013 
      2 C          15.4464  -25.9251  -43.0203 C.2       0 UNK         0.4866 
      3 O          16.6251  -25.5759  -42.9466 O.2       0 UNK        -0.5176 
      4 N          15.0754  -27.1266  -43.4808 N.am      1 UNK        -0.4884 
      5 CA         15.9801  -28.1740  -43.9737 C.3       1 UNK         0.0853 
      6 C6         15.2539  -29.1384  -44.9462 C.3       10 UNK        -0.0849 
      7 S7         14.9121  -28.3046  -46.5333 S.3       10 UNK        -0.2776 
      8 C8         16.1849  -29.0243  -47.6268 C.3       10 UNK         0.0316 
      9 C9         17.5900  -28.9490  -47.0380 C.ar      10 UNK        -0.0863 
     10 C10        18.2429  -30.1177  -46.6362 C.ar      10 UNK        -0.1009 
     11 C11        19.5316  -30.0688  -46.0954 C.ar      10 UNK        -0.0712 
     12 C12        20.1737  -28.8330  -45.9682 C.ar      10 UNK        -0.0894 
     13 C13        19.5366  -27.6556  -46.3762 C.ar      10 UNK        -0.0745 
     14 C14        18.2446  -27.7206  -46.9091 C.ar      10 UNK        -0.0972 
     15 C15        20.2532  -26.3151  -46.2905 C.3       10 UNK         0.0209 
     16 S16        20.0621  -25.5364  -44.6567 S.3       10 UNK        -0.2568 
     17 C17        21.5339  -26.1605  -43.7779 C.3       10 UNK        -0.0983 
     18 CA         21.2657  -26.4331  -42.2782 C.3       3 UNK         0.0876 
     19 N          20.1804  -27.3964  -42.0881 N.am      3 UNK        -0.4424 
     20 C          19.6106  -27.7065  -40.9163 C.2       2 UNK         0.4918 
     21 O          19.9869  -27.2650  -39.8299 O.2       2 UNK        -0.4875 
     22 CA         18.3726  -28.6126  -40.9944 C.3       2 UNK         0.0481 
     23 CB         17.5805  -28.6848  -39.6748 C.3       2 UNK        -0.1831 
     24 N          17.5134  -28.1542  -42.0812 N.am      2 UNK        -0.4498 
     25 C          16.6851  -28.9049  -42.8122 C.2       1 UNK         0.5027 
     26 O          16.4686  -30.0985  -42.5970 O.2       1 UNK        -0.4969 
     27 C          22.5700  -26.8834  -41.5941 C.2       3 UNK         0.5005 
     28 O          22.9397  -28.0559  -41.6974 O.2       3 UNK        -0.5279 
     29 N          23.2848  -25.9217  -40.9894 N.am      4 UNK        -0.4463 
     30 CA         24.5895  -26.1098  -40.3407 C.3       4 UNK         0.0283 
     31 CB         25.0147  -24.8018  -39.6557 C.3       4 UNK        -0.1875 
     32 C          25.6955  -26.6000  -41.2923 C.2       4 UNK         0.4949 
     33 O          26.6162  -27.2851  -40.8482 O.2       4 UNK        -0.5039 
     34 N          25.5559  -26.2969  -42.5912 N.am      5 UNK        -0.4663 
     35 CA         26.3966  -26.8101  -43.6783 C.3       5 UNK         0.0242 
     36 CB         26.0073  -26.1005  -44.9854 C.3       5 UNK        -0.1982 
     37 C          26.3195  -28.3400  -43.8562 C.2       5 UNK         0.5017 
     38 O          27.2497  -28.9241  -44.4121 O.2       5 UNK        -0.5012 
     39 N          25.2336  -28.9559  -43.3693 N.am      6 UNK        -0.4439 
     40 CA         25.0167  -30.4004  -43.3206 C.3       6 UNK         0.0297 
     41 CB         23.7371  -30.7269  -44.1114 C.3       6 UNK        -0.2006 
     42 C          24.9213  -30.8822  -41.8606 C.2       6 UNK         0.4892 
     43 O          24.2564  -31.8881  -41.6035 O.2       6 UNK        -0.5089 
     44 N          25.5415  -30.1416  -40.9262 N.am      7 UNK        -0.4243 
     45 CA         25.4979  -30.2744  -39.4630 C.3       7 UNK         0.0196 
     46 CB         26.0682  -31.6261  -38.9867 C.3       7 UNK        -0.2007 
     47 C          24.1009  -29.9972  -38.8816 C.2       7 UNK         0.5020 
     48 O          23.9340  -29.0402  -38.1262 O.2       7 UNK        -0.5147 
     49 N          23.1288  -30.8301  -39.2589 N.am      8 UNK        -0.4734 
     50 CA         21.7064  -30.6863  -38.9541 C.3       8 UNK         0.0238 
     51 CB         21.4189  -31.2044  -37.5302 C.3       8 UNK        -0.1912 
     52 C          20.8184  -31.3759  -40.0078 C.2       8 UNK         0.5038 
     53 O          19.6282  -31.5526  -39.7472 O.2       8 UNK        -0.5046 
     54 N          21.3869  -31.7689  -41.1606 N.am      9 UNK        -0.4200 
     55 CA         20.7381  -32.5797  -42.2037 C.3       9 UNK         0.0839 
     56 C          20.3124  -33.9913  -41.6817 C.2       9 UNK         0.5513 
     57 N          19.3137  -34.6293  -42.2753 N.am      9 UNK        -0.7519 
     58 O          20.9210  -34.5426  -40.7661 O.2       9 UNK        -0.4960 
     59 C59        19.6385  -31.7793  -42.9687 C.3       10 UNK        -0.0876 
     60 S60        19.2863  -32.4453  -44.6331 S.3       10 UNK        -0.2414 
     61 C61        20.2583  -31.3560  -45.7227 C.3       10 UNK         0.0169 
     62 H62        14.3850  -24.0553  -43.1454 H         1 UNK         0.0903 
     63 H63        13.3550  -25.4141  -42.6903 H         1 UNK         0.0903 
     64 H64        14.4781  -24.7265  -41.5149 H         1 UNK         0.0903 
     65 H65        14.0930  -27.3612  -43.5042 H         1 UNK         0.3096 
     66 H66        16.7824  -27.6880  -44.5330 H         1 UNK         0.1121 
     67 H67        15.8439  -30.0361  -45.1382 H         1 UNK         0.0849 
     68 H68        14.3149  -29.4901  -44.5153 H         1 UNK         0.0849 
     69 H69        15.9144  -30.0585  -47.8460 H         1 UNK         0.0865 
     70 H70        16.1675  -28.4995  -48.5831 H         1 UNK         0.0865 
     71 H71        17.7507  -31.0741  -46.7496 H         1 UNK         0.1346 
     72 H72        21.1812  -28.7925  -45.5795 H         1 UNK         0.1412 
     73 H73        17.7458  -26.8148  -47.2270 H         1 UNK         0.1426 
     74 H74        21.3108  -26.4320  -46.5319 H         1 UNK         0.0716 
     75 H75        19.8518  -25.6345  -47.0429 H         1 UNK         0.0716 
     76 H76        21.8988  -27.0650  -44.2660 H         1 UNK         0.0695 
     77 H77        22.3219  -25.4144  -43.8978 H         1 UNK         0.0695 
     78 H78        20.9417  -25.4991  -41.8133 H         1 UNK         0.0983 
     79 H79        19.8040  -27.8002  -42.9325 H         1 UNK         0.3095 
     80 H80        18.7323  -29.6107  -41.2377 H         1 UNK         0.0454 
     81 H81        17.1992  -27.7065  -39.3807 H         1 UNK         0.0851 
     82 H82        16.7338  -29.3662  -39.7569 H         1 UNK         0.0851 
     83 H83        18.2092  -29.0528  -38.8629 H         1 UNK         0.0851 
     84 H84        17.5592  -27.1615  -42.3043 H         1 UNK         0.2976 
     85 H85        22.9090  -24.9839  -40.9644 H         1 UNK         0.3116 
     86 H86        24.4645  -26.8721  -39.5705 H         1 UNK         0.0646 
     87 H87        25.9702  -24.9235  -39.1431 H         1 UNK         0.0847 
     88 H88        24.2871  -24.4903  -38.9061 H         1 UNK         0.0847 
     89 H89        25.1318  -23.9877  -40.3721 H         1 UNK         0.0847 
     90 H90        24.7781  -25.7121  -42.8585 H         1 UNK         0.3040 
     91 H91        27.4347  -26.5637  -43.4440 H         1 UNK         0.1015 
     92 H92        26.1348  -25.0207  -44.9052 H         1 UNK         0.0786 
     93 H93        24.9701  -26.2985  -45.2597 H         1 UNK         0.0786 
     94 H94        26.6328  -26.4369  -45.8136 H         1 UNK         0.0786 
     95 H95        24.5268  -28.4023  -42.8922 H         1 UNK         0.3172 
     96 H96        25.8519  -30.9341  -43.7779 H         1 UNK         0.0595 
     97 H97        23.5684  -31.8032  -44.1623 H         1 UNK         0.0839 
     98 H98        23.8016  -30.3633  -45.1370 H         1 UNK         0.0839 
     99 H99        22.8578  -30.2755  -43.6495 H         1 UNK         0.0839 
    100 H100       26.0289  -29.3121  -41.2455 H         1 UNK         0.2998 
    101 H101       26.1555  -29.4930  -39.0781 H         1 UNK         0.0822 
    102 H102       27.0907  -31.7665  -39.3370 H         1 UNK         0.0787 
    103 H103       26.0900  -31.6737  -37.8972 H         1 UNK         0.0787 
    104 H104       25.4786  -32.4745  -39.3341 H         1 UNK         0.0787 
    105 H105       23.3926  -31.5739  -39.8977 H         1 UNK         0.3055 
    106 H106       21.4530  -29.6242  -38.9953 H         1 UNK         0.1106 
    107 H107       20.3708  -31.0641  -37.2628 H         1 UNK         0.0828 
    108 H108       21.6406  -32.2683  -37.4407 H         1 UNK         0.0828 
    109 H109       22.0106  -30.6741  -36.7841 H         1 UNK         0.0828 
    110 H110       22.3794  -31.6198  -41.3039 H         1 UNK         0.2931 
    111 H111       21.5414  -32.7808  -42.9131 H         1 UNK         0.0412 
    112 H112       19.0477  -35.5473  -41.9553 H         1 UNK         0.3472 
    113 H113       18.8389  -34.2035  -43.0583 H         1 UNK         0.3472 
    114 H114       19.9396  -30.7368  -43.0803 H         1 UNK         0.0970 
    115 H115       18.7106  -31.7598  -42.3943 H         1 UNK         0.0970 
    116 H116       21.2193  -31.1468  -45.2549 H         1 UNK         0.0612 
    117 H117       20.4790  -31.9001  -46.6418 H         1 UNK         0.0612 
@<TRIPOS>BOND
     1    1    2 1    
     2    1   62 1    
     3    1   63 1    
     4    1   64 1    
     5    2    3 2    
     6    2    4 am   BACKBONE|DICT|INTERRES
     7    4    5 1    
     8    4   65 1    
     9    5    6 1    
    10    5   25 1    
    11    5   66 1    
    12    6    7 1    
    13    6   67 1    
    14    6   68 1    
    15    7    8 1    
    16    8    9 1    
    17    8   69 1    
    18    8   70 1    
    19    9   10 ar   
    20    9   14 ar   
    21   10   11 ar   
    22   10   71 1    
    23   11   12 ar   
    24   11   61 1    
    25   12   13 ar   
    26   12   72 1    
    27   13   14 ar   
    28   13   15 1    
    29   14   73 1    
    30   15   16 1    
    31   15   74 1    
    32   15   75 1    
    33   16   17 1    
    34   17   18 1    
    35   17   76 1    
    36   17   77 1    
    37   18   19 1    
    38   18   27 1    
    39   18   78 1    
    40   19   20 am   BACKBONE|DICT|INTERRES
    41   19   79 1    
    42   20   21 2    
    43   20   22 1    
    44   22   23 1    
    45   22   24 1    
    46   22   80 1    
    47   23   81 1    
    48   23   82 1    
    49   23   83 1    
    50   24   25 am   BACKBONE|DICT|INTERRES
    51   24   84 1    
    52   25   26 2    
    53   27   28 2    
    54   27   29 am   BACKBONE|DICT|INTERRES
    55   29   30 1    
    56   29   85 1    
    57   30   31 1    
    58   30   32 1    
    59   30   86 1    
    60   31   87 1    
    61   31   88 1    
    62   31   89 1    
    63   32   33 2    
    64   32   34 am   BACKBONE|DICT|INTERRES
    65   34   35 1    
    66   34   90 1    
    67   35   36 1    
    68   35   37 1    
    69   35   91 1    
    70   36   92 1    
    71   36   93 1    
    72   36   94 1    
    73   37   38 2    
    74   37   39 am   BACKBONE|DICT|INTERRES
    75   39   40 1    
    76   39   95 1    
    77   40   41 1    
    78   40   42 1    
    79   40   96 1    
    80   41   97 1    
    81   41   98 1    
    82   41   99 1    
    83   42   43 2    
    84   42   44 am   BACKBONE|DICT|INTERRES
    85   44   45 1    
    86   44  100 1    
    87   45   46 1    
    88   45   47 1    
    89   45  101 1    
    90   46  102 1    
    91   46  103 1    
    92   46  104 1    
    93   47   48 2    
    94   47   49 am   BACKBONE|DICT|INTERRES
    95   49   50 1    
    96   49  105 1    
    97   50   51 1    
    98   50   52 1    
    99   50  106 1    
   100   51  107 1    
   101   51  108 1    
   102   51  109 1    
   103   52   53 2    
   104   52   54 am   BACKBONE|DICT|INTERRES
   105   54   55 1    
   106   54  110 1    
   107   55   56 1    
   108   55   59 1    
   109   55  111 1    
   110   56   57 am   BACKBONE|DICT|INTERRES
   111   56   58 2    
   112   57  112 1    
   113   57  113 1    
   114   59   60 1    
   115   59  114 1    
   116   59  115 1    
   117   60   61 1    
   118   61  116 1    
   119   61  117 1    
@<TRIPOS>SUBSTRUCTURE
     1 UNK         1 GROUP             0       ****    0 ROOT    
