@<TRIPOS>MOLECULE
3R8
117   119    1
SMALL
USER_CHARGES


@<TRIPOS>ATOM
      1 CA         15.7470  -22.2238  -43.7763 C.3       0 UNK        -0.2013 
      2 C          16.6478  -23.3691  -43.3385 C.2       0 UNK         0.4866 
      3 O          17.3108  -23.2607  -42.3071 O.2       0 UNK        -0.5176 
      4 N          16.6763  -24.4579  -44.1209 N.am      1 UNK        -0.4884 
      5 CA         17.4533  -25.6859  -43.8860 C.3       1 UNK         0.0853 
      6 C6         16.9884  -26.4928  -42.6395 C.3       10 UNK        -0.0849 
      7 S7         15.2922  -27.1350  -42.8448 S.3       10 UNK        -0.2776 
      8 C8         15.5157  -28.9245  -42.5244 C.3       10 UNK         0.0316 
      9 C9         16.4265  -29.6694  -43.5048 C.ar      10 UNK        -0.0863 
     10 C10        17.0751  -30.8325  -43.0743 C.ar      10 UNK        -0.1009 
     11 C11        17.8981  -31.5585  -43.9413 C.ar      10 UNK        -0.0712 
     12 C12        18.0927  -31.1020  -45.2486 C.ar      10 UNK        -0.0894 
     13 C13        17.4343  -29.9562  -45.7032 C.ar      10 UNK        -0.0745 
     14 C14        16.5953  -29.2540  -44.8316 C.ar      10 UNK        -0.0972 
     15 C15        17.5663  -29.5115  -47.1532 C.3       10 UNK         0.0209 
     16 S16        18.3170  -27.8591  -47.3037 S.3       10 UNK        -0.2568 
     17 C17        20.0357  -28.2120  -47.8331 C.3       10 UNK        -0.0983 
     18 CA         21.1304  -27.6944  -46.8599 C.3       3 UNK         0.0876 
     19 N          20.8026  -26.3595  -46.3561 N.am      3 UNK        -0.4424 
     20 C          21.5768  -25.5398  -45.6357 C.2       2 UNK         0.4918 
     21 O          22.7559  -25.7652  -45.3649 O.2       2 UNK        -0.4875 
     22 CA         20.8723  -24.2957  -45.0556 C.3       2 UNK         0.0481 
     23 CB         21.0264  -23.0967  -46.0033 C.3       2 UNK        -0.1831 
     24 N          19.4445  -24.5246  -44.7770 N.am      2 UNK        -0.4498 
     25 C          18.9796  -25.4478  -43.9183 C.2       1 UNK         0.5027 
     26 O          19.7237  -26.1391  -43.2242 O.2       1 UNK        -0.4969 
     27 C          21.4627  -28.7307  -45.7613 C.2       3 UNK         0.5005 
     28 O          22.0970  -29.7380  -46.0796 O.2       3 UNK        -0.5279 
     29 N          21.0797  -28.4745  -44.5001 N.am      4 UNK        -0.4463 
     30 CA         21.4562  -29.2981  -43.3481 C.3       4 UNK         0.0283 
     31 CB         20.4444  -29.0849  -42.2098 C.3       4 UNK        -0.1875 
     32 C          22.8806  -29.0160  -42.8398 C.2       4 UNK         0.4949 
     33 O          23.3634  -29.7726  -41.9963 O.2       4 UNK        -0.5039 
     34 N          23.5159  -27.9343  -43.3217 N.am      5 UNK        -0.4663 
     35 CA         24.8124  -27.4063  -42.8826 C.3       5 UNK         0.0242 
     36 CB         25.9561  -28.3690  -43.2795 C.3       5 UNK        -0.1982 
     37 C          24.7741  -27.0403  -41.3853 C.2       5 UNK         0.5017 
     38 O          23.8067  -26.4159  -40.9451 O.2       5 UNK        -0.5012 
     39 N          25.7824  -27.4622  -40.6126 N.am      6 UNK        -0.4439 
     40 CA         25.8462  -27.3179  -39.1546 C.3       6 UNK         0.0297 
     41 CB         27.3249  -27.2577  -38.7262 C.3       6 UNK        -0.2006 
     42 C          25.0626  -28.4377  -38.4347 C.2       6 UNK         0.4892 
     43 O          25.5921  -29.0505  -37.5060 O.2       6 UNK        -0.5089 
     44 N          23.8267  -28.6931  -38.8941 N.am      7 UNK        -0.4243 
     45 CA         22.9114  -29.7628  -38.4733 C.3       7 UNK         0.0196 
     46 CB         22.3793  -29.4963  -37.0493 C.3       7 UNK        -0.2007 
     47 C          23.5398  -31.1615  -38.6344 C.2       7 UNK         0.5020 
     48 O          23.5717  -31.9454  -37.6839 O.2       7 UNK        -0.5147 
     49 N          24.0685  -31.4293  -39.8355 N.am      8 UNK        -0.4734 
     50 CA         24.7560  -32.6748  -40.1807 C.3       8 UNK         0.0238 
     51 CB         25.5844  -32.4605  -41.4582 C.3       8 UNK        -0.1912 
     52 C          23.7894  -33.8577  -40.3471 C.2       8 UNK         0.5038 
     53 O          24.1153  -34.9674  -39.9229 O.2       8 UNK        -0.5046 
     54 N          22.6278  -33.5989  -40.9586 N.am      9 UNK        -0.4200 
     55 CA         21.5264  -34.5580  -41.1084 C.3       9 UNK         0.0839 
     56 C          20.6478  -34.6579  -39.8309 C.2       9 UNK         0.5513 
     57 N          19.9359  -35.7637  -39.6590 N.am      9 UNK        -0.7519 
     58 O          20.5837  -33.7446  -39.0103 O.2       9 UNK        -0.4960 
     59 C59        20.6929  -34.2749  -42.3862 C.3       10 UNK        -0.0876 
     60 S60        20.0263  -32.5790  -42.4901 S.3       10 UNK        -0.2414 
     61 C61        18.5337  -32.8635  -43.4829 C.3       10 UNK         0.0169 
     62 H62        15.0042  -22.0166  -43.0063 H         1 UNK         0.0903 
     63 H63        16.3368  -21.3209  -43.9323 H         1 UNK         0.0903 
     64 H64        15.2196  -22.4489  -44.7031 H         1 UNK         0.0903 
     65 H65        16.0951  -24.4747  -44.9482 H         1 UNK         0.3096 
     66 H66        17.2717  -26.3173  -44.7567 H         1 UNK         0.1121 
     67 H67        17.0319  -25.8804  -41.7379 H         1 UNK         0.0849 
     68 H68        17.6501  -27.3406  -42.4540 H         1 UNK         0.0849 
     69 H69        15.8934  -29.0413  -41.5072 H         1 UNK         0.0865 
     70 H70        14.5348  -29.4009  -42.5420 H         1 UNK         0.0865 
     71 H71        16.9310  -31.1864  -42.0623 H         1 UNK         0.1346 
     72 H72        18.7283  -31.6606  -45.9221 H         1 UNK         0.1412 
     73 H73        16.0678  -28.3857  -45.1998 H         1 UNK         0.1426 
     74 H74        16.5688  -29.4740  -47.5932 H         1 UNK         0.0716 
     75 H75        18.1229  -30.2410  -47.7426 H         1 UNK         0.0716 
     76 H76        20.1667  -27.7164  -48.7962 H         1 UNK         0.0695 
     77 H77        20.1634  -29.2748  -48.0462 H         1 UNK         0.0695 
     78 H78        22.0523  -27.5857  -47.4355 H         1 UNK         0.0983 
     79 H79        19.8458  -26.0805  -46.5181 H         1 UNK         0.3095 
     80 H80        21.3609  -24.0508  -44.1103 H         1 UNK         0.0454 
     81 H81        20.6027  -22.1907  -45.5698 H         1 UNK         0.0851 
     82 H82        20.5379  -23.2716  -46.9626 H         1 UNK         0.0851 
     83 H83        22.0790  -22.8940  -46.2063 H         1 UNK         0.0851 
     84 H84        18.7771  -23.9779  -45.3025 H         1 UNK         0.2976 
     85 H85        20.5705  -27.6223  -44.2898 H         1 UNK         0.3116 
     86 H86        21.4187  -30.3460  -43.6481 H         1 UNK         0.0646 
     87 H87        19.4204  -29.2192  -42.5566 H         1 UNK         0.0847 
     88 H88        20.5280  -28.0908  -41.7709 H         1 UNK         0.0847 
     89 H89        20.6102  -29.8017  -41.4051 H         1 UNK         0.0847 
     90 H90        23.0248  -27.3537  -43.9920 H         1 UNK         0.3040 
     91 H91        24.9610  -26.4685  -43.4206 H         1 UNK         0.1015 
     92 H92        26.9340  -27.9259  -43.0873 H         1 UNK         0.0786 
     93 H93        25.9187  -28.5963  -44.3451 H         1 UNK         0.0786 
     94 H94        25.9054  -29.3172  -42.7427 H         1 UNK         0.0786 
     95 H95        26.5146  -28.0081  -41.0437 H         1 UNK         0.3172 
     96 H96        25.3835  -26.3710  -38.8682 H         1 UNK         0.0595 
     97 H97        27.8501  -28.1863  -38.9534 H         1 UNK         0.0839 
     98 H98        27.4149  -27.0864  -37.6526 H         1 UNK         0.0839 
     99 H99        27.8505  -26.4432  -39.2251 H         1 UNK         0.0839 
    100 H100       23.5075  -28.1238  -39.6696 H         1 UNK         0.2998 
    101 H101       22.0609  -29.7293  -39.1561 H         1 UNK         0.0822 
    102 H102       21.9060  -28.5169  -36.9800 H         1 UNK         0.0787 
    103 H103       21.6310  -30.2386  -36.7685 H         1 UNK         0.0787 
    104 H104       23.1744  -29.5383  -36.3042 H         1 UNK         0.0787 
    105 H105       23.9530  -30.7445  -40.5826 H         1 UNK         0.3055 
    106 H106       25.4418  -32.9231  -39.3673 H         1 UNK         0.1106 
    107 H107       24.9572  -32.1786  -42.3052 H         1 UNK         0.0828 
    108 H108       26.1188  -33.3703  -41.7348 H         1 UNK         0.0828 
    109 H109       26.3293  -31.6768  -41.3195 H         1 UNK         0.0828 
    110 H110       22.4255  -32.6496  -41.2365 H         1 UNK         0.2931 
    111 H111       21.9746  -35.5442  -41.2483 H         1 UNK         0.0412 
    112 H112       19.3509  -35.8465  -38.8419 H         1 UNK         0.3472 
    113 H113       19.9775  -36.5218  -40.3227 H         1 UNK         0.3472 
    114 H114       21.3165  -34.4382  -43.2665 H         1 UNK         0.0970 
    115 H115       19.8764  -34.9944  -42.4714 H         1 UNK         0.0970 
    116 H116       18.7898  -33.4797  -44.3463 H         1 UNK         0.0612 
    117 H117       17.8159  -33.4379  -42.8954 H         1 UNK         0.0612 
@<TRIPOS>BOND
     1    1    2 1    
     2    1   62 1    
     3    1   63 1    
     4    1   64 1    
     5    2    3 2    
     6    2    4 am   BACKBONE|DICT|INTERRES
     7    4    5 1    
     8    4   65 1    
     9    5    6 1    
    10    5   25 1    
    11    5   66 1    
    12    6    7 1    
    13    6   67 1    
    14    6   68 1    
    15    7    8 1    
    16    8    9 1    
    17    8   69 1    
    18    8   70 1    
    19    9   10 ar   
    20    9   14 ar   
    21   10   11 ar   
    22   10   71 1    
    23   11   12 ar   
    24   11   61 1    
    25   12   13 ar   
    26   12   72 1    
    27   13   14 ar   
    28   13   15 1    
    29   14   73 1    
    30   15   16 1    
    31   15   74 1    
    32   15   75 1    
    33   16   17 1    
    34   17   18 1    
    35   17   76 1    
    36   17   77 1    
    37   18   19 1    
    38   18   27 1    
    39   18   78 1    
    40   19   20 am   BACKBONE|DICT|INTERRES
    41   19   79 1    
    42   20   21 2    
    43   20   22 1    
    44   22   23 1    
    45   22   24 1    
    46   22   80 1    
    47   23   81 1    
    48   23   82 1    
    49   23   83 1    
    50   24   25 am   BACKBONE|DICT|INTERRES
    51   24   84 1    
    52   25   26 2    
    53   27   28 2    
    54   27   29 am   BACKBONE|DICT|INTERRES
    55   29   30 1    
    56   29   85 1    
    57   30   31 1    
    58   30   32 1    
    59   30   86 1    
    60   31   87 1    
    61   31   88 1    
    62   31   89 1    
    63   32   33 2    
    64   32   34 am   BACKBONE|DICT|INTERRES
    65   34   35 1    
    66   34   90 1    
    67   35   36 1    
    68   35   37 1    
    69   35   91 1    
    70   36   92 1    
    71   36   93 1    
    72   36   94 1    
    73   37   38 2    
    74   37   39 am   BACKBONE|DICT|INTERRES
    75   39   40 1    
    76   39   95 1    
    77   40   41 1    
    78   40   42 1    
    79   40   96 1    
    80   41   97 1    
    81   41   98 1    
    82   41   99 1    
    83   42   43 2    
    84   42   44 am   BACKBONE|DICT|INTERRES
    85   44   45 1    
    86   44  100 1    
    87   45   46 1    
    88   45   47 1    
    89   45  101 1    
    90   46  102 1    
    91   46  103 1    
    92   46  104 1    
    93   47   48 2    
    94   47   49 am   BACKBONE|DICT|INTERRES
    95   49   50 1    
    96   49  105 1    
    97   50   51 1    
    98   50   52 1    
    99   50  106 1    
   100   51  107 1    
   101   51  108 1    
   102   51  109 1    
   103   52   53 2    
   104   52   54 am   BACKBONE|DICT|INTERRES
   105   54   55 1    
   106   54  110 1    
   107   55   56 1    
   108   55   59 1    
   109   55  111 1    
   110   56   57 am   BACKBONE|DICT|INTERRES
   111   56   58 2    
   112   57  112 1    
   113   57  113 1    
   114   59   60 1    
   115   59  114 1    
   116   59  115 1    
   117   60   61 1    
   118   61  116 1    
   119   61  117 1    
@<TRIPOS>SUBSTRUCTURE
     1 UNK         1 GROUP             0       ****    0 ROOT    
