@<TRIPOS>MOLECULE
3R8
117   119    1
SMALL
USER_CHARGES


@<TRIPOS>ATOM
      1 CA         14.2183  -23.2165  -44.9154 C.3       0 UNK        -0.2013 
      2 C          15.3581  -23.8478  -44.1298 C.2       0 UNK         0.4866 
      3 O          15.8269  -23.2546  -43.1583 O.2       0 UNK        -0.5176 
      4 N          15.8016  -25.0416  -44.5507 N.am      1 UNK        -0.4884 
      5 CA         16.8826  -25.8387  -43.9485 C.3       1 UNK         0.0853 
      6 C6         16.5507  -26.3732  -42.5269 C.3       10 UNK        -0.0849 
      7 S7         15.0224  -27.3723  -42.4021 S.3       10 UNK        -0.2776 
      8 C8         15.2078  -28.6629  -43.6874 C.3       10 UNK         0.0316 
      9 C9         16.5800  -29.3321  -43.7205 C.ar      10 UNK        -0.0863 
     10 C10        17.2013  -29.7699  -42.5459 C.ar      10 UNK        -0.1009 
     11 C11        18.4777  -30.3404  -42.5744 C.ar      10 UNK        -0.0712 
     12 C12        19.1174  -30.5039  -43.8113 C.ar      10 UNK        -0.0894 
     13 C13        18.5006  -30.0928  -44.9955 C.ar      10 UNK        -0.0745 
     14 C14        17.2319  -29.5114  -44.9443 C.ar      10 UNK        -0.0972 
     15 C15        19.2056  -30.2745  -46.3324 C.3       10 UNK         0.0209 
     16 S16        19.9173  -28.7154  -46.9471 S.3       10 UNK        -0.2568 
     17 C17        21.2978  -28.4601  -45.7819 C.3       10 UNK        -0.0983 
     18 CA         21.8910  -27.0331  -45.8704 C.3       3 UNK         0.0876 
     19 N          20.8693  -26.0118  -45.6260 N.am      3 UNK        -0.4424 
     20 C          21.0301  -24.6851  -45.7145 C.2       2 UNK         0.4918 
     21 O          22.0955  -24.1489  -46.0232 O.2       2 UNK        -0.4875 
     22 CA         19.7931  -23.7958  -45.4576 C.3       2 UNK         0.0481 
     23 CB         19.5361  -22.8585  -46.6506 C.3       2 UNK        -0.1831 
     24 N          18.5594  -24.5408  -45.1774 N.am      2 UNK        -0.4498 
     25 C          18.2456  -25.1106  -44.0049 C.2       1 UNK         0.5027 
     26 O          18.9821  -25.0786  -43.0179 O.2       1 UNK        -0.4969 
     27 C          23.0842  -26.8982  -44.9019 C.2       3 UNK         0.5005 
     28 O          22.8806  -26.7036  -43.7002 O.2       3 UNK        -0.5279 
     29 N          24.3041  -27.0612  -45.4356 N.am      4 UNK        -0.4463 
     30 CA         25.5792  -26.9276  -44.7169 C.3       4 UNK         0.0283 
     31 CB         26.7357  -27.0103  -45.7268 C.3       4 UNK        -0.1875 
     32 C          25.7938  -27.9391  -43.5744 C.2       4 UNK         0.4949 
     33 O          26.6365  -27.6962  -42.7106 O.2       4 UNK        -0.5039 
     34 N          25.0296  -29.0406  -43.5780 N.am      5 UNK        -0.4663 
     35 CA         24.9916  -30.0433  -42.5107 C.3       5 UNK         0.0242 
     36 CB         24.1618  -31.2456  -42.9853 C.3       5 UNK        -0.1982 
     37 C          24.4436  -29.5026  -41.1763 C.2       5 UNK         0.5017 
     38 O          24.8321  -30.0183  -40.1256 O.2       5 UNK        -0.5012 
     39 N          23.5728  -28.4803  -41.2435 N.am      6 UNK        -0.4439 
     40 CA         22.9442  -27.7115  -40.1581 C.3       6 UNK         0.0297 
     41 CB         23.9985  -26.9038  -39.3766 C.3       6 UNK        -0.2006 
     42 C          22.0478  -28.5213  -39.2015 C.2       6 UNK         0.4892 
     43 O          20.8832  -28.1664  -39.0176 O.2       6 UNK        -0.5089 
     44 N          22.6106  -29.5737  -38.6040 N.am      7 UNK        -0.4243 
     45 CA         21.9569  -30.5018  -37.6837 C.3       7 UNK         0.0196 
     46 CB         22.1632  -30.0252  -36.2357 C.3       7 UNK        -0.2007 
     47 C          22.4494  -31.9474  -37.8624 C.2       7 UNK         0.5020 
     48 O          21.7376  -32.8668  -37.4585 O.2       7 UNK        -0.5147 
     49 N          23.6202  -32.1588  -38.4852 N.am      8 UNK        -0.4734 
     50 CA         24.1922  -33.4801  -38.7781 C.3       8 UNK         0.0238 
     51 CB         25.7282  -33.3659  -38.7596 C.3       8 UNK        -0.1912 
     52 C          23.6591  -34.0327  -40.1154 C.2       8 UNK         0.5038 
     53 O          24.4357  -34.4980  -40.9513 O.2       8 UNK        -0.5046 
     54 N          22.3428  -33.9143  -40.3103 N.am      9 UNK        -0.4200 
     55 CA         21.6391  -34.1227  -41.5840 C.3       9 UNK         0.0839 
     56 C          21.2853  -35.6045  -41.8959 C.2       9 UNK         0.5513 
     57 N          21.5370  -36.5527  -41.0015 N.am      9 UNK        -0.7519 
     58 O          20.7791  -35.9003  -42.9751 O.2       9 UNK        -0.4960 
     59 C59        20.3920  -33.2035  -41.6860 C.3       10 UNK        -0.0876 
     60 S60        20.7886  -31.4544  -41.3351 S.3       10 UNK        -0.2414 
     61 C61        19.1222  -30.7198  -41.2390 C.3       10 UNK         0.0169 
     62 H62        13.8958  -23.8445  -45.7457 H         1 UNK         0.0903 
     63 H63        13.3610  -23.0513  -44.2634 H         1 UNK         0.0903 
     64 H64        14.5296  -22.2536  -45.3196 H         1 UNK         0.0903 
     65 H65        15.3586  -25.4618  -45.3563 H         1 UNK         0.3096 
     66 H66        17.0144  -26.7011  -44.6004 H         1 UNK         0.1121 
     67 H67        17.3735  -26.9839  -42.1509 H         1 UNK         0.0849 
     68 H68        16.4611  -25.5427  -41.8247 H         1 UNK         0.0849 
     69 H69        14.4505  -29.4301  -43.5217 H         1 UNK         0.0865 
     70 H70        14.9755  -28.2154  -44.6549 H         1 UNK         0.0865 
     71 H71        16.6996  -29.6357  -41.5970 H         1 UNK         0.1346 
     72 H72        20.1047  -30.9376  -43.8689 H         1 UNK         0.1412 
     73 H73        16.7605  -29.1881  -45.8627 H         1 UNK         0.1426 
     74 H74        18.4926  -30.6495  -47.0681 H         1 UNK         0.0716 
     75 H75        19.9915  -31.0281  -46.2596 H         1 UNK         0.0716 
     76 H76        20.9486  -28.6542  -44.7665 H         1 UNK         0.0695 
     77 H77        22.0602  -29.2115  -45.9967 H         1 UNK         0.0695 
     78 H78        22.2559  -26.8741  -46.8874 H         1 UNK         0.0983 
     79 H79        19.9619  -26.3615  -45.3629 H         1 UNK         0.3095 
     80 H80        20.0239  -23.1751  -44.5894 H         1 UNK         0.0454 
     81 H81        20.4050  -22.2308  -46.8531 H         1 UNK         0.0851 
     82 H82        19.3185  -23.4159  -47.5625 H         1 UNK         0.0851 
     83 H83        18.6980  -22.1888  -46.4569 H         1 UNK         0.0851 
     84 H84        17.8934  -24.6080  -45.9342 H         1 UNK         0.2976 
     85 H85        24.3747  -27.2409  -46.4276 H         1 UNK         0.3116 
     86 H86        25.5933  -25.9334  -44.2651 H         1 UNK         0.0646 
     87 H87        27.6986  -26.8794  -45.2306 H         1 UNK         0.0847 
     88 H88        26.6593  -26.2314  -46.4857 H         1 UNK         0.0847 
     89 H89        26.7610  -27.9754  -46.2343 H         1 UNK         0.0847 
     90 H90        24.3839  -29.1637  -44.3434 H         1 UNK         0.3040 
     91 H91        26.0144  -30.3799  -42.3266 H         1 UNK         0.1015 
     92 H92        24.6040  -31.7126  -43.8654 H         1 UNK         0.0786 
     93 H93        23.1387  -30.9604  -43.2328 H         1 UNK         0.0786 
     94 H94        24.1080  -32.0090  -42.2097 H         1 UNK         0.0786 
     95 H95        23.3410  -28.1396  -42.1712 H         1 UNK         0.3172 
     96 H96        22.2928  -26.9928  -40.6584 H         1 UNK         0.0595 
     97 H97        24.5552  -26.2397  -40.0380 H         1 UNK         0.0839 
     98 H98        24.7176  -27.5484  -38.8702 H         1 UNK         0.0839 
     99 H99        23.5271  -26.2817  -38.6145 H         1 UNK         0.0839 
    100 H100       23.5639  -29.7835  -38.8864 H         1 UNK         0.2998 
    101 H101       20.8858  -30.5145  -37.8977 H         1 UNK         0.0822 
    102 H102       21.7336  -29.0354  -36.0801 H         1 UNK         0.0787 
    103 H103       21.6821  -30.7018  -35.5281 H         1 UNK         0.0787 
    104 H104       23.2214  -29.9765  -35.9762 H         1 UNK         0.0787 
    105 H105       24.1326  -31.3757  -38.8747 H         1 UNK         0.3055 
    106 H106       23.8998  -34.1874  -37.9985 H         1 UNK         0.1106 
    107 H107       26.0907  -32.6912  -39.5366 H         1 UNK         0.0828 
    108 H108       26.0867  -32.9945  -37.7996 H         1 UNK         0.0828 
    109 H109       26.1968  -34.3372  -38.9240 H         1 UNK         0.0828 
    110 H110       21.7874  -33.5405  -39.5519 H         1 UNK         0.2931 
    111 H111       22.3188  -33.8165  -42.3816 H         1 UNK         0.0412 
    112 H112       21.3075  -37.5107  -41.2161 H         1 UNK         0.3472 
    113 H113       21.9589  -36.3189  -40.1170 H         1 UNK         0.3472 
    114 H114       19.6217  -33.5349  -40.9872 H         1 UNK         0.0970 
    115 H115       19.9504  -33.2642  -42.6824 H         1 UNK         0.0970 
    116 H116       19.2001  -29.8154  -40.6339 H         1 UNK         0.0612 
    117 H117       18.4623  -31.3961  -40.6942 H         1 UNK         0.0612 
@<TRIPOS>BOND
     1    1    2 1    
     2    1   62 1    
     3    1   63 1    
     4    1   64 1    
     5    2    3 2    
     6    2    4 am   BACKBONE|DICT|INTERRES
     7    4    5 1    
     8    4   65 1    
     9    5    6 1    
    10    5   25 1    
    11    5   66 1    
    12    6    7 1    
    13    6   67 1    
    14    6   68 1    
    15    7    8 1    
    16    8    9 1    
    17    8   69 1    
    18    8   70 1    
    19    9   10 ar   
    20    9   14 ar   
    21   10   11 ar   
    22   10   71 1    
    23   11   12 ar   
    24   11   61 1    
    25   12   13 ar   
    26   12   72 1    
    27   13   14 ar   
    28   13   15 1    
    29   14   73 1    
    30   15   16 1    
    31   15   74 1    
    32   15   75 1    
    33   16   17 1    
    34   17   18 1    
    35   17   76 1    
    36   17   77 1    
    37   18   19 1    
    38   18   27 1    
    39   18   78 1    
    40   19   20 am   BACKBONE|DICT|INTERRES
    41   19   79 1    
    42   20   21 2    
    43   20   22 1    
    44   22   23 1    
    45   22   24 1    
    46   22   80 1    
    47   23   81 1    
    48   23   82 1    
    49   23   83 1    
    50   24   25 am   BACKBONE|DICT|INTERRES
    51   24   84 1    
    52   25   26 2    
    53   27   28 2    
    54   27   29 am   BACKBONE|DICT|INTERRES
    55   29   30 1    
    56   29   85 1    
    57   30   31 1    
    58   30   32 1    
    59   30   86 1    
    60   31   87 1    
    61   31   88 1    
    62   31   89 1    
    63   32   33 2    
    64   32   34 am   BACKBONE|DICT|INTERRES
    65   34   35 1    
    66   34   90 1    
    67   35   36 1    
    68   35   37 1    
    69   35   91 1    
    70   36   92 1    
    71   36   93 1    
    72   36   94 1    
    73   37   38 2    
    74   37   39 am   BACKBONE|DICT|INTERRES
    75   39   40 1    
    76   39   95 1    
    77   40   41 1    
    78   40   42 1    
    79   40   96 1    
    80   41   97 1    
    81   41   98 1    
    82   41   99 1    
    83   42   43 2    
    84   42   44 am   BACKBONE|DICT|INTERRES
    85   44   45 1    
    86   44  100 1    
    87   45   46 1    
    88   45   47 1    
    89   45  101 1    
    90   46  102 1    
    91   46  103 1    
    92   46  104 1    
    93   47   48 2    
    94   47   49 am   BACKBONE|DICT|INTERRES
    95   49   50 1    
    96   49  105 1    
    97   50   51 1    
    98   50   52 1    
    99   50  106 1    
   100   51  107 1    
   101   51  108 1    
   102   51  109 1    
   103   52   53 2    
   104   52   54 am   BACKBONE|DICT|INTERRES
   105   54   55 1    
   106   54  110 1    
   107   55   56 1    
   108   55   59 1    
   109   55  111 1    
   110   56   57 am   BACKBONE|DICT|INTERRES
   111   56   58 2    
   112   57  112 1    
   113   57  113 1    
   114   59   60 1    
   115   59  114 1    
   116   59  115 1    
   117   60   61 1    
   118   61  116 1    
   119   61  117 1    
@<TRIPOS>SUBSTRUCTURE
     1 UNK         1 GROUP             0       ****    0 ROOT    
