@<TRIPOS>MOLECULE
3R8
117   119    1
SMALL
USER_CHARGES


@<TRIPOS>ATOM
      1 CA         15.4700  -22.3284  -46.7731 C.3       0 UNK        -0.2013 
      2 C          16.5394  -23.3966  -46.5996 C.2       0 UNK         0.4866 
      3 O          17.5803  -23.3336  -47.2551 O.2       0 UNK        -0.5176 
      4 N          16.2881  -24.3823  -45.7298 N.am      1 UNK        -0.4884 
      5 CA         17.2197  -25.4664  -45.4027 C.3       1 UNK         0.0853 
      6 C6         16.5331  -26.5921  -44.5938 C.3       10 UNK        -0.0849 
      7 S7         15.1629  -27.4132  -45.4775 S.3       10 UNK        -0.2776 
      8 C8         15.9449  -28.9469  -46.1017 C.3       10 UNK         0.0316 
      9 C9         16.6780  -29.7899  -45.0546 C.ar      10 UNK        -0.0863 
     10 C10        17.7911  -30.5384  -45.4507 C.ar      10 UNK        -0.1009 
     11 C11        18.5093  -31.2953  -44.5215 C.ar      10 UNK        -0.0712 
     12 C12        18.1052  -31.3114  -43.1846 C.ar      10 UNK        -0.0894 
     13 C13        17.0160  -30.5439  -42.7647 C.ar      10 UNK        -0.0745 
     14 C14        16.2858  -29.8158  -43.7091 C.ar      10 UNK        -0.0972 
     15 C15        16.6480  -30.4642  -41.2874 C.3       10 UNK         0.0209 
     16 S16        18.0263  -29.8847  -40.2326 S.3       10 UNK        -0.2568 
     17 C17        18.5688  -28.3390  -41.0476 C.3       10 UNK        -0.0983 
     18 CA         19.9394  -28.5213  -41.7602 C.3       3 UNK         0.0876 
     19 N          20.1716  -27.5198  -42.8049 N.am      3 UNK        -0.4424 
     20 C          20.5703  -26.2484  -42.6383 C.2       2 UNK         0.4918 
     21 O          20.7771  -25.7206  -41.5451 O.2       2 UNK        -0.4875 
     22 CA         20.7574  -25.4267  -43.9251 C.3       2 UNK         0.0481 
     23 CB         22.0322  -25.8579  -44.6693 C.3       2 UNK        -0.1831 
     24 N          19.5944  -25.5628  -44.8052 N.am      2 UNK        -0.4498 
     25 C          18.4220  -24.9502  -44.5875 C.2       1 UNK         0.5027 
     26 O          18.2498  -24.0783  -43.7312 O.2       1 UNK        -0.4969 
     27 C          21.1630  -28.6407  -40.8257 C.2       3 UNK         0.5005 
     28 O          22.2158  -29.0926  -41.2785 O.2       3 UNK        -0.5279 
     29 N          21.0385  -28.2053  -39.5639 N.am      4 UNK        -0.4463 
     30 CA         22.1023  -28.1933  -38.5532 C.3       4 UNK         0.0283 
     31 CB         21.5483  -27.6223  -37.2392 C.3       4 UNK        -0.1875 
     32 C          23.3756  -27.4332  -38.9727 C.2       4 UNK         0.4949 
     33 O          24.4652  -27.8193  -38.5503 O.2       4 UNK        -0.5039 
     34 N          23.2373  -26.4146  -39.8362 N.am      5 UNK        -0.4663 
     35 CA         24.3615  -25.6787  -40.4285 C.3       5 UNK         0.0242 
     36 CB         23.8459  -24.3804  -41.0699 C.3       5 UNK        -0.1982 
     37 C          25.1740  -26.5057  -41.4456 C.2       5 UNK         0.5017 
     38 O          26.3131  -26.1397  -41.7347 O.2       5 UNK        -0.5012 
     39 N          24.5953  -27.6059  -41.9463 N.am      6 UNK        -0.4439 
     40 CA         25.2384  -28.6021  -42.8035 C.3       6 UNK         0.0297 
     41 CB         24.4246  -28.7385  -44.1025 C.3       6 UNK        -0.2006 
     42 C          25.3815  -29.9457  -42.0605 C.2       6 UNK         0.4892 
     43 O          25.3812  -30.9992  -42.6996 O.2       6 UNK        -0.5089 
     44 N          25.4854  -29.8902  -40.7215 N.am      7 UNK        -0.4243 
     45 CA         25.6416  -31.0162  -39.7904 C.3       7 UNK         0.0196 
     46 CB         27.0295  -31.6703  -39.9610 C.3       7 UNK        -0.2007 
     47 C          24.4863  -32.0356  -39.8582 C.2       7 UNK         0.5020 
     48 O          24.7192  -33.2367  -39.7219 O.2       7 UNK        -0.5147 
     49 N          23.2659  -31.5300  -40.0895 N.am      8 UNK        -0.4734 
     50 CA         21.9981  -32.2490  -40.2784 C.3       8 UNK         0.0238 
     51 CB         21.6911  -33.2130  -39.1127 C.3       8 UNK        -0.1912 
     52 C          21.8508  -32.9240  -41.6553 C.2       8 UNK         0.5038 
     53 O          20.7867  -33.4917  -41.9044 O.2       8 UNK        -0.5046 
     54 N          22.8732  -32.8092  -42.5208 N.am      9 UNK        -0.4200 
     55 CA         22.9448  -33.2835  -43.9153 C.3       9 UNK         0.0839 
     56 C          22.3663  -34.7104  -44.1748 C.2       9 UNK         0.5513 
     57 N          21.7152  -34.9657  -45.3028 N.am      9 UNK        -0.7519 
     58 O          22.5773  -35.6248  -43.3806 O.2       9 UNK        -0.4960 
     59 C59        22.5989  -32.1766  -44.9668 C.3       10 UNK        -0.0876 
     60 S60        21.2258  -31.0460  -44.5550 S.3       10 UNK        -0.2414 
     61 C61        19.7605  -32.0455  -44.9422 C.3       10 UNK         0.0169 
     62 H62        15.8720  -21.3496  -46.5123 H         1 UNK         0.0903 
     63 H63        15.1373  -22.2952  -47.8102 H         1 UNK         0.0903 
     64 H64        14.5999  -22.5161  -46.1440 H         1 UNK         0.0903 
     65 H65        15.4199  -24.3844  -45.2135 H         1 UNK         0.3096 
     66 H66        17.5903  -25.8846  -46.3415 H         1 UNK         0.1121 
     67 H67        17.2699  -27.3374  -44.2936 H         1 UNK         0.0849 
     68 H68        16.1285  -26.1951  -43.6603 H         1 UNK         0.0849 
     69 H69        15.1750  -29.5649  -46.5654 H         1 UNK         0.0865 
     70 H70        16.6338  -28.6670  -46.9003 H         1 UNK         0.0865 
     71 H71        18.1153  -30.5168  -46.4824 H         1 UNK         0.1346 
     72 H72        18.6757  -31.8768  -42.4598 H         1 UNK         0.1412 
     73 H73        15.4334  -29.2349  -43.3857 H         1 UNK         0.1426 
     74 H74        16.3334  -31.4513  -40.9462 H         1 UNK         0.0716 
     75 H75        15.7954  -29.8003  -41.1361 H         1 UNK         0.0716 
     76 H76        17.8099  -28.0510  -41.7762 H         1 UNK         0.0695 
     77 H77        18.5872  -27.5230  -40.3239 H         1 UNK         0.0695 
     78 H78        19.9069  -29.4693  -42.2965 H         1 UNK         0.0983 
     79 H79        20.0688  -27.8634  -43.7478 H         1 UNK         0.3095 
     80 H80        20.8715  -24.3773  -43.6446 H         1 UNK         0.0454 
     81 H81        21.9772  -26.8909  -45.0147 H         1 UNK         0.0851 
     82 H82        22.2146  -25.2253  -45.5380 H         1 UNK         0.0851 
     83 H83        22.9082  -25.7779  -44.0246 H         1 UNK         0.0851 
     84 H84        19.6603  -26.2469  -45.5455 H         1 UNK         0.2976 
     85 H85        20.1420  -27.8379  -39.2785 H         1 UNK         0.3116 
     86 H86        22.3899  -29.2316  -38.3762 H         1 UNK         0.0646 
     87 H87        22.3117  -27.6254  -36.4597 H         1 UNK         0.0847 
     88 H88        20.7104  -28.2138  -36.8697 H         1 UNK         0.0847 
     89 H89        21.2084  -26.5927  -37.3576 H         1 UNK         0.0847 
     90 H90        22.3087  -26.1749  -40.1693 H         1 UNK         0.3040 
     91 H91        25.0455  -25.4066  -39.6212 H         1 UNK         0.1015 
     92 H92        23.3020  -23.7695  -40.3492 H         1 UNK         0.0786 
     93 H93        23.1821  -24.5777  -41.9106 H         1 UNK         0.0786 
     94 H94        24.6732  -23.7768  -41.4458 H         1 UNK         0.0786 
     95 H95        23.6654  -27.8624  -41.6231 H         1 UNK         0.3172 
     96 H96        26.2485  -28.2851  -43.0692 H         1 UNK         0.0595 
     97 H97        24.3761  -27.7911  -44.6380 H         1 UNK         0.0839 
     98 H98        23.4043  -29.0661  -43.9013 H         1 UNK         0.0839 
     99 H99        24.8774  -29.4637  -44.7794 H         1 UNK         0.0839 
    100 H100       25.4360  -28.9781  -40.2843 H         1 UNK         0.2998 
    101 H101       25.6014  -30.5868  -38.7880 H         1 UNK         0.0822 
    102 H102       27.8280  -30.9324  -39.8848 H         1 UNK         0.0787 
    103 H103       27.2081  -32.4188  -39.1880 H         1 UNK         0.0787 
    104 H104       27.1251  -32.1701  -40.9256 H         1 UNK         0.0787 
    105 H105       23.2023  -30.5356  -40.2879 H         1 UNK         0.3055 
    106 H106       21.2227  -31.4831  -40.2571 H         1 UNK         0.1106 
    107 H107       20.6666  -33.5819  -39.1758 H         1 UNK         0.0828 
    108 H108       22.3441  -34.0856  -39.1199 H         1 UNK         0.0828 
    109 H109       21.7965  -32.7178  -38.1476 H         1 UNK         0.0828 
    110 H110       23.6933  -32.3037  -42.2105 H         1 UNK         0.2931 
    111 H111       24.0131  -33.4597  -44.0484 H         1 UNK         0.0412 
    112 H112       21.3754  -35.9007  -45.4665 H         1 UNK         0.3472 
    113 H113       21.5517  -34.2478  -45.9891 H         1 UNK         0.3472 
    114 H114       22.4574  -32.5751  -45.9713 H         1 UNK         0.0970 
    115 H115       23.4748  -31.5336  -45.0622 H         1 UNK         0.0970 
    116 H116       19.7397  -32.2716  -46.0092 H         1 UNK         0.0612 
    117 H117       19.8109  -32.9988  -44.4154 H         1 UNK         0.0612 
@<TRIPOS>BOND
     1    1    2 1    
     2    1   62 1    
     3    1   63 1    
     4    1   64 1    
     5    2    3 2    
     6    2    4 am   BACKBONE|DICT|INTERRES
     7    4    5 1    
     8    4   65 1    
     9    5    6 1    
    10    5   25 1    
    11    5   66 1    
    12    6    7 1    
    13    6   67 1    
    14    6   68 1    
    15    7    8 1    
    16    8    9 1    
    17    8   69 1    
    18    8   70 1    
    19    9   10 ar   
    20    9   14 ar   
    21   10   11 ar   
    22   10   71 1    
    23   11   12 ar   
    24   11   61 1    
    25   12   13 ar   
    26   12   72 1    
    27   13   14 ar   
    28   13   15 1    
    29   14   73 1    
    30   15   16 1    
    31   15   74 1    
    32   15   75 1    
    33   16   17 1    
    34   17   18 1    
    35   17   76 1    
    36   17   77 1    
    37   18   19 1    
    38   18   27 1    
    39   18   78 1    
    40   19   20 am   BACKBONE|DICT|INTERRES
    41   19   79 1    
    42   20   21 2    
    43   20   22 1    
    44   22   23 1    
    45   22   24 1    
    46   22   80 1    
    47   23   81 1    
    48   23   82 1    
    49   23   83 1    
    50   24   25 am   BACKBONE|DICT|INTERRES
    51   24   84 1    
    52   25   26 2    
    53   27   28 2    
    54   27   29 am   BACKBONE|DICT|INTERRES
    55   29   30 1    
    56   29   85 1    
    57   30   31 1    
    58   30   32 1    
    59   30   86 1    
    60   31   87 1    
    61   31   88 1    
    62   31   89 1    
    63   32   33 2    
    64   32   34 am   BACKBONE|DICT|INTERRES
    65   34   35 1    
    66   34   90 1    
    67   35   36 1    
    68   35   37 1    
    69   35   91 1    
    70   36   92 1    
    71   36   93 1    
    72   36   94 1    
    73   37   38 2    
    74   37   39 am   BACKBONE|DICT|INTERRES
    75   39   40 1    
    76   39   95 1    
    77   40   41 1    
    78   40   42 1    
    79   40   96 1    
    80   41   97 1    
    81   41   98 1    
    82   41   99 1    
    83   42   43 2    
    84   42   44 am   BACKBONE|DICT|INTERRES
    85   44   45 1    
    86   44  100 1    
    87   45   46 1    
    88   45   47 1    
    89   45  101 1    
    90   46  102 1    
    91   46  103 1    
    92   46  104 1    
    93   47   48 2    
    94   47   49 am   BACKBONE|DICT|INTERRES
    95   49   50 1    
    96   49  105 1    
    97   50   51 1    
    98   50   52 1    
    99   50  106 1    
   100   51  107 1    
   101   51  108 1    
   102   51  109 1    
   103   52   53 2    
   104   52   54 am   BACKBONE|DICT|INTERRES
   105   54   55 1    
   106   54  110 1    
   107   55   56 1    
   108   55   59 1    
   109   55  111 1    
   110   56   57 am   BACKBONE|DICT|INTERRES
   111   56   58 2    
   112   57  112 1    
   113   57  113 1    
   114   59   60 1    
   115   59  114 1    
   116   59  115 1    
   117   60   61 1    
   118   61  116 1    
   119   61  117 1    
@<TRIPOS>SUBSTRUCTURE
     1 UNK         1 GROUP             0       ****    0 ROOT    
