@<TRIPOS>MOLECULE
3R8
117   119    1
SMALL
USER_CHARGES


@<TRIPOS>ATOM
      1 CA         17.1830  -27.9771  -48.6420 C.3       0 UNK        -0.2013 
      2 C          16.9286  -27.9755  -47.1422 C.2       0 UNK         0.4866 
      3 O          15.9946  -28.6303  -46.6788 O.2       0 UNK        -0.5176 
      4 N          17.7513  -27.2467  -46.3802 N.am      1 UNK        -0.4884 
      5 CA         17.6752  -27.1588  -44.9237 C.3       1 UNK         0.0853 
      6 C6         16.6675  -26.0795  -44.4526 C.3       10 UNK        -0.0849 
      7 S7         16.1931  -26.2131  -42.6949 S.3       10 UNK        -0.2776 
      8 C8         15.2425  -27.7730  -42.6415 C.3       10 UNK         0.0316 
      9 C9         16.1173  -28.9349  -42.1884 C.ar      10 UNK        -0.0863 
     10 C10        16.4277  -29.9880  -43.0566 C.ar      10 UNK        -0.1009 
     11 C11        17.3016  -31.0027  -42.6544 C.ar      10 UNK        -0.0712 
     12 C12        17.8242  -30.9892  -41.3591 C.ar      10 UNK        -0.0894 
     13 C13        17.4894  -29.9641  -40.4713 C.ar      10 UNK        -0.0745 
     14 C14        16.6358  -28.9415  -40.8905 C.ar      10 UNK        -0.0972 
     15 C15        18.0579  -29.9596  -39.0624 C.3       10 UNK         0.0209 
     16 S16        19.8381  -29.5946  -39.0555 S.3       10 UNK        -0.2568 
     17 C17        19.8769  -27.8273  -39.5019 C.3       10 UNK        -0.0983 
     18 CA         21.0594  -27.5197  -40.4519 C.3       3 UNK         0.0876 
     19 N          20.8071  -27.9203  -41.8438 N.am      3 UNK        -0.4424 
     20 C          21.7482  -27.9343  -42.8016 C.2       2 UNK         0.4918 
     21 O          22.9385  -27.7169  -42.5734 O.2       2 UNK        -0.4875 
     22 CA         21.3169  -28.1549  -44.2620 C.3       2 UNK         0.0481 
     23 CB         21.8791  -29.4743  -44.8059 C.3       2 UNK        -0.1831 
     24 N          19.8732  -28.1037  -44.5022 N.am      2 UNK        -0.4498 
     25 C          19.1072  -27.0090  -44.3912 C.2       1 UNK         0.5027 
     26 O          19.5152  -25.9286  -43.9600 O.2       1 UNK        -0.4969 
     27 C          21.5088  -26.0463  -40.3310 C.2       3 UNK         0.5005 
     28 O          22.1870  -25.7147  -39.3584 O.2       3 UNK        -0.5279 
     29 N          21.2294  -25.2109  -41.3461 N.am      4 UNK        -0.4463 
     30 CA         21.8156  -23.8748  -41.5110 C.3       4 UNK         0.0283 
     31 CB         21.1613  -23.1842  -42.7177 C.3       4 UNK        -0.1875 
     32 C          23.3528  -23.8857  -41.6676 C.2       4 UNK         0.4949 
     33 O          23.9957  -22.8900  -41.3361 O.2       4 UNK        -0.5039 
     34 N          23.9112  -25.0091  -42.1404 N.am      5 UNK        -0.4663 
     35 CA         25.3466  -25.2862  -42.2377 C.3       5 UNK         0.0242 
     36 CB         25.6607  -25.7133  -43.6832 C.3       5 UNK        -0.1982 
     37 C          25.7868  -26.3696  -41.2298 C.2       5 UNK         0.5017 
     38 O          26.9045  -26.8738  -41.3444 O.2       5 UNK        -0.5012 
     39 N          24.9098  -26.7131  -40.2716 N.am      6 UNK        -0.4439 
     40 CA         25.0673  -27.7303  -39.2245 C.3       6 UNK         0.0297 
     41 CB         26.1569  -27.3062  -38.2163 C.3       6 UNK        -0.2006 
     42 C          25.2657  -29.1696  -39.7505 C.2       6 UNK         0.4892 
     43 O          25.9370  -29.9648  -39.0896 O.2       6 UNK        -0.5089 
     44 N          24.6723  -29.4922  -40.9076 N.am      7 UNK        -0.4243 
     45 CA         24.6858  -30.8264  -41.5126 C.3       7 UNK         0.0196 
     46 CB         25.1842  -30.7021  -42.9609 C.3       7 UNK        -0.2007 
     47 C          23.2829  -31.4514  -41.4606 C.2       7 UNK         0.5020 
     48 O          22.2910  -30.7349  -41.3485 O.2       7 UNK        -0.5147 
     49 N          23.2162  -32.7841  -41.5635 N.am      8 UNK        -0.4734 
     50 CA         21.9790  -33.5698  -41.4381 C.3       8 UNK         0.0238 
     51 CB         22.3132  -34.8908  -40.7197 C.3       8 UNK        -0.1912 
     52 C          21.2593  -33.8296  -42.7788 C.2       8 UNK         0.5038 
     53 O          20.3853  -34.6961  -42.8280 O.2       8 UNK        -0.5046 
     54 N          21.6485  -33.1084  -43.8387 N.am      9 UNK        -0.4200 
     55 CA         21.1815  -33.2613  -45.2322 C.3       9 UNK         0.0839 
     56 C          21.7105  -34.5425  -45.9474 C.2       9 UNK         0.5513 
     57 N          22.7046  -35.2409  -45.4111 N.am      9 UNK        -0.7519 
     58 O          21.2368  -34.8956  -47.0245 O.2       9 UNK        -0.4960 
     59 C59        19.6445  -33.0745  -45.4259 C.3       10 UNK        -0.0876 
     60 S60        19.0072  -31.5042  -44.7492 S.3       10 UNK        -0.2414 
     61 C61        17.7095  -32.0989  -43.6234 C.3       10 UNK         0.0169 
     62 H62        18.0335  -27.3518  -48.9133 H         1 UNK         0.0903 
     63 H63        17.3840  -28.9912  -48.9867 H         1 UNK         0.0903 
     64 H64        16.3062  -27.6047  -49.1711 H         1 UNK         0.0903 
     65 H65        18.5167  -26.7382  -46.8041 H         1 UNK         0.3096 
     66 H66        17.3281  -28.1212  -44.5621 H         1 UNK         0.1121 
     67 H67        17.0606  -25.0779  -44.6363 H         1 UNK         0.0849 
     68 H68        15.7504  -26.1451  -45.0402 H         1 UNK         0.0849 
     69 H69        14.4163  -27.6582  -41.9383 H         1 UNK         0.0865 
     70 H70        14.7896  -27.9730  -43.6142 H         1 UNK         0.0865 
     71 H71        16.0261  -29.9993  -44.0615 H         1 UNK         0.1346 
     72 H72        18.5055  -31.7677  -41.0432 H         1 UNK         0.1412 
     73 H73        16.3895  -28.1341  -40.2139 H         1 UNK         0.1426 
     74 H74        17.8976  -30.9390  -38.6093 H         1 UNK         0.0716 
     75 H75        17.5378  -29.2397  -38.4285 H         1 UNK         0.0716 
     76 H76        18.9322  -27.5139  -39.9476 H         1 UNK         0.0695 
     77 H77        19.9664  -27.2760  -38.5634 H         1 UNK         0.0695 
     78 H78        21.9164  -28.1064  -40.1127 H         1 UNK         0.0983 
     79 H79        19.8559  -28.1522  -42.0875 H         1 UNK         0.3095 
     80 H80        21.7604  -27.3452  -44.8452 H         1 UNK         0.0454 
     81 H81        22.9612  -29.4161  -44.9086 H         1 UNK         0.0851 
     82 H82        21.6531  -30.3055  -44.1389 H         1 UNK         0.0851 
     83 H83        21.4818  -29.7100  -45.7932 H         1 UNK         0.0851 
     84 H84        19.4520  -28.9556  -44.8496 H         1 UNK         0.2976 
     85 H85        20.6579  -25.5495  -42.1131 H         1 UNK         0.3116 
     86 H86        21.5811  -23.2965  -40.6150 H         1 UNK         0.0646 
     87 H87        21.5468  -22.1717  -42.8455 H         1 UNK         0.0847 
     88 H88        20.0810  -23.1060  -42.5942 H         1 UNK         0.0847 
     89 H89        21.3528  -23.7260  -43.6450 H         1 UNK         0.0847 
     90 H90        23.3121  -25.7936  -42.3779 H         1 UNK         0.3040 
     91 H91        25.9245  -24.3881  -42.0099 H         1 UNK         0.1015 
     92 H92        25.1554  -26.6437  -43.9464 H         1 UNK         0.0786 
     93 H93        26.7307  -25.8715  -43.8242 H         1 UNK         0.0786 
     94 H94        25.3518  -24.9501  -44.3976 H         1 UNK         0.0786 
     95 H95        24.0323  -26.2069  -40.2418 H         1 UNK         0.3172 
     96 H96        24.1192  -27.7458  -38.6853 H         1 UNK         0.0595 
     97 H97        26.1761  -27.9740  -37.3541 H         1 UNK         0.0839 
     98 H98        27.1512  -27.3256  -38.6636 H         1 UNK         0.0839 
     99 H99        25.9780  -26.2998  -37.8381 H         1 UNK         0.0839 
    100 H100       24.0910  -28.8048  -41.3784 H         1 UNK         0.2998 
    101 H101       25.3646  -31.4891  -40.9718 H         1 UNK         0.0822 
    102 H102       25.1241  -31.6529  -43.4919 H         1 UNK         0.0787 
    103 H103       24.6068  -29.9693  -43.5208 H         1 UNK         0.0787 
    104 H104       26.2264  -30.3831  -42.9864 H         1 UNK         0.0787 
    105 H105       24.0726  -33.3083  -41.6802 H         1 UNK         0.3055 
    106 H106       21.2691  -33.0232  -40.8122 H         1 UNK         0.1106 
    107 H107       22.7889  -34.7088  -39.7558 H         1 UNK         0.0828 
    108 H108       21.4119  -35.4733  -40.5235 H         1 UNK         0.0828 
    109 H109       22.9820  -35.5157  -41.3127 H         1 UNK         0.0828 
    110 H110       22.3787  -32.4288  -43.6926 H         1 UNK         0.2931 
    111 H111       21.6612  -32.4428  -45.7697 H         1 UNK         0.0412 
    112 H112       23.0450  -36.0605  -45.8895 H         1 UNK         0.3472 
    113 H113       23.1136  -34.9620  -44.5345 H         1 UNK         0.3472 
    114 H114       19.1011  -33.9169  -44.9960 H         1 UNK         0.0970 
    115 H115       19.3971  -33.0811  -46.4889 H         1 UNK         0.0970 
    116 H116       16.8473  -32.4302  -44.2040 H         1 UNK         0.0612 
    117 H117       18.0706  -32.9691  -43.0729 H         1 UNK         0.0612 
@<TRIPOS>BOND
     1    1    2 1    
     2    1   62 1    
     3    1   63 1    
     4    1   64 1    
     5    2    3 2    
     6    2    4 am   BACKBONE|DICT|INTERRES
     7    4    5 1    
     8    4   65 1    
     9    5    6 1    
    10    5   25 1    
    11    5   66 1    
    12    6    7 1    
    13    6   67 1    
    14    6   68 1    
    15    7    8 1    
    16    8    9 1    
    17    8   69 1    
    18    8   70 1    
    19    9   10 ar   
    20    9   14 ar   
    21   10   11 ar   
    22   10   71 1    
    23   11   12 ar   
    24   11   61 1    
    25   12   13 ar   
    26   12   72 1    
    27   13   14 ar   
    28   13   15 1    
    29   14   73 1    
    30   15   16 1    
    31   15   74 1    
    32   15   75 1    
    33   16   17 1    
    34   17   18 1    
    35   17   76 1    
    36   17   77 1    
    37   18   19 1    
    38   18   27 1    
    39   18   78 1    
    40   19   20 am   BACKBONE|DICT|INTERRES
    41   19   79 1    
    42   20   21 2    
    43   20   22 1    
    44   22   23 1    
    45   22   24 1    
    46   22   80 1    
    47   23   81 1    
    48   23   82 1    
    49   23   83 1    
    50   24   25 am   BACKBONE|DICT|INTERRES
    51   24   84 1    
    52   25   26 2    
    53   27   28 2    
    54   27   29 am   BACKBONE|DICT|INTERRES
    55   29   30 1    
    56   29   85 1    
    57   30   31 1    
    58   30   32 1    
    59   30   86 1    
    60   31   87 1    
    61   31   88 1    
    62   31   89 1    
    63   32   33 2    
    64   32   34 am   BACKBONE|DICT|INTERRES
    65   34   35 1    
    66   34   90 1    
    67   35   36 1    
    68   35   37 1    
    69   35   91 1    
    70   36   92 1    
    71   36   93 1    
    72   36   94 1    
    73   37   38 2    
    74   37   39 am   BACKBONE|DICT|INTERRES
    75   39   40 1    
    76   39   95 1    
    77   40   41 1    
    78   40   42 1    
    79   40   96 1    
    80   41   97 1    
    81   41   98 1    
    82   41   99 1    
    83   42   43 2    
    84   42   44 am   BACKBONE|DICT|INTERRES
    85   44   45 1    
    86   44  100 1    
    87   45   46 1    
    88   45   47 1    
    89   45  101 1    
    90   46  102 1    
    91   46  103 1    
    92   46  104 1    
    93   47   48 2    
    94   47   49 am   BACKBONE|DICT|INTERRES
    95   49   50 1    
    96   49  105 1    
    97   50   51 1    
    98   50   52 1    
    99   50  106 1    
   100   51  107 1    
   101   51  108 1    
   102   51  109 1    
   103   52   53 2    
   104   52   54 am   BACKBONE|DICT|INTERRES
   105   54   55 1    
   106   54  110 1    
   107   55   56 1    
   108   55   59 1    
   109   55  111 1    
   110   56   57 am   BACKBONE|DICT|INTERRES
   111   56   58 2    
   112   57  112 1    
   113   57  113 1    
   114   59   60 1    
   115   59  114 1    
   116   59  115 1    
   117   60   61 1    
   118   61  116 1    
   119   61  117 1    
@<TRIPOS>SUBSTRUCTURE
     1 UNK         1 GROUP             0       ****    0 ROOT    
