@<TRIPOS>MOLECULE
3R8
117   119    1
SMALL
USER_CHARGES


@<TRIPOS>ATOM
      1 CA         15.7444  -22.2564  -47.3169 C.3       0 UNK        -0.2013 
      2 C          16.3745  -23.6201  -47.5578 C.2       0 UNK         0.4866 
      3 O          16.2772  -24.1539  -48.6630 O.2       0 UNK        -0.5176 
      4 N          17.0207  -24.1867  -46.5346 N.am      1 UNK        -0.4884 
      5 CA         17.7204  -25.4691  -46.5745 C.3       1 UNK         0.0853 
      6 C6         16.7451  -26.6701  -46.4556 C.3       10 UNK        -0.0849 
      7 S7         17.4494  -28.2056  -47.1430 S.3       10 UNK        -0.2776 
      8 C8         16.2328  -29.4375  -46.5827 C.3       10 UNK         0.0316 
      9 C9         16.4224  -29.8078  -45.1181 C.ar      10 UNK        -0.0863 
     10 C10        17.3895  -30.7498  -44.7547 C.ar      10 UNK        -0.1009 
     11 C11        17.5399  -31.1356  -43.4192 C.ar      10 UNK        -0.0712 
     12 C12        16.7080  -30.5774  -42.4455 C.ar      10 UNK        -0.0894 
     13 C13        15.7761  -29.5934  -42.7875 C.ar      10 UNK        -0.0745 
     14 C14        15.6242  -29.2261  -44.1284 C.ar      10 UNK        -0.0972 
     15 C15        14.9549  -28.9054  -41.7048 C.3       10 UNK         0.0209 
     16 S16        16.0013  -28.0829  -40.4539 S.3       10 UNK        -0.2568 
     17 C17        17.0581  -26.9941  -41.4722 C.3       10 UNK        -0.0983 
     18 CA         18.5030  -27.5439  -41.6161 C.3       3 UNK         0.0876 
     19 N          19.1844  -26.9512  -42.7681 N.am      3 UNK        -0.4424 
     20 C          20.3781  -27.3001  -43.2678 C.2       2 UNK         0.4918 
     21 O          21.1168  -28.1378  -42.7473 O.2       2 UNK        -0.4875 
     22 CA         20.8275  -26.5925  -44.5669 C.3       2 UNK         0.0481 
     23 CB         21.9631  -27.3543  -45.2771 C.3       2 UNK        -0.1831 
     24 N          19.7382  -26.3886  -45.5292 N.am      2 UNK        -0.4498 
     25 C          18.7734  -25.4645  -45.4528 C.2       1 UNK         0.5027 
     26 O          18.6739  -24.6612  -44.5200 O.2       1 UNK        -0.4969 
     27 C          19.3372  -27.3826  -40.3292 C.2       3 UNK         0.5005 
     28 O          19.3255  -26.3087  -39.7230 O.2       3 UNK        -0.5279 
     29 N          20.0865  -28.4409  -39.9818 N.am      4 UNK        -0.4463 
     30 CA         21.0610  -28.5234  -38.8871 C.3       4 UNK         0.0283 
     31 CB         20.3510  -28.4606  -37.5185 C.3       4 UNK        -0.1875 
     32 C          22.2166  -27.5054  -39.0058 C.2       4 UNK         0.4949 
     33 O          22.8049  -27.1317  -37.9901 O.2       4 UNK        -0.5039 
     34 N          22.5363  -27.0788  -40.2378 N.am      5 UNK        -0.4663 
     35 CA         23.6127  -26.1221  -40.5282 C.3       5 UNK         0.0242 
     36 CB         23.3824  -25.5088  -41.9178 C.3       5 UNK        -0.1982 
     37 C          25.0148  -26.7515  -40.4412 C.2       5 UNK         0.5017 
     38 O          25.9982  -26.0298  -40.2725 O.2       5 UNK        -0.5012 
     39 N          25.0729  -28.0805  -40.5511 N.am      6 UNK        -0.4439 
     40 CA         26.2416  -28.9326  -40.3916 C.3       6 UNK         0.0297 
     41 CB         27.0085  -29.0226  -41.7234 C.3       6 UNK        -0.2006 
     42 C          25.7300  -30.3077  -39.9510 C.2       6 UNK         0.4892 
     43 O          24.5432  -30.5974  -40.1318 O.2       6 UNK        -0.5089 
     44 N          26.6304  -31.1475  -39.4237 N.am      7 UNK        -0.4243 
     45 CA         26.3316  -32.5102  -38.9593 C.3       7 UNK         0.0196 
     46 CB         27.5871  -33.1110  -38.3066 C.3       7 UNK        -0.2007 
     47 C          25.7954  -33.4485  -40.0582 C.2       7 UNK         0.5020 
     48 O          25.0393  -34.3703  -39.7520 O.2       7 UNK        -0.5147 
     49 N          26.1755  -33.1843  -41.3154 N.am      8 UNK        -0.4734 
     50 CA         25.6741  -33.8795  -42.5032 C.3       8 UNK         0.0238 
     51 CB         26.6786  -33.6843  -43.6515 C.3       8 UNK        -0.1912 
     52 C          24.2679  -33.4221  -42.9393 C.2       8 UNK         0.5038 
     53 O          23.6458  -34.1214  -43.7398 O.2       8 UNK        -0.5046 
     54 N          23.7981  -32.2705  -42.4330 N.am      9 UNK        -0.4200 
     55 CA         22.5203  -31.6307  -42.7873 C.3       9 UNK         0.0839 
     56 C          22.4272  -31.2042  -44.2870 C.2       9 UNK         0.5513 
     57 N          23.5277  -30.7763  -44.8961 N.am      9 UNK        -0.7519 
     58 O          21.3727  -31.2638  -44.9129 O.2       9 UNK        -0.4960 
     59 C59        21.3052  -32.4478  -42.2612 C.3       10 UNK        -0.0876 
     60 S60        19.8522  -31.3974  -41.9217 S.3       10 UNK        -0.2414 
     61 C61        18.6098  -32.1426  -43.0273 C.3       10 UNK         0.0169 
     62 H62        14.6703  -22.3029  -47.4942 H         1 UNK         0.0903 
     63 H63        15.9046  -21.9076  -46.2968 H         1 UNK         0.0903 
     64 H64        16.1709  -21.5202  -47.9979 H         1 UNK         0.0903 
     65 H65        17.1275  -23.6991  -45.6520 H         1 UNK         0.3096 
     66 H66        18.2554  -25.5229  -47.5259 H         1 UNK         0.1121 
     67 H67        16.4371  -26.8240  -45.4201 H         1 UNK         0.0849 
     68 H68        15.8282  -26.4691  -47.0120 H         1 UNK         0.0849 
     69 H69        15.2224  -29.0662  -46.7615 H         1 UNK         0.0865 
     70 H70        16.3352  -30.3336  -47.1968 H         1 UNK         0.0865 
     71 H71        18.0263  -31.1822  -45.5149 H         1 UNK         0.1346 
     72 H72        16.8263  -30.8679  -41.4103 H         1 UNK         0.1412 
     73 H73        14.8889  -28.4816  -44.4020 H         1 UNK         0.1426 
     74 H74        14.3249  -29.6455  -41.2098 H         1 UNK         0.0716 
     75 H75        14.2802  -28.1654  -42.1382 H         1 UNK         0.0716 
     76 H76        17.0543  -25.9908  -41.0423 H         1 UNK         0.0695 
     77 H77        16.5957  -26.8889  -42.4549 H         1 UNK         0.0695 
     78 H78        18.4344  -28.6091  -41.8370 H         1 UNK         0.0983 
     79 H79        18.7069  -26.1830  -43.2248 H         1 UNK         0.3095 
     80 H80        21.2145  -25.6143  -44.2753 H         1 UNK         0.0454 
     81 H81        21.6403  -28.3475  -45.5920 H         1 UNK         0.0851 
     82 H82        22.8263  -27.4899  -44.6253 H         1 UNK         0.0851 
     83 H83        22.3114  -26.8181  -46.1597 H         1 UNK         0.0851 
     84 H84        19.6887  -27.0566  -46.2870 H         1 UNK         0.2976 
     85 H85        20.0637  -29.2471  -40.5952 H         1 UNK         0.3116 
     86 H86        21.5238  -29.5079  -38.9730 H         1 UNK         0.0646 
     87 H87        19.9192  -27.4769  -37.3317 H         1 UNK         0.0847 
     88 H88        21.0472  -28.6687  -36.7052 H         1 UNK         0.0847 
     89 H89        19.5501  -29.1968  -37.4522 H         1 UNK         0.0847 
     90 H90        22.0135  -27.4432  -41.0284 H         1 UNK         0.3040 
     91 H91        23.5701  -25.3187  -39.7891 H         1 UNK         0.1015 
     92 H92        24.1344  -24.7500  -42.1386 H         1 UNK         0.0786 
     93 H93        22.4070  -25.0260  -41.9826 H         1 UNK         0.0786 
     94 H94        23.4419  -26.2627  -42.7022 H         1 UNK         0.0786 
     95 H95        24.2052  -28.5985  -40.6268 H         1 UNK         0.3172 
     96 H96        26.8871  -28.5281  -39.6092 H         1 UNK         0.0595 
     97 H97        27.8926  -29.6540  -41.6292 H         1 UNK         0.0839 
     98 H98        27.3500  -28.0402  -42.0501 H         1 UNK         0.0839 
     99 H99        26.3892  -29.4402  -42.5184 H         1 UNK         0.0839 
    100 H100       27.5847  -30.8329  -39.3171 H         1 UNK         0.2998 
    101 H101       25.5534  -32.4325  -38.1969 H         1 UNK         0.0822 
    102 H102       27.3881  -34.1150  -37.9284 H         1 UNK         0.0787 
    103 H103       28.4134  -33.1878  -39.0147 H         1 UNK         0.0787 
    104 H104       27.9223  -32.5100  -37.4611 H         1 UNK         0.0787 
    105 H105       26.8156  -32.4188  -41.4687 H         1 UNK         0.3055 
    106 H106       25.6100  -34.9476  -42.2820 H         1 UNK         0.1106 
    107 H107       26.3560  -34.2164  -44.5478 H         1 UNK         0.0828 
    108 H108       26.7885  -32.6329  -43.9200 H         1 UNK         0.0828 
    109 H109       27.6636  -34.0694  -43.3874 H         1 UNK         0.0828 
    110 H110       24.3428  -31.7809  -41.7323 H         1 UNK         0.2931 
    111 H111       22.5346  -30.6891  -42.2363 H         1 UNK         0.0412 
    112 H112       24.4026  -30.7256  -44.4010 H         1 UNK         0.3472 
    113 H113       23.4790  -30.5093  -45.8663 H         1 UNK         0.3472 
    114 H114       21.0577  -33.2607  -42.9456 H         1 UNK         0.0970 
    115 H115       21.5634  -32.9296  -41.3168 H         1 UNK         0.0970 
    116 H116       18.1482  -32.9957  -42.5284 H         1 UNK         0.0612 
    117 H117       19.0989  -32.5310  -43.9217 H         1 UNK         0.0612 
@<TRIPOS>BOND
     1    1    2 1    
     2    1   62 1    
     3    1   63 1    
     4    1   64 1    
     5    2    3 2    
     6    2    4 am   BACKBONE|DICT|INTERRES
     7    4    5 1    
     8    4   65 1    
     9    5    6 1    
    10    5   25 1    
    11    5   66 1    
    12    6    7 1    
    13    6   67 1    
    14    6   68 1    
    15    7    8 1    
    16    8    9 1    
    17    8   69 1    
    18    8   70 1    
    19    9   10 ar   
    20    9   14 ar   
    21   10   11 ar   
    22   10   71 1    
    23   11   12 ar   
    24   11   61 1    
    25   12   13 ar   
    26   12   72 1    
    27   13   14 ar   
    28   13   15 1    
    29   14   73 1    
    30   15   16 1    
    31   15   74 1    
    32   15   75 1    
    33   16   17 1    
    34   17   18 1    
    35   17   76 1    
    36   17   77 1    
    37   18   19 1    
    38   18   27 1    
    39   18   78 1    
    40   19   20 am   BACKBONE|DICT|INTERRES
    41   19   79 1    
    42   20   21 2    
    43   20   22 1    
    44   22   23 1    
    45   22   24 1    
    46   22   80 1    
    47   23   81 1    
    48   23   82 1    
    49   23   83 1    
    50   24   25 am   BACKBONE|DICT|INTERRES
    51   24   84 1    
    52   25   26 2    
    53   27   28 2    
    54   27   29 am   BACKBONE|DICT|INTERRES
    55   29   30 1    
    56   29   85 1    
    57   30   31 1    
    58   30   32 1    
    59   30   86 1    
    60   31   87 1    
    61   31   88 1    
    62   31   89 1    
    63   32   33 2    
    64   32   34 am   BACKBONE|DICT|INTERRES
    65   34   35 1    
    66   34   90 1    
    67   35   36 1    
    68   35   37 1    
    69   35   91 1    
    70   36   92 1    
    71   36   93 1    
    72   36   94 1    
    73   37   38 2    
    74   37   39 am   BACKBONE|DICT|INTERRES
    75   39   40 1    
    76   39   95 1    
    77   40   41 1    
    78   40   42 1    
    79   40   96 1    
    80   41   97 1    
    81   41   98 1    
    82   41   99 1    
    83   42   43 2    
    84   42   44 am   BACKBONE|DICT|INTERRES
    85   44   45 1    
    86   44  100 1    
    87   45   46 1    
    88   45   47 1    
    89   45  101 1    
    90   46  102 1    
    91   46  103 1    
    92   46  104 1    
    93   47   48 2    
    94   47   49 am   BACKBONE|DICT|INTERRES
    95   49   50 1    
    96   49  105 1    
    97   50   51 1    
    98   50   52 1    
    99   50  106 1    
   100   51  107 1    
   101   51  108 1    
   102   51  109 1    
   103   52   53 2    
   104   52   54 am   BACKBONE|DICT|INTERRES
   105   54   55 1    
   106   54  110 1    
   107   55   56 1    
   108   55   59 1    
   109   55  111 1    
   110   56   57 am   BACKBONE|DICT|INTERRES
   111   56   58 2    
   112   57  112 1    
   113   57  113 1    
   114   59   60 1    
   115   59  114 1    
   116   59  115 1    
   117   60   61 1    
   118   61  116 1    
   119   61  117 1    
@<TRIPOS>SUBSTRUCTURE
     1 UNK         1 GROUP             0       ****    0 ROOT    
