@<TRIPOS>MOLECULE
3R8
117   119    1
SMALL
USER_CHARGES


@<TRIPOS>ATOM
      1 CA         20.2999  -23.6279  -39.2332 C.3       0 UNK        -0.2013 
      2 C          19.3974  -24.4867  -40.1057 C.2       0 UNK         0.4866 
      3 O          18.3026  -24.8559  -39.6807 O.2       0 UNK        -0.5176 
      4 N          19.8460  -24.8054  -41.3223 N.am      1 UNK        -0.4884 
      5 CA         19.1471  -25.6323  -42.3038 C.3       1 UNK         0.0853 
      6 C6         19.1128  -27.1309  -41.8653 C.3       10 UNK        -0.0849 
      7 S7         19.2424  -28.4254  -43.1465 S.3       10 UNK        -0.2776 
      8 C8         17.5279  -29.0209  -43.2689 C.3       10 UNK         0.0316 
      9 C9         17.5013  -30.2233  -44.1935 C.ar      10 UNK        -0.0863 
     10 C10        17.5662  -31.5156  -43.6682 C.ar      10 UNK        -0.1009 
     11 C11        17.7167  -32.6169  -44.5156 C.ar      10 UNK        -0.0712 
     12 C12        17.7805  -32.4177  -45.8978 C.ar      10 UNK        -0.0894 
     13 C13        17.7041  -31.1287  -46.4356 C.ar      10 UNK        -0.0745 
     14 C14        17.5241  -30.0386  -45.5774 C.ar      10 UNK        -0.0972 
     15 C15        17.8873  -30.9244  -47.9367 C.3       10 UNK         0.0209 
     16 S16        18.9726  -29.5162  -48.3725 S.3       10 UNK        -0.2568 
     17 C17        20.4587  -29.7815  -47.3347 C.3       10 UNK        -0.0983 
     18 CA         21.2160  -28.4575  -47.0598 C.3       3 UNK         0.0876 
     19 N          20.3571  -27.4265  -46.4596 N.am      3 UNK        -0.4424 
     20 C          20.4977  -26.1153  -46.6957 C.2       2 UNK         0.4918 
     21 O          21.4147  -25.6316  -47.3602 O.2       2 UNK        -0.4875 
     22 CA         19.4172  -25.1826  -46.1230 C.3       2 UNK         0.0481 
     23 CB         18.1774  -25.1833  -47.0324 C.3       2 UNK        -0.1831 
     24 N          19.0164  -25.5083  -44.7527 N.am      2 UNK        -0.4498 
     25 C          19.7898  -25.3275  -43.6731 C.2       1 UNK         0.5027 
     26 O          20.9478  -24.9017  -43.7257 O.2       1 UNK        -0.4969 
     27 C          22.4902  -28.7062  -46.2274 C.2       3 UNK         0.5005 
     28 O          23.4851  -29.1753  -46.7830 O.2       3 UNK        -0.5279 
     29 N          22.4564  -28.3808  -44.9289 N.am      4 UNK        -0.4463 
     30 CA         23.5849  -28.4613  -44.0094 C.3       4 UNK         0.0283 
     31 CB         23.6448  -29.8589  -43.3638 C.3       4 UNK        -0.1875 
     32 C          23.3874  -27.3697  -42.9586 C.2       4 UNK         0.4949 
     33 O          22.4325  -27.4543  -42.1889 O.2       4 UNK        -0.5039 
     34 N          24.2819  -26.3731  -42.9275 N.am      5 UNK        -0.4663 
     35 CA         24.1890  -25.1951  -42.0509 C.3       5 UNK         0.0242 
     36 CB         25.3312  -24.2221  -42.3841 C.3       5 UNK        -0.1982 
     37 C          24.1775  -25.5157  -40.5444 C.2       5 UNK         0.5017 
     38 O          23.5666  -24.7768  -39.7729 O.2       5 UNK        -0.5012 
     39 N          24.8302  -26.6217  -40.1642 N.am      6 UNK        -0.4439 
     40 CA         24.8493  -27.1644  -38.8041 C.3       6 UNK         0.0297 
     41 CB         26.1120  -28.0286  -38.6399 C.3       6 UNK        -0.2006 
     42 C          23.5912  -27.9820  -38.4449 C.2       6 UNK         0.4892 
     43 O          23.4638  -28.3812  -37.2870 O.2       6 UNK        -0.5089 
     44 N          22.7144  -28.2510  -39.4278 N.am      7 UNK        -0.4243 
     45 CA         21.5196  -29.1027  -39.3498 C.3       7 UNK         0.0196 
     46 CB         20.4557  -28.4881  -38.4159 C.3       7 UNK        -0.2007 
     47 C          21.8383  -30.5748  -39.0220 C.2       7 UNK         0.5020 
     48 O          21.0197  -31.2627  -38.4107 O.2       7 UNK        -0.5147 
     49 N          23.0130  -31.0472  -39.4675 N.am      8 UNK        -0.4734 
     50 CA         23.5330  -32.4038  -39.2441 C.3       8 UNK         0.0238 
     51 CB         24.9795  -32.4751  -39.7606 C.3       8 UNK        -0.1912 
     52 C          22.6808  -33.5251  -39.8689 C.2       8 UNK         0.5038 
     53 O          22.7512  -34.6652  -39.4088 O.2       8 UNK        -0.5046 
     54 N          21.8866  -33.1753  -40.8877 N.am      9 UNK        -0.4200 
     55 CA         20.8542  -34.0243  -41.4960 C.3       9 UNK         0.0839 
     56 C          19.6337  -34.2998  -40.5624 C.2       9 UNK         0.5513 
     57 N          19.4057  -33.5225  -39.5088 N.am      9 UNK        -0.7519 
     58 O          18.8912  -35.2527  -40.7807 O.2       9 UNK        -0.4960 
     59 C59        20.4322  -33.4269  -42.8638 C.3       10 UNK        -0.0876 
     60 S60        19.5915  -34.6003  -43.9847 S.3       10 UNK        -0.2414 
     61 C61        17.8634  -34.0162  -43.9347 C.3       10 UNK         0.0169 
     62 H62        21.1752  -23.2744  -39.7782 H         1 UNK         0.0903 
     63 H63        19.7553  -22.7583  -38.8664 H         1 UNK         0.0903 
     64 H64        20.6468  -24.2028  -38.3748 H         1 UNK         0.0903 
     65 H65        20.7405  -24.4664  -41.6573 H         1 UNK         0.3096 
     66 H66        18.1174  -25.2722  -42.3623 H         1 UNK         0.1121 
     67 H67        18.2278  -27.3109  -41.2533 H         1 UNK         0.0849 
     68 H68        19.9514  -27.3180  -41.1956 H         1 UNK         0.0849 
     69 H69        16.8807  -28.2295  -43.6497 H         1 UNK         0.0865 
     70 H70        17.1543  -29.2891  -42.2793 H         1 UNK         0.0865 
     71 H71        17.5561  -31.6597  -42.5962 H         1 UNK         0.1346 
     72 H72        17.9285  -33.2680  -46.5498 H         1 UNK         0.1412 
     73 H73        17.4832  -29.0372  -45.9822 H         1 UNK         0.1426 
     74 H74        16.9090  -30.7693  -48.3929 H         1 UNK         0.0716 
     75 H75        18.3034  -31.8233  -48.3944 H         1 UNK         0.0716 
     76 H76        21.1055  -30.4911  -47.8541 H         1 UNK         0.0695 
     77 H77        20.1875  -30.2556  -46.3911 H         1 UNK         0.0695 
     78 H78        21.5598  -28.0904  -48.0299 H         1 UNK         0.0983 
     79 H79        19.5846  -27.7490  -45.8962 H         1 UNK         0.3095 
     80 H80        19.8256  -24.1696  -46.1186 H         1 UNK         0.0454 
     81 H81        17.6970  -26.1621  -47.0660 H         1 UNK         0.0851 
     82 H82        18.4455  -24.9191  -48.0563 H         1 UNK         0.0851 
     83 H83        17.4375  -24.4564  -46.6970 H         1 UNK         0.0851 
     84 H84        18.0785  -25.8604  -44.6266 H         1 UNK         0.2976 
     85 H85        21.6114  -27.9834  -44.5370 H         1 UNK         0.3116 
     86 H86        24.5175  -28.2749  -44.5464 H         1 UNK         0.0646 
     87 H87        23.8098  -30.6334  -44.1129 H         1 UNK         0.0847 
     88 H88        22.7210  -30.0988  -42.8356 H         1 UNK         0.0847 
     89 H89        24.4623  -29.9236  -42.6450 H         1 UNK         0.0847 
     90 H90        25.0391  -26.3782  -43.5966 H         1 UNK         0.3040 
     91 H91        23.2426  -24.6986  -42.2752 H         1 UNK         0.1015 
     92 H92        25.2745  -23.3263  -41.7638 H         1 UNK         0.0786 
     93 H93        25.2844  -23.8959  -43.4233 H         1 UNK         0.0786 
     94 H94        26.3096  -24.6738  -42.2156 H         1 UNK         0.0786 
     95 H95        25.3088  -27.1529  -40.8773 H         1 UNK         0.3172 
     96 H96        24.9105  -26.3352  -38.0961 H         1 UNK         0.0595 
     97 H97        27.0165  -27.4515  -38.8333 H         1 UNK         0.0839 
     98 H98        26.1920  -28.4166  -37.6233 H         1 UNK         0.0839 
     99 H99        26.1085  -28.8856  -39.3144 H         1 UNK         0.0839 
    100 H100       22.8754  -27.8445  -40.3456 H         1 UNK         0.2998 
    101 H101       21.1011  -29.1210  -40.3565 H         1 UNK         0.0822 
    102 H102       20.2486  -27.4505  -38.6783 H         1 UNK         0.0787 
    103 H103       19.5134  -29.0327  -38.4860 H         1 UNK         0.0787 
    104 H104       20.7692  -28.5143  -37.3720 H         1 UNK         0.0787 
    105 H105       23.6196  -30.4065  -39.9571 H         1 UNK         0.3055 
    106 H106       23.5427  -32.5779  -38.1657 H         1 UNK         0.1106 
    107 H107       25.0364  -32.2819  -40.8326 H         1 UNK         0.0828 
    108 H108       25.4086  -33.4628  -39.5851 H         1 UNK         0.0828 
    109 H109       25.6195  -31.7532  -39.2529 H         1 UNK         0.0828 
    110 H110       21.9014  -32.2106  -41.1796 H         1 UNK         0.2931 
    111 H111       21.3214  -34.9923  -41.6883 H         1 UNK         0.0412 
    112 H112       18.6183  -33.7280  -38.9148 H         1 UNK         0.3472 
    113 H113       20.0234  -32.7543  -39.2687 H         1 UNK         0.3472 
    114 H114       19.8362  -32.5281  -42.7147 H         1 UNK         0.0970 
    115 H115       21.3195  -33.0912  -43.4032 H         1 UNK         0.0970 
    116 H116       17.4989  -34.0489  -42.9070 H         1 UNK         0.0612 
    117 H117       17.2411  -34.7100  -44.5015 H         1 UNK         0.0612 
@<TRIPOS>BOND
     1    1    2 1    
     2    1   62 1    
     3    1   63 1    
     4    1   64 1    
     5    2    3 2    
     6    2    4 am   BACKBONE|DICT|INTERRES
     7    4    5 1    
     8    4   65 1    
     9    5    6 1    
    10    5   25 1    
    11    5   66 1    
    12    6    7 1    
    13    6   67 1    
    14    6   68 1    
    15    7    8 1    
    16    8    9 1    
    17    8   69 1    
    18    8   70 1    
    19    9   10 ar   
    20    9   14 ar   
    21   10   11 ar   
    22   10   71 1    
    23   11   12 ar   
    24   11   61 1    
    25   12   13 ar   
    26   12   72 1    
    27   13   14 ar   
    28   13   15 1    
    29   14   73 1    
    30   15   16 1    
    31   15   74 1    
    32   15   75 1    
    33   16   17 1    
    34   17   18 1    
    35   17   76 1    
    36   17   77 1    
    37   18   19 1    
    38   18   27 1    
    39   18   78 1    
    40   19   20 am   BACKBONE|DICT|INTERRES
    41   19   79 1    
    42   20   21 2    
    43   20   22 1    
    44   22   23 1    
    45   22   24 1    
    46   22   80 1    
    47   23   81 1    
    48   23   82 1    
    49   23   83 1    
    50   24   25 am   BACKBONE|DICT|INTERRES
    51   24   84 1    
    52   25   26 2    
    53   27   28 2    
    54   27   29 am   BACKBONE|DICT|INTERRES
    55   29   30 1    
    56   29   85 1    
    57   30   31 1    
    58   30   32 1    
    59   30   86 1    
    60   31   87 1    
    61   31   88 1    
    62   31   89 1    
    63   32   33 2    
    64   32   34 am   BACKBONE|DICT|INTERRES
    65   34   35 1    
    66   34   90 1    
    67   35   36 1    
    68   35   37 1    
    69   35   91 1    
    70   36   92 1    
    71   36   93 1    
    72   36   94 1    
    73   37   38 2    
    74   37   39 am   BACKBONE|DICT|INTERRES
    75   39   40 1    
    76   39   95 1    
    77   40   41 1    
    78   40   42 1    
    79   40   96 1    
    80   41   97 1    
    81   41   98 1    
    82   41   99 1    
    83   42   43 2    
    84   42   44 am   BACKBONE|DICT|INTERRES
    85   44   45 1    
    86   44  100 1    
    87   45   46 1    
    88   45   47 1    
    89   45  101 1    
    90   46  102 1    
    91   46  103 1    
    92   46  104 1    
    93   47   48 2    
    94   47   49 am   BACKBONE|DICT|INTERRES
    95   49   50 1    
    96   49  105 1    
    97   50   51 1    
    98   50   52 1    
    99   50  106 1    
   100   51  107 1    
   101   51  108 1    
   102   51  109 1    
   103   52   53 2    
   104   52   54 am   BACKBONE|DICT|INTERRES
   105   54   55 1    
   106   54  110 1    
   107   55   56 1    
   108   55   59 1    
   109   55  111 1    
   110   56   57 am   BACKBONE|DICT|INTERRES
   111   56   58 2    
   112   57  112 1    
   113   57  113 1    
   114   59   60 1    
   115   59  114 1    
   116   59  115 1    
   117   60   61 1    
   118   61  116 1    
   119   61  117 1    
@<TRIPOS>SUBSTRUCTURE
     1 UNK         1 GROUP             0       ****    0 ROOT    
