@<TRIPOS>MOLECULE
3R8
117   119    1
SMALL
USER_CHARGES


@<TRIPOS>ATOM
      1 CA         21.1108  -25.3225  -50.1295 C.3       0 UNK        -0.2013 
      2 C          20.5375  -25.6650  -48.7619 C.2       0 UNK         0.4866 
      3 O          19.3180  -25.6330  -48.5946 O.2       0 UNK        -0.5176 
      4 N          21.4153  -25.9942  -47.8027 N.am      1 UNK        -0.4884 
      5 CA         21.1367  -26.3359  -46.3979 C.3       1 UNK         0.0853 
      6 C6         20.1650  -27.5380  -46.2206 C.3       10 UNK        -0.0849 
      7 S7         20.9035  -29.1133  -46.7605 S.3       10 UNK        -0.2776 
      8 C8         19.4490  -30.2102  -46.7165 C.3       10 UNK         0.0316 
      9 C9         18.8185  -30.2886  -45.3311 C.ar      10 UNK        -0.0863 
     10 C10        19.4017  -31.0746  -44.3330 C.ar      10 UNK        -0.1009 
     11 C11        18.8182  -31.1612  -43.0653 C.ar      10 UNK        -0.0712 
     12 C12        17.6398  -30.4580  -42.7984 C.ar      10 UNK        -0.0894 
     13 C13        17.0463  -29.6696  -43.7887 C.ar      10 UNK        -0.0745 
     14 C14        17.6401  -29.5887  -45.0520 C.ar      10 UNK        -0.0972 
     15 C15        15.7491  -28.9250  -43.5086 C.3       10 UNK         0.0209 
     16 S16        16.0418  -27.1698  -43.1277 S.3       10 UNK        -0.2568 
     17 C17        16.6958  -27.2530  -41.4246 C.3       10 UNK        -0.0983 
     18 CA         18.2369  -27.1165  -41.3635 C.3       3 UNK         0.0876 
     19 N          18.7051  -25.9109  -42.0599 N.am      3 UNK        -0.4424 
     20 C          19.9332  -25.3792  -42.0300 C.2       2 UNK         0.4918 
     21 O          20.8271  -25.7102  -41.2518 O.2       2 UNK        -0.4875 
     22 CA         20.2684  -24.4327  -43.1818 C.3       2 UNK         0.0481 
     23 CB         21.3448  -23.3936  -42.8148 C.3       2 UNK        -0.1831 
     24 N          20.7505  -25.3195  -44.2304 N.am      2 UNK        -0.4498 
     25 C          20.6893  -25.1237  -45.5490 C.2       1 UNK         0.5027 
     26 O          20.3128  -24.0693  -46.0667 O.2       1 UNK        -0.4969 
     27 C          18.7323  -27.2438  -39.9073 C.2       3 UNK         0.5005 
     28 O          18.5498  -26.3147  -39.1179 O.2       3 UNK        -0.5279 
     29 N          19.3628  -28.3883  -39.6069 N.am      4 UNK        -0.4463 
     30 CA         20.0226  -28.7843  -38.3550 C.3       4 UNK         0.0283 
     31 CB         19.1358  -28.5613  -37.1131 C.3       4 UNK        -0.1875 
     32 C          21.4345  -28.1999  -38.1606 C.2       4 UNK         0.4949 
     33 O          22.2171  -28.8104  -37.4319 O.2       4 UNK        -0.5039 
     34 N          21.7638  -27.0727  -38.8074 N.am      5 UNK        -0.4663 
     35 CA         23.1079  -26.4854  -38.7960 C.3       5 UNK         0.0242 
     36 CB         23.0116  -24.9502  -38.7878 C.3       5 UNK        -0.1982 
     37 C          23.9405  -26.9783  -39.9897 C.2       5 UNK         0.5017 
     38 O          25.1143  -27.3050  -39.8107 O.2       5 UNK        -0.5012 
     39 N          23.3193  -27.0385  -41.1733 N.am      6 UNK        -0.4439 
     40 CA         23.8904  -27.5443  -42.4178 C.3       6 UNK         0.0297 
     41 CB         24.3601  -26.3605  -43.2815 C.3       6 UNK        -0.2006 
     42 C          22.7978  -28.3471  -43.1448 C.2       6 UNK         0.4892 
     43 O          21.6953  -27.8205  -43.2824 O.2       6 UNK        -0.5089 
     44 N          23.0522  -29.5640  -43.6378 N.am      7 UNK        -0.4243 
     45 CA         24.2559  -30.3803  -43.5076 C.3       7 UNK         0.0196 
     46 CB         25.2784  -29.9987  -44.5926 C.3       7 UNK        -0.2007 
     47 C          23.8501  -31.8531  -43.6188 C.2       7 UNK         0.5020 
     48 O          22.8244  -32.1584  -44.2302 O.2       7 UNK        -0.5147 
     49 N          24.6618  -32.7300  -43.0094 N.am      8 UNK        -0.4734 
     50 CA         24.4451  -34.1787  -42.8572 C.3       8 UNK         0.0238 
     51 CB         24.4568  -34.8918  -44.2271 C.3       8 UNK        -0.1912 
     52 C          23.1994  -34.5263  -42.0122 C.2       8 UNK         0.5038 
     53 O          22.6139  -35.5956  -42.1936 O.2       8 UNK        -0.5046 
     54 N          22.8247  -33.6193  -41.0998 N.am      9 UNK        -0.4200 
     55 CA         21.6580  -33.7374  -40.2118 C.3       9 UNK         0.0839 
     56 C          21.8679  -34.6725  -38.9856 C.2       9 UNK         0.5513 
     57 N          23.0723  -35.1620  -38.7154 N.am      9 UNK        -0.7519 
     58 O          20.9147  -34.9647  -38.2683 O.2       9 UNK        -0.4960 
     59 C59        21.1271  -32.3457  -39.7671 C.3       10 UNK        -0.0876 
     60 S60        20.8014  -31.1845  -41.1402 S.3       10 UNK        -0.2414 
     61 C61        19.4442  -32.0392  -41.9949 C.3       10 UNK         0.0169 
     62 H62        20.8380  -24.3043  -50.4057 H         1 UNK         0.0903 
     63 H63        22.1978  -25.3991  -50.1498 H         1 UNK         0.0903 
     64 H64        20.7101  -25.9991  -50.8840 H         1 UNK         0.0903 
     65 H65        22.3986  -25.9779  -48.0355 H         1 UNK         0.3096 
     66 H66        22.1015  -26.6330  -45.9821 H         1 UNK         0.1121 
     67 H67        19.2258  -27.3751  -46.7493 H         1 UNK         0.0849 
     68 H68        19.8871  -27.6701  -45.1737 H         1 UNK         0.0849 
     69 H69        18.7199  -29.8675  -47.4524 H         1 UNK         0.0865 
     70 H70        19.7517  -31.2093  -47.0337 H         1 UNK         0.0865 
     71 H71        20.3100  -31.6219  -44.5437 H         1 UNK         0.1346 
     72 H72        17.1799  -30.5315  -41.8224 H         1 UNK         0.1412 
     73 H73        17.1806  -28.9797  -45.8188 H         1 UNK         0.1426 
     74 H74        15.1970  -29.3950  -42.6933 H         1 UNK         0.0716 
     75 H75        15.1014  -28.9876  -44.3844 H         1 UNK         0.0716 
     76 H76        16.3717  -28.1861  -40.9602 H         1 UNK         0.0695 
     77 H77        16.2241  -26.4527  -40.8509 H         1 UNK         0.0695 
     78 H78        18.6658  -27.9454  -41.9303 H         1 UNK         0.0983 
     79 H79        18.0621  -25.5667  -42.7580 H         1 UNK         0.3095 
     80 H80        19.3610  -23.9194  -43.5071 H         1 UNK         0.0454 
     81 H81        22.2745  -23.8631  -42.4922 H         1 UNK         0.0851 
     82 H82        21.0031  -22.7554  -41.9994 H         1 UNK         0.0851 
     83 H83        21.5745  -22.7464  -43.6610 H         1 UNK         0.0851 
     84 H84        21.0671  -26.2292  -43.8887 H         1 UNK         0.2976 
     85 H85        19.4850  -29.0596  -40.3548 H         1 UNK         0.3116 
     86 H86        20.1607  -29.8621  -38.4446 H         1 UNK         0.0646 
     87 H87        19.0190  -27.5037  -36.8764 H         1 UNK         0.0847 
     88 H88        18.1431  -28.9903  -37.2484 H         1 UNK         0.0847 
     89 H89        19.5767  -29.0356  -36.2355 H         1 UNK         0.0847 
     90 H90        21.0803  -26.6287  -39.4121 H         1 UNK         0.3040 
     91 H91        23.6319  -26.7830  -37.8847 H         1 UNK         0.1015 
     92 H92        24.0037  -24.5010  -38.7260 H         1 UNK         0.0786 
     93 H93        22.4414  -24.5949  -37.9294 H         1 UNK         0.0786 
     94 H94        22.5372  -24.5604  -39.6881 H         1 UNK         0.0786 
     95 H95        22.3479  -26.7345  -41.2349 H         1 UNK         0.3172 
     96 H96        24.7574  -28.1617  -42.1936 H         1 UNK         0.0595 
     97 H97        23.5417  -25.6800  -43.5159 H         1 UNK         0.0839 
     98 H98        24.7767  -26.7055  -44.2280 H         1 UNK         0.0839 
     99 H99        25.1356  -25.7858  -42.7752 H         1 UNK         0.0839 
    100 H100       22.2940  -30.0615  -44.0893 H         1 UNK         0.2998 
    101 H101       24.6907  -30.2528  -42.5158 H         1 UNK         0.0822 
    102 H102       26.1586  -30.6414  -44.5475 H         1 UNK         0.0787 
    103 H103       24.8538  -30.0973  -45.5927 H         1 UNK         0.0787 
    104 H104       25.6257  -28.9728  -44.4773 H         1 UNK         0.0787 
    105 H105       25.4912  -32.3710  -42.5547 H         1 UNK         0.3055 
    106 H106       25.2972  -34.5562  -42.2895 H         1 UNK         0.1106 
    107 H107       25.3451  -34.6322  -44.8028 H         1 UNK         0.0828 
    108 H108       24.4583  -35.9755  -44.1041 H         1 UNK         0.0828 
    109 H109       23.5820  -34.6369  -44.8259 H         1 UNK         0.0828 
    110 H110       23.3583  -32.7676  -41.0199 H         1 UNK         0.2931 
    111 H111       20.8643  -34.2132  -40.7896 H         1 UNK         0.0412 
    112 H112       23.1914  -35.7697  -37.9198 H         1 UNK         0.3472 
    113 H113       23.8615  -34.9318  -39.2972 H         1 UNK         0.3472 
    114 H114       20.2049  -32.4555  -39.1930 H         1 UNK         0.0970 
    115 H115       21.8421  -31.8692  -39.0937 H         1 UNK         0.0970 
    116 H116       19.8256  -32.9518  -42.4551 H         1 UNK         0.0612 
    117 H117       18.6908  -32.3466  -41.2679 H         1 UNK         0.0612 
@<TRIPOS>BOND
     1    1    2 1    
     2    1   62 1    
     3    1   63 1    
     4    1   64 1    
     5    2    3 2    
     6    2    4 am   BACKBONE|DICT|INTERRES
     7    4    5 1    
     8    4   65 1    
     9    5    6 1    
    10    5   25 1    
    11    5   66 1    
    12    6    7 1    
    13    6   67 1    
    14    6   68 1    
    15    7    8 1    
    16    8    9 1    
    17    8   69 1    
    18    8   70 1    
    19    9   10 ar   
    20    9   14 ar   
    21   10   11 ar   
    22   10   71 1    
    23   11   12 ar   
    24   11   61 1    
    25   12   13 ar   
    26   12   72 1    
    27   13   14 ar   
    28   13   15 1    
    29   14   73 1    
    30   15   16 1    
    31   15   74 1    
    32   15   75 1    
    33   16   17 1    
    34   17   18 1    
    35   17   76 1    
    36   17   77 1    
    37   18   19 1    
    38   18   27 1    
    39   18   78 1    
    40   19   20 am   BACKBONE|DICT|INTERRES
    41   19   79 1    
    42   20   21 2    
    43   20   22 1    
    44   22   23 1    
    45   22   24 1    
    46   22   80 1    
    47   23   81 1    
    48   23   82 1    
    49   23   83 1    
    50   24   25 am   BACKBONE|DICT|INTERRES
    51   24   84 1    
    52   25   26 2    
    53   27   28 2    
    54   27   29 am   BACKBONE|DICT|INTERRES
    55   29   30 1    
    56   29   85 1    
    57   30   31 1    
    58   30   32 1    
    59   30   86 1    
    60   31   87 1    
    61   31   88 1    
    62   31   89 1    
    63   32   33 2    
    64   32   34 am   BACKBONE|DICT|INTERRES
    65   34   35 1    
    66   34   90 1    
    67   35   36 1    
    68   35   37 1    
    69   35   91 1    
    70   36   92 1    
    71   36   93 1    
    72   36   94 1    
    73   37   38 2    
    74   37   39 am   BACKBONE|DICT|INTERRES
    75   39   40 1    
    76   39   95 1    
    77   40   41 1    
    78   40   42 1    
    79   40   96 1    
    80   41   97 1    
    81   41   98 1    
    82   41   99 1    
    83   42   43 2    
    84   42   44 am   BACKBONE|DICT|INTERRES
    85   44   45 1    
    86   44  100 1    
    87   45   46 1    
    88   45   47 1    
    89   45  101 1    
    90   46  102 1    
    91   46  103 1    
    92   46  104 1    
    93   47   48 2    
    94   47   49 am   BACKBONE|DICT|INTERRES
    95   49   50 1    
    96   49  105 1    
    97   50   51 1    
    98   50   52 1    
    99   50  106 1    
   100   51  107 1    
   101   51  108 1    
   102   51  109 1    
   103   52   53 2    
   104   52   54 am   BACKBONE|DICT|INTERRES
   105   54   55 1    
   106   54  110 1    
   107   55   56 1    
   108   55   59 1    
   109   55  111 1    
   110   56   57 am   BACKBONE|DICT|INTERRES
   111   56   58 2    
   112   57  112 1    
   113   57  113 1    
   114   59   60 1    
   115   59  114 1    
   116   59  115 1    
   117   60   61 1    
   118   61  116 1    
   119   61  117 1    
@<TRIPOS>SUBSTRUCTURE
     1 UNK         1 GROUP             0       ****    0 ROOT    
