@<TRIPOS>MOLECULE
3R8
117   119    1
SMALL
USER_CHARGES


@<TRIPOS>ATOM
      1 CA         15.1074  -22.9549  -45.9578 C.3       0 UNK        -0.2013 
      2 C          16.6067  -23.1121  -46.1614 C.2       0 UNK         0.4866 
      3 O          17.3325  -22.1179  -46.1664 O.2       0 UNK        -0.5176 
      4 N          17.0788  -24.3548  -46.3247 N.am      1 UNK        -0.4884 
      5 CA         18.4924  -24.6981  -46.5371 C.3       1 UNK         0.0853 
      6 C6         18.6444  -26.0288  -47.3182 C.3       10 UNK        -0.0849 
      7 S7         17.8349  -27.4680  -46.5334 S.3       10 UNK        -0.2776 
      8 C8         19.2613  -28.2427  -45.7124 C.3       10 UNK         0.0316 
      9 C9         18.8939  -29.5725  -45.0751 C.ar      10 UNK        -0.0863 
     10 C10        19.3924  -30.7669  -45.6029 C.ar      10 UNK        -0.1009 
     11 C11        19.1034  -31.9894  -44.9903 C.ar      10 UNK        -0.0712 
     12 C12        18.3083  -32.0106  -43.8413 C.ar      10 UNK        -0.0894 
     13 C13        17.8070  -30.8221  -43.3004 C.ar      10 UNK        -0.0745 
     14 C14        18.0900  -29.6078  -43.9323 C.ar      10 UNK        -0.0972 
     15 C15        16.9621  -30.8562  -42.0348 C.3       10 UNK         0.0209 
     16 S16        17.9521  -30.4851  -40.5484 S.3       10 UNK        -0.2568 
     17 C17        17.9250  -28.6617  -40.5037 C.3       10 UNK        -0.0983 
     18 CA         19.2168  -28.0028  -41.0562 C.3       3 UNK         0.0876 
     19 N          18.9127  -26.6804  -41.6236 N.am      3 UNK        -0.4424 
     20 C          19.7682  -25.8955  -42.2900 C.2       2 UNK         0.4918 
     21 O          20.9365  -26.2052  -42.5244 O.2       2 UNK        -0.4875 
     22 CA         19.2205  -24.5233  -42.7165 C.3       2 UNK         0.0481 
     23 CB         20.2530  -23.3940  -42.5192 C.3       2 UNK        -0.1831 
     24 N          18.6800  -24.5409  -44.0796 N.am      2 UNK        -0.4498 
     25 C          19.3386  -24.6849  -45.2417 C.2       1 UNK         0.5027 
     26 O          20.5604  -24.8050  -45.3351 O.2       1 UNK        -0.4969 
     27 C          20.3497  -27.9710  -40.0024 C.2       3 UNK         0.5005 
     28 O          21.0870  -28.9470  -39.8693 O.2       3 UNK        -0.5279 
     29 N          20.4942  -26.8369  -39.2990 N.am      4 UNK        -0.4463 
     30 CA         21.5882  -26.5743  -38.3604 C.3       4 UNK         0.0283 
     31 CB         21.2400  -25.3464  -37.5037 C.3       4 UNK        -0.1875 
     32 C          22.9498  -26.3754  -39.0528 C.2       4 UNK         0.4949 
     33 O          23.9753  -26.7069  -38.4581 O.2       4 UNK        -0.5039 
     34 N          22.9436  -25.8386  -40.2823 N.am      5 UNK        -0.4663 
     35 CA         24.1404  -25.6728  -41.1104 C.3       5 UNK         0.0242 
     36 CB         23.9399  -24.5165  -42.1035 C.3       5 UNK        -0.1982 
     37 C          24.4721  -26.9777  -41.8457 C.2       5 UNK         0.5017 
     38 O          25.6259  -27.4079  -41.8323 O.2       5 UNK        -0.5012 
     39 N          23.4466  -27.6175  -42.4250 N.am      6 UNK        -0.4439 
     40 CA         23.5089  -28.9283  -43.0776 C.3       6 UNK         0.0297 
     41 CB         22.3259  -29.0503  -44.0543 C.3       6 UNK        -0.2006 
     42 C          23.5433  -30.0833  -42.0555 C.2       6 UNK         0.4892 
     43 O          22.7606  -31.0279  -42.1628 O.2       6 UNK        -0.5089 
     44 N          24.4644  -30.0004  -41.0857 N.am      7 UNK        -0.4243 
     45 CA         24.5989  -30.8915  -39.9262 C.3       7 UNK         0.0196 
     46 CB         25.7049  -30.3430  -39.0100 C.3       7 UNK        -0.2007 
     47 C          24.8504  -32.3765  -40.2543 C.2       7 UNK         0.5020 
     48 O          24.6896  -33.2219  -39.3738 O.2       7 UNK        -0.5147 
     49 N          25.2195  -32.6763  -41.5066 N.am      8 UNK        -0.4734 
     50 CA         25.3310  -34.0296  -42.0533 C.3       8 UNK         0.0238 
     51 CB         26.0289  -33.9588  -43.4216 C.3       8 UNK        -0.1912 
     52 C          23.9811  -34.7643  -42.1792 C.2       8 UNK         0.5038 
     53 O          23.9879  -35.9954  -42.2337 O.2       8 UNK        -0.5046 
     54 N          22.8635  -34.0257  -42.2266 N.am      9 UNK        -0.4200 
     55 CA         21.5056  -34.5814  -42.3355 C.3       9 UNK         0.0839 
     56 C          20.4019  -33.7657  -41.6113 C.2       9 UNK         0.5513 
     57 N          20.6297  -32.5254  -41.2046 N.am      9 UNK        -0.7519 
     58 O          19.3147  -34.2904  -41.3833 O.2       9 UNK        -0.4960 
     59 C59        21.1215  -34.9607  -43.7927 C.3       10 UNK        -0.0876 
     60 S60        21.3470  -33.6155  -45.0139 S.3       10 UNK        -0.2414 
     61 C61        19.6481  -33.2807  -45.5810 C.3       10 UNK         0.0169 
     62 H62        14.5906  -23.9144  -45.9717 H         1 UNK         0.0903 
     63 H63        14.9065  -22.4751  -45.0003 H         1 UNK         0.0903 
     64 H64        14.6857  -22.3319  -46.7460 H         1 UNK         0.0903 
     65 H65        16.4432  -25.1418  -46.3163 H         1 UNK         0.3096 
     66 H66        18.9271  -23.9173  -47.1661 H         1 UNK         0.1121 
     67 H67        18.2006  -25.9099  -48.3079 H         1 UNK         0.0849 
     68 H68        19.6970  -26.2488  -47.5074 H         1 UNK         0.0849 
     69 H69        20.0662  -28.3787  -46.4365 H         1 UNK         0.0865 
     70 H70        19.6519  -27.5760  -44.9430 H         1 UNK         0.0865 
     71 H71        20.0182  -30.7481  -46.4848 H         1 UNK         0.1346 
     72 H72        18.0877  -32.9536  -43.3610 H         1 UNK         0.1412 
     73 H73        17.7002  -28.6851  -43.5259 H         1 UNK         0.1426 
     74 H74        16.5219  -31.8470  -41.9121 H         1 UNK         0.0716 
     75 H75        16.1218  -30.1660  -42.1191 H         1 UNK         0.0716 
     76 H76        17.7285  -28.3421  -39.4784 H         1 UNK         0.0695 
     77 H77        17.0556  -28.3307  -41.0733 H         1 UNK         0.0695 
     78 H78        19.5954  -28.6100  -41.8801 H         1 UNK         0.0983 
     79 H79        17.9736  -26.3417  -41.4710 H         1 UNK         0.3095 
     80 H80        18.3767  -24.2898  -42.0651 H         1 UNK         0.0454 
     81 H81        20.5992  -23.3579  -41.4857 H         1 UNK         0.0851 
     82 H82        21.1334  -23.5224  -43.1478 H         1 UNK         0.0851 
     83 H83        19.8210  -22.4205  -42.7500 H         1 UNK         0.0851 
     84 H84        17.6749  -24.4640  -44.1476 H         1 UNK         0.2976 
     85 H85        19.8321  -26.0902  -39.4512 H         1 UNK         0.3116 
     86 H86        21.6794  -27.4370  -37.6967 H         1 UNK         0.0646 
     87 H87        22.0270  -25.1448  -36.7755 H         1 UNK         0.0847 
     88 H88        20.3170  -25.4999  -36.9444 H         1 UNK         0.0847 
     89 H89        21.1218  -24.4478  -38.1106 H         1 UNK         0.0847 
     90 H90        22.0564  -25.6509  -40.7291 H         1 UNK         0.3040 
     91 H91        24.9880  -25.4216  -40.4682 H         1 UNK         0.1015 
     92 H92        23.6737  -23.5922  -41.5906 H         1 UNK         0.0786 
     93 H93        23.1595  -24.7343  -42.8328 H         1 UNK         0.0786 
     94 H94        24.8569  -24.3249  -42.6621 H         1 UNK         0.0786 
     95 H95        22.5303  -27.1760  -42.3913 H         1 UNK         0.3172 
     96 H96        24.4302  -28.9846  -43.6606 H         1 UNK         0.0595 
     97 H97        22.3233  -28.2388  -44.7820 H         1 UNK         0.0839 
     98 H98        21.3719  -29.0321  -43.5267 H         1 UNK         0.0839 
     99 H99        22.3689  -29.9876  -44.6111 H         1 UNK         0.0839 
    100 H100       25.0774  -29.1919  -41.1092 H         1 UNK         0.2998 
    101 H101       23.6522  -30.8475  -39.3832 H         1 UNK         0.0822 
    102 H102       26.6728  -30.3287  -39.5127 H         1 UNK         0.0787 
    103 H103       25.8109  -30.9540  -38.1125 H         1 UNK         0.0787 
    104 H104       25.4802  -29.3271  -38.6829 H         1 UNK         0.0787 
    105 H105       25.3240  -31.9120  -42.1578 H         1 UNK         0.3055 
    106 H106       25.9554  -34.6165  -41.3759 H         1 UNK         0.1106 
    107 H107       25.4506  -33.3758  -44.1397 H         1 UNK         0.0828 
    108 H108       27.0192  -33.5101  -43.3411 H         1 UNK         0.0828 
    109 H109       26.1610  -34.9559  -43.8441 H         1 UNK         0.0828 
    110 H110       22.9292  -33.0139  -42.1900 H         1 UNK         0.2931 
    111 H111       21.5149  -35.5174  -41.7728 H         1 UNK         0.0412 
    112 H112       19.8825  -32.0236  -40.7498 H         1 UNK         0.3472 
    113 H113       21.4666  -32.0161  -41.4785 H         1 UNK         0.3472 
    114 H114       20.1032  -35.3501  -43.8320 H         1 UNK         0.0970 
    115 H115       21.7506  -35.7909  -44.1168 H         1 UNK         0.0970 
    116 H116       18.9862  -34.1164  -45.3521 H         1 UNK         0.0612 
    117 H117       19.6596  -33.2024  -46.6691 H         1 UNK         0.0612 
@<TRIPOS>BOND
     1    1    2 1    
     2    1   62 1    
     3    1   63 1    
     4    1   64 1    
     5    2    3 2    
     6    2    4 am   BACKBONE|DICT|INTERRES
     7    4    5 1    
     8    4   65 1    
     9    5    6 1    
    10    5   25 1    
    11    5   66 1    
    12    6    7 1    
    13    6   67 1    
    14    6   68 1    
    15    7    8 1    
    16    8    9 1    
    17    8   69 1    
    18    8   70 1    
    19    9   10 ar   
    20    9   14 ar   
    21   10   11 ar   
    22   10   71 1    
    23   11   12 ar   
    24   11   61 1    
    25   12   13 ar   
    26   12   72 1    
    27   13   14 ar   
    28   13   15 1    
    29   14   73 1    
    30   15   16 1    
    31   15   74 1    
    32   15   75 1    
    33   16   17 1    
    34   17   18 1    
    35   17   76 1    
    36   17   77 1    
    37   18   19 1    
    38   18   27 1    
    39   18   78 1    
    40   19   20 am   BACKBONE|DICT|INTERRES
    41   19   79 1    
    42   20   21 2    
    43   20   22 1    
    44   22   23 1    
    45   22   24 1    
    46   22   80 1    
    47   23   81 1    
    48   23   82 1    
    49   23   83 1    
    50   24   25 am   BACKBONE|DICT|INTERRES
    51   24   84 1    
    52   25   26 2    
    53   27   28 2    
    54   27   29 am   BACKBONE|DICT|INTERRES
    55   29   30 1    
    56   29   85 1    
    57   30   31 1    
    58   30   32 1    
    59   30   86 1    
    60   31   87 1    
    61   31   88 1    
    62   31   89 1    
    63   32   33 2    
    64   32   34 am   BACKBONE|DICT|INTERRES
    65   34   35 1    
    66   34   90 1    
    67   35   36 1    
    68   35   37 1    
    69   35   91 1    
    70   36   92 1    
    71   36   93 1    
    72   36   94 1    
    73   37   38 2    
    74   37   39 am   BACKBONE|DICT|INTERRES
    75   39   40 1    
    76   39   95 1    
    77   40   41 1    
    78   40   42 1    
    79   40   96 1    
    80   41   97 1    
    81   41   98 1    
    82   41   99 1    
    83   42   43 2    
    84   42   44 am   BACKBONE|DICT|INTERRES
    85   44   45 1    
    86   44  100 1    
    87   45   46 1    
    88   45   47 1    
    89   45  101 1    
    90   46  102 1    
    91   46  103 1    
    92   46  104 1    
    93   47   48 2    
    94   47   49 am   BACKBONE|DICT|INTERRES
    95   49   50 1    
    96   49  105 1    
    97   50   51 1    
    98   50   52 1    
    99   50  106 1    
   100   51  107 1    
   101   51  108 1    
   102   51  109 1    
   103   52   53 2    
   104   52   54 am   BACKBONE|DICT|INTERRES
   105   54   55 1    
   106   54  110 1    
   107   55   56 1    
   108   55   59 1    
   109   55  111 1    
   110   56   57 am   BACKBONE|DICT|INTERRES
   111   56   58 2    
   112   57  112 1    
   113   57  113 1    
   114   59   60 1    
   115   59  114 1    
   116   59  115 1    
   117   60   61 1    
   118   61  116 1    
   119   61  117 1    
@<TRIPOS>SUBSTRUCTURE
     1 UNK         1 GROUP             0       ****    0 ROOT    
