@<TRIPOS>MOLECULE
3R8
117   119    1
SMALL
USER_CHARGES


@<TRIPOS>ATOM
      1 CA         18.4411  -22.6083  -42.3683 C.3       0 UNK        -0.2013 
      2 C          17.9662  -23.9112  -41.7286 C.2       0 UNK         0.4866 
      3 O          17.8157  -23.9601  -40.5094 O.2       0 UNK        -0.5176 
      4 N          17.6978  -24.9820  -42.4894 N.am      1 UNK        -0.4884 
      5 CA         17.8710  -25.1253  -43.9410 C.3       1 UNK         0.0853 
      6 C6         17.2980  -26.4719  -44.4438 C.3       10 UNK        -0.0849 
      7 S7         15.5171  -26.7143  -44.1105 S.3       10 UNK        -0.2776 
      8 C8         15.4725  -28.3178  -43.2156 C.3       10 UNK         0.0316 
      9 C9         16.2772  -29.4585  -43.8483 C.ar      10 UNK        -0.0863 
     10 C10        16.7588  -30.4879  -43.0323 C.ar      10 UNK        -0.1009 
     11 C11        17.5804  -31.4930  -43.5540 C.ar      10 UNK        -0.0712 
     12 C12        17.9257  -31.4653  -44.9094 C.ar      10 UNK        -0.0894 
     13 C13        17.4206  -30.4658  -45.7461 C.ar      10 UNK        -0.0745 
     14 C14        16.5718  -29.4913  -45.2157 C.ar      10 UNK        -0.0972 
     15 C15        17.7650  -30.4350  -47.2281 C.3       10 UNK         0.0209 
     16 S16        18.5380  -28.8553  -47.7174 S.3       10 UNK        -0.2568 
     17 C17        20.3266  -29.2296  -47.6781 C.3       10 UNK        -0.0983 
     18 CA         21.1571  -28.4163  -46.6471 C.3       3 UNK         0.0876 
     19 N          20.7750  -27.0011  -46.6059 N.am      3 UNK        -0.4424 
     20 C          21.6007  -25.9852  -46.3212 C.2       2 UNK         0.4918 
     21 O          22.8076  -26.1148  -46.1220 O.2       2 UNK        -0.4875 
     22 CA         20.9578  -24.5898  -46.1981 C.3       2 UNK         0.0481 
     23 CB         20.8975  -23.9017  -47.5708 C.3       2 UNK        -0.1831 
     24 N          19.6159  -24.6179  -45.5998 N.am      2 UNK        -0.4498 
     25 C          19.3558  -25.0460  -44.3562 C.2       1 UNK         0.5027 
     26 O          20.2305  -25.4459  -43.5839 O.2       1 UNK        -0.4969 
     27 C          21.1949  -29.0797  -45.2521 C.2       3 UNK         0.5005 
     28 O          21.7498  -30.1745  -45.1414 O.2       3 UNK        -0.5279 
     29 N          20.6571  -28.4188  -44.2135 N.am      4 UNK        -0.4463 
     30 CA         20.8133  -28.8425  -42.8196 C.3       4 UNK         0.0283 
     31 CB         19.6387  -28.3597  -41.9539 C.3       4 UNK        -0.1875 
     32 C          22.1416  -28.3398  -42.2467 C.2       4 UNK         0.4949 
     33 O          22.8489  -29.1176  -41.6087 O.2       4 UNK        -0.5039 
     34 N          22.4600  -27.0604  -42.5012 N.am      5 UNK        -0.4663 
     35 CA         23.6962  -26.3694  -42.1161 C.3       5 UNK         0.0242 
     36 CB         24.8641  -26.8575  -43.0045 C.3       5 UNK        -0.1982 
     37 C          23.9699  -26.4709  -40.6000 C.2       5 UNK         0.5017 
     38 O          23.0579  -26.2329  -39.8053 O.2       5 UNK        -0.5012 
     39 N          25.1945  -26.8532  -40.2161 N.am      6 UNK        -0.4439 
     40 CA         25.6150  -27.1024  -38.8350 C.3       6 UNK         0.0297 
     41 CB         27.1280  -26.8348  -38.7209 C.3       6 UNK        -0.2006 
     42 C          25.2230  -28.5202  -38.3664 C.2       6 UNK         0.4892 
     43 O          26.0837  -29.2702  -37.9024 O.2       6 UNK        -0.5089 
     44 N          23.9311  -28.8549  -38.5048 N.am      7 UNK        -0.4243 
     45 CA         23.2895  -30.1296  -38.1558 C.3       7 UNK         0.0196 
     46 CB         23.2507  -30.3161  -36.6239 C.3       7 UNK        -0.2007 
     47 C          23.9049  -31.3352  -38.8951 C.2       7 UNK         0.5020 
     48 O          24.2697  -32.3321  -38.2697 O.2       7 UNK        -0.5147 
     49 N          24.0062  -31.2207  -40.2249 N.am      8 UNK        -0.4734 
     50 CA         24.5337  -32.2538  -41.1222 C.3       8 UNK         0.0238 
     51 CB         24.9745  -31.5876  -42.4371 C.3       8 UNK        -0.1912 
     52 C          23.5378  -33.3960  -41.4043 C.2       8 UNK         0.5038 
     53 O          23.9452  -34.4111  -41.9713 O.2       8 UNK        -0.5046 
     54 N          22.2644  -33.2076  -41.0318 N.am      9 UNK        -0.4200 
     55 CA         21.1602  -34.1689  -41.1756 C.3       9 UNK         0.0839 
     56 C          21.4370  -35.5285  -40.4765 C.2       9 UNK         0.5513 
     57 N          21.0676  -36.6363  -41.1046 N.am      9 UNK        -0.7519 
     58 O          21.9335  -35.5820  -39.3533 O.2       9 UNK        -0.4960 
     59 C59        19.8241  -33.5727  -40.6607 C.3       10 UNK        -0.0876 
     60 S60        19.3672  -32.0233  -41.5066 S.3       10 UNK        -0.2414 
     61 C61        18.0842  -32.6112  -42.6523 C.3       10 UNK         0.0169 
     62 H62        19.5065  -22.6589  -42.5913 H         1 UNK         0.0903 
     63 H63        17.8978  -22.3809  -43.2842 H         1 UNK         0.0903 
     64 H64        18.2852  -21.7740  -41.6846 H         1 UNK         0.0903 
     65 H65        17.3684  -25.8149  -42.0248 H         1 UNK         0.3096 
     66 H66        17.3263  -24.3160  -44.4310 H         1 UNK         0.1121 
     67 H67        17.8620  -27.2969  -44.0092 H         1 UNK         0.0849 
     68 H68        17.4273  -26.5618  -45.5244 H         1 UNK         0.0849 
     69 H69        14.4333  -28.6353  -43.1223 H         1 UNK         0.0865 
     70 H70        15.8313  -28.1419  -42.2002 H         1 UNK         0.0865 
     71 H71        16.5197  -30.4954  -41.9773 H         1 UNK         0.1346 
     72 H72        18.5753  -32.2290  -45.3145 H         1 UNK         0.1412 
     73 H73        16.1794  -28.7292  -45.8740 H         1 UNK         0.1426 
     74 H74        16.8420  -30.5562  -47.7967 H         1 UNK         0.0716 
     75 H75        18.4030  -31.2745  -47.5073 H         1 UNK         0.0716 
     76 H76        20.7038  -29.0031  -48.6765 H         1 UNK         0.0695 
     77 H77        20.4880  -30.3022  -47.5569 H         1 UNK         0.0695 
     78 H78        22.1923  -28.4613  -46.9942 H         1 UNK         0.0983 
     79 H79        19.8026  -26.8083  -46.7972 H         1 UNK         0.3095 
     80 H80        21.5974  -23.9900  -45.5470 H         1 UNK         0.0454 
     81 H81        20.2494  -24.4366  -48.2660 H         1 UNK         0.0851 
     82 H82        21.8884  -23.8502  -48.0244 H         1 UNK         0.0851 
     83 H83        20.5299  -22.8789  -47.4869 H         1 UNK         0.0851 
     84 H84        18.8536  -24.3110  -46.1882 H         1 UNK         0.2976 
     85 H85        20.2867  -27.4921  -44.3667 H         1 UNK         0.3116 
     86 H86        20.8275  -29.9325  -42.7833 H         1 UNK         0.0646 
     87 H87        18.6899  -28.7240  -42.3384 H         1 UNK         0.0847 
     88 H88        19.5853  -27.2740  -41.8878 H         1 UNK         0.0847 
     89 H89        19.7347  -28.7382  -40.9355 H         1 UNK         0.0847 
     90 H90        21.7620  -26.4818  -42.9602 H         1 UNK         0.3040 
     91 H91        23.5355  -25.3105  -42.3246 H         1 UNK         0.1015 
     92 H92        25.7697  -26.2744  -42.8326 H         1 UNK         0.0786 
     93 H93        24.6182  -26.7485  -44.0610 H         1 UNK         0.0786 
     94 H94        25.0991  -27.9090  -42.8329 H         1 UNK         0.0786 
     95 H95        25.8664  -27.0756  -40.9366 H         1 UNK         0.3172 
     96 H96        25.1070  -26.3961  -38.1748 H         1 UNK         0.0595 
     97 H97        27.7082  -27.5174  -39.3432 H         1 UNK         0.0839 
     98 H98        27.4707  -26.9599  -37.6928 H         1 UNK         0.0839 
     99 H99        27.3749  -25.8157  -39.0190 H         1 UNK         0.0839 
    100 H100       23.3280  -28.1612  -38.9337 H         1 UNK         0.2998 
    101 H101       22.2576  -30.0563  -38.5032 H         1 UNK         0.0822 
    102 H102       22.7696  -29.4700  -36.1334 H         1 UNK         0.0787 
    103 H103       22.6868  -31.2099  -36.3538 H         1 UNK         0.0787 
    104 H104       24.2509  -30.4236  -36.2029 H         1 UNK         0.0787 
    105 H105       23.6539  -30.3732  -40.6741 H         1 UNK         0.3055 
    106 H106       25.4127  -32.7022  -40.6536 H         1 UNK         0.1106 
    107 H107       25.4396  -32.3123  -43.1066 H         1 UNK         0.0828 
    108 H108       25.7038  -30.7976  -42.2579 H         1 UNK         0.0828 
    109 H109       24.1292  -31.1489  -42.9696 H         1 UNK         0.0828 
    110 H110       22.0306  -32.3320  -40.5900 H         1 UNK         0.2931 
    111 H111       21.0542  -34.3563  -42.2462 H         1 UNK         0.0412 
    112 H112       20.6501  -36.6017  -42.0220 H         1 UNK         0.3472 
    113 H113       21.2223  -37.5277  -40.6591 H         1 UNK         0.3472 
    114 H114       19.0122  -34.2938  -40.7749 H         1 UNK         0.0970 
    115 H115       19.8887  -33.3654  -39.5906 H         1 UNK         0.0970 
    116 H116       17.2492  -33.0196  -42.0811 H         1 UNK         0.0612 
    117 H117       18.4865  -33.4322  -43.2479 H         1 UNK         0.0612 
@<TRIPOS>BOND
     1    1    2 1    
     2    1   62 1    
     3    1   63 1    
     4    1   64 1    
     5    2    3 2    
     6    2    4 am   BACKBONE|DICT|INTERRES
     7    4    5 1    
     8    4   65 1    
     9    5    6 1    
    10    5   25 1    
    11    5   66 1    
    12    6    7 1    
    13    6   67 1    
    14    6   68 1    
    15    7    8 1    
    16    8    9 1    
    17    8   69 1    
    18    8   70 1    
    19    9   10 ar   
    20    9   14 ar   
    21   10   11 ar   
    22   10   71 1    
    23   11   12 ar   
    24   11   61 1    
    25   12   13 ar   
    26   12   72 1    
    27   13   14 ar   
    28   13   15 1    
    29   14   73 1    
    30   15   16 1    
    31   15   74 1    
    32   15   75 1    
    33   16   17 1    
    34   17   18 1    
    35   17   76 1    
    36   17   77 1    
    37   18   19 1    
    38   18   27 1    
    39   18   78 1    
    40   19   20 am   BACKBONE|DICT|INTERRES
    41   19   79 1    
    42   20   21 2    
    43   20   22 1    
    44   22   23 1    
    45   22   24 1    
    46   22   80 1    
    47   23   81 1    
    48   23   82 1    
    49   23   83 1    
    50   24   25 am   BACKBONE|DICT|INTERRES
    51   24   84 1    
    52   25   26 2    
    53   27   28 2    
    54   27   29 am   BACKBONE|DICT|INTERRES
    55   29   30 1    
    56   29   85 1    
    57   30   31 1    
    58   30   32 1    
    59   30   86 1    
    60   31   87 1    
    61   31   88 1    
    62   31   89 1    
    63   32   33 2    
    64   32   34 am   BACKBONE|DICT|INTERRES
    65   34   35 1    
    66   34   90 1    
    67   35   36 1    
    68   35   37 1    
    69   35   91 1    
    70   36   92 1    
    71   36   93 1    
    72   36   94 1    
    73   37   38 2    
    74   37   39 am   BACKBONE|DICT|INTERRES
    75   39   40 1    
    76   39   95 1    
    77   40   41 1    
    78   40   42 1    
    79   40   96 1    
    80   41   97 1    
    81   41   98 1    
    82   41   99 1    
    83   42   43 2    
    84   42   44 am   BACKBONE|DICT|INTERRES
    85   44   45 1    
    86   44  100 1    
    87   45   46 1    
    88   45   47 1    
    89   45  101 1    
    90   46  102 1    
    91   46  103 1    
    92   46  104 1    
    93   47   48 2    
    94   47   49 am   BACKBONE|DICT|INTERRES
    95   49   50 1    
    96   49  105 1    
    97   50   51 1    
    98   50   52 1    
    99   50  106 1    
   100   51  107 1    
   101   51  108 1    
   102   51  109 1    
   103   52   53 2    
   104   52   54 am   BACKBONE|DICT|INTERRES
   105   54   55 1    
   106   54  110 1    
   107   55   56 1    
   108   55   59 1    
   109   55  111 1    
   110   56   57 am   BACKBONE|DICT|INTERRES
   111   56   58 2    
   112   57  112 1    
   113   57  113 1    
   114   59   60 1    
   115   59  114 1    
   116   59  115 1    
   117   60   61 1    
   118   61  116 1    
   119   61  117 1    
@<TRIPOS>SUBSTRUCTURE
     1 UNK         1 GROUP             0       ****    0 ROOT    
