@<TRIPOS>MOLECULE
3R8
117   119    1
SMALL
USER_CHARGES


@<TRIPOS>ATOM
      1 CA         15.6949  -24.3343  -42.6645 C.3       0 UNK        -0.2013 
      2 C          16.1151  -24.6889  -44.0820 C.2       0 UNK         0.4866 
      3 O          16.4192  -23.7909  -44.8672 O.2       0 UNK        -0.5176 
      4 N          16.1070  -25.9843  -44.4248 N.am      1 UNK        -0.4884 
      5 CA         16.3376  -26.4901  -45.7854 C.3       1 UNK         0.0853 
      6 C6         15.8640  -27.9588  -46.0087 C.3       10 UNK        -0.0849 
      7 S7         14.5034  -28.5007  -44.9091 S.3       10 UNK        -0.2776 
      8 C8         15.1949  -29.9918  -44.1113 C.3       10 UNK         0.0316 
      9 C9         16.5697  -29.7714  -43.4869 C.ar      10 UNK        -0.0863 
     10 C10        17.6964  -30.3781  -44.0523 C.ar      10 UNK        -0.1009 
     11 C11        18.9581  -30.2111  -43.4772 C.ar      10 UNK        -0.0712 
     12 C12        19.0918  -29.4321  -42.3261 C.ar      10 UNK        -0.0894 
     13 C13        17.9787  -28.8071  -41.7570 C.ar      10 UNK        -0.0745 
     14 C14        16.7175  -28.9875  -42.3376 C.ar      10 UNK        -0.0972 
     15 C15        18.1299  -27.9465  -40.5107 C.3       10 UNK         0.0209 
     16 S16        18.0536  -26.1766  -40.9297 S.3       10 UNK        -0.2568 
     17 C17        19.7736  -25.6070  -40.7137 C.3       10 UNK        -0.0983 
     18 CA         20.7838  -26.2171  -41.7149 C.3       3 UNK         0.0876 
     19 N          20.3345  -26.1276  -43.1129 N.am      3 UNK        -0.4424 
     20 C          20.8729  -26.8106  -44.1341 C.2       2 UNK         0.4918 
     21 O          21.8786  -27.5116  -44.0178 O.2       2 UNK        -0.4875 
     22 CA         20.1726  -26.6862  -45.4958 C.3       2 UNK         0.0481 
     23 CB         20.6410  -27.7542  -46.5066 C.3       2 UNK        -0.1831 
     24 N          18.7216  -26.7406  -45.3182 N.am      2 UNK        -0.4498 
     25 C          17.8098  -26.3243  -46.2073 C.2       1 UNK         0.5027 
     26 O          18.0833  -25.8304  -47.3023 O.2       1 UNK        -0.4969 
     27 C          22.2063  -25.6676  -41.4703 C.2       3 UNK         0.5005 
     28 O          22.7868  -25.9581  -40.4243 O.2       3 UNK        -0.5279 
     29 N          22.7795  -24.9475  -42.4469 N.am      4 UNK        -0.4463 
     30 CA         24.1954  -24.5646  -42.4906 C.3       4 UNK         0.0283 
     31 CB         24.4338  -23.6413  -43.6959 C.3       4 UNK        -0.1875 
     32 C          25.1564  -25.7714  -42.5394 C.2       4 UNK         0.4949 
     33 O          26.2979  -25.6462  -42.0972 O.2       4 UNK        -0.5039 
     34 N          24.6741  -26.9207  -43.0360 N.am      5 UNK        -0.4663 
     35 CA         25.3750  -28.2077  -43.0197 C.3       5 UNK         0.0242 
     36 CB         24.9923  -28.9879  -44.2903 C.3       5 UNK        -0.1982 
     37 C          25.0765  -29.0327  -41.7490 C.2       5 UNK         0.5017 
     38 O          25.4671  -30.1994  -41.6975 O.2       5 UNK        -0.5012 
     39 N          24.3913  -28.4284  -40.7629 N.am      6 UNK        -0.4439 
     40 CA         23.8506  -29.0140  -39.5292 C.3       6 UNK         0.0297 
     41 CB         24.9543  -29.6993  -38.6929 C.3       6 UNK        -0.2006 
     42 C          22.6588  -29.9503  -39.7989 C.2       6 UNK         0.4892 
     43 O          22.3181  -30.2191  -40.9514 O.2       6 UNK        -0.5089 
     44 N          22.0406  -30.4465  -38.7183 N.am      7 UNK        -0.4243 
     45 CA         20.9205  -31.3966  -38.7618 C.3       7 UNK         0.0196 
     46 CB         20.3179  -31.5298  -37.3539 C.3       7 UNK        -0.2007 
     47 C          21.2991  -32.7818  -39.3237 C.2       7 UNK         0.5020 
     48 O          20.4140  -33.5205  -39.7542 O.2       7 UNK        -0.5147 
     49 N          22.5998  -33.1075  -39.3185 N.am      8 UNK        -0.4734 
     50 CA         23.1681  -34.2888  -39.9734 C.3       8 UNK         0.0238 
     51 CB         24.5746  -34.5457  -39.4078 C.3       8 UNK        -0.1912 
     52 C          23.2222  -34.1608  -41.5087 C.2       8 UNK         0.5038 
     53 O          23.2780  -35.1882  -42.1866 O.2       8 UNK        -0.5046 
     54 N          23.1978  -32.9205  -42.0179 N.am      9 UNK        -0.4200 
     55 CA         23.2372  -32.5401  -43.4376 C.3       9 UNK         0.0839 
     56 C          24.5786  -32.8889  -44.1514 C.2       9 UNK         0.5513 
     57 N          24.6898  -32.6087  -45.4440 N.am      9 UNK        -0.7519 
     58 O          25.5355  -33.3799  -43.5556 O.2       9 UNK        -0.4960 
     59 C59        21.9824  -33.0182  -44.2291 C.3       10 UNK        -0.0876 
     60 S60        20.4081  -32.5497  -43.4321 S.3       10 UNK        -0.2414 
     61 C61        20.1775  -30.8754  -44.0943 C.3       10 UNK         0.0169 
     62 H62        16.5114  -23.8353  -42.1433 H         1 UNK         0.0903 
     63 H63        14.8417  -23.6569  -42.6855 H         1 UNK         0.0903 
     64 H64        15.4098  -25.2163  -42.0913 H         1 UNK         0.0903 
     65 H65        15.8265  -26.6836  -43.7511 H         1 UNK         0.3096 
     66 H66        15.7459  -25.8586  -46.4527 H         1 UNK         0.1121 
     67 H67        15.5215  -28.0709  -47.0389 H         1 UNK         0.0849 
     68 H68        16.6901  -28.6643  -45.9208 H         1 UNK         0.0849 
     69 H69        15.2340  -30.7944  -44.8495 H         1 UNK         0.0865 
     70 H70        14.5025  -30.3300  -43.3391 H         1 UNK         0.0865 
     71 H71        17.5935  -30.9910  -44.9376 H         1 UNK         0.1346 
     72 H72        20.0678  -29.3229  -41.8767 H         1 UNK         0.1412 
     73 H73        15.8503  -28.5171  -41.8940 H         1 UNK         0.1426 
     74 H74        19.0581  -28.1758  -39.9848 H         1 UNK         0.0716 
     75 H75        17.3226  -28.1769  -39.8140 H         1 UNK         0.0716 
     76 H76        20.0741  -25.8240  -39.6866 H         1 UNK         0.0695 
     77 H77        19.7680  -24.5190  -40.8025 H         1 UNK         0.0695 
     78 H78        20.8626  -27.2792  -41.4825 H         1 UNK         0.0983 
     79 H79        19.5216  -25.5523  -43.2800 H         1 UNK         0.3095 
     80 H80        20.4363  -25.7022  -45.8882 H         1 UNK         0.0454 
     81 H81        20.1982  -27.5999  -47.4901 H         1 UNK         0.0851 
     82 H82        20.3780  -28.7582  -46.1762 H         1 UNK         0.0851 
     83 H83        21.7234  -27.7254  -46.6384 H         1 UNK         0.0851 
     84 H84        18.3949  -27.1442  -44.4494 H         1 UNK         0.2976 
     85 H85        22.2286  -24.7453  -43.2684 H         1 UNK         0.3116 
     86 H86        24.4172  -24.0052  -41.5793 H         1 UNK         0.0646 
     87 H87        25.4744  -23.3163  -43.7375 H         1 UNK         0.0847 
     88 H88        23.8192  -22.7428  -43.6376 H         1 UNK         0.0847 
     89 H89        24.2120  -24.1418  -44.6394 H         1 UNK         0.0847 
     90 H90        23.7169  -26.9489  -43.3755 H         1 UNK         0.3040 
     91 H91        26.4534  -28.0360  -43.0415 H         1 UNK         0.1015 
     92 H92        25.1995  -28.4089  -45.1902 H         1 UNK         0.0786 
     93 H93        23.9340  -29.2511  -44.2975 H         1 UNK         0.0786 
     94 H94        25.5610  -29.9153  -44.3671 H         1 UNK         0.0786 
     95 H95        24.0948  -27.4721  -40.9231 H         1 UNK         0.3172 
     96 H96        23.4647  -28.1747  -38.9492 H         1 UNK         0.0595 
     97 H97        25.2879  -30.6357  -39.1410 H         1 UNK         0.0839 
     98 H98        24.6047  -29.9309  -37.6866 H         1 UNK         0.0839 
     99 H99        25.8258  -29.0536  -38.5844 H         1 UNK         0.0839 
    100 H100       22.3630  -30.1711  -37.8014 H         1 UNK         0.2998 
    101 H101       20.1568  -30.9818  -39.4242 H         1 UNK         0.0822 
    102 H102       21.0418  -31.9253  -36.6403 H         1 UNK         0.0787 
    103 H103       19.9651  -30.5685  -36.9798 H         1 UNK         0.0787 
    104 H104       19.4620  -32.2065  -37.3585 H         1 UNK         0.0787 
    105 H105       23.2520  -32.4498  -38.9180 H         1 UNK         0.3055 
    106 H106       22.5388  -35.1509  -39.7404 H         1 UNK         0.1106 
    107 H107       25.0154  -35.4390  -39.8527 H         1 UNK         0.0828 
    108 H108       25.2505  -33.7143  -39.6126 H         1 UNK         0.0828 
    109 H109       24.5481  -34.7025  -38.3293 H         1 UNK         0.0828 
    110 H110       23.1209  -32.1360  -41.3827 H         1 UNK         0.2931 
    111 H111       23.2128  -31.4504  -43.4165 H         1 UNK         0.0412 
    112 H112       23.9373  -32.1812  -45.9592 H         1 UNK         0.3472 
    113 H113       25.5567  -32.8209  -45.9130 H         1 UNK         0.3472 
    114 H114       21.9815  -32.6193  -45.2441 H         1 UNK         0.0970 
    115 H115       21.9961  -34.1039  -44.3367 H         1 UNK         0.0970 
    116 H116       21.0691  -30.2780  -43.8952 H         1 UNK         0.0612 
    117 H117       20.0696  -30.9289  -45.1782 H         1 UNK         0.0612 
@<TRIPOS>BOND
     1    1    2 1    
     2    1   62 1    
     3    1   63 1    
     4    1   64 1    
     5    2    3 2    
     6    2    4 am   BACKBONE|DICT|INTERRES
     7    4    5 1    
     8    4   65 1    
     9    5    6 1    
    10    5   25 1    
    11    5   66 1    
    12    6    7 1    
    13    6   67 1    
    14    6   68 1    
    15    7    8 1    
    16    8    9 1    
    17    8   69 1    
    18    8   70 1    
    19    9   10 ar   
    20    9   14 ar   
    21   10   11 ar   
    22   10   71 1    
    23   11   12 ar   
    24   11   61 1    
    25   12   13 ar   
    26   12   72 1    
    27   13   14 ar   
    28   13   15 1    
    29   14   73 1    
    30   15   16 1    
    31   15   74 1    
    32   15   75 1    
    33   16   17 1    
    34   17   18 1    
    35   17   76 1    
    36   17   77 1    
    37   18   19 1    
    38   18   27 1    
    39   18   78 1    
    40   19   20 am   BACKBONE|DICT|INTERRES
    41   19   79 1    
    42   20   21 2    
    43   20   22 1    
    44   22   23 1    
    45   22   24 1    
    46   22   80 1    
    47   23   81 1    
    48   23   82 1    
    49   23   83 1    
    50   24   25 am   BACKBONE|DICT|INTERRES
    51   24   84 1    
    52   25   26 2    
    53   27   28 2    
    54   27   29 am   BACKBONE|DICT|INTERRES
    55   29   30 1    
    56   29   85 1    
    57   30   31 1    
    58   30   32 1    
    59   30   86 1    
    60   31   87 1    
    61   31   88 1    
    62   31   89 1    
    63   32   33 2    
    64   32   34 am   BACKBONE|DICT|INTERRES
    65   34   35 1    
    66   34   90 1    
    67   35   36 1    
    68   35   37 1    
    69   35   91 1    
    70   36   92 1    
    71   36   93 1    
    72   36   94 1    
    73   37   38 2    
    74   37   39 am   BACKBONE|DICT|INTERRES
    75   39   40 1    
    76   39   95 1    
    77   40   41 1    
    78   40   42 1    
    79   40   96 1    
    80   41   97 1    
    81   41   98 1    
    82   41   99 1    
    83   42   43 2    
    84   42   44 am   BACKBONE|DICT|INTERRES
    85   44   45 1    
    86   44  100 1    
    87   45   46 1    
    88   45   47 1    
    89   45  101 1    
    90   46  102 1    
    91   46  103 1    
    92   46  104 1    
    93   47   48 2    
    94   47   49 am   BACKBONE|DICT|INTERRES
    95   49   50 1    
    96   49  105 1    
    97   50   51 1    
    98   50   52 1    
    99   50  106 1    
   100   51  107 1    
   101   51  108 1    
   102   51  109 1    
   103   52   53 2    
   104   52   54 am   BACKBONE|DICT|INTERRES
   105   54   55 1    
   106   54  110 1    
   107   55   56 1    
   108   55   59 1    
   109   55  111 1    
   110   56   57 am   BACKBONE|DICT|INTERRES
   111   56   58 2    
   112   57  112 1    
   113   57  113 1    
   114   59   60 1    
   115   59  114 1    
   116   59  115 1    
   117   60   61 1    
   118   61  116 1    
   119   61  117 1    
@<TRIPOS>SUBSTRUCTURE
     1 UNK         1 GROUP             0       ****    0 ROOT    
