@<TRIPOS>MOLECULE
3R8
117   119    1
SMALL
USER_CHARGES


@<TRIPOS>ATOM
      1 CA         14.9927  -26.1752  -38.6786 C.3       0 UNK        -0.2013 
      2 C          15.7148  -25.9175  -39.9927 C.2       0 UNK         0.4866 
      3 O          16.3189  -24.8576  -40.1616 O.2       0 UNK        -0.5176 
      4 N          15.6512  -26.8747  -40.9270 N.am      1 UNK        -0.4884 
      5 CA         16.3610  -26.8352  -42.2097 C.3       1 UNK         0.0853 
      6 C6         15.7406  -27.8382  -43.2120 C.3       10 UNK        -0.0849 
      7 S7         16.1367  -27.4111  -44.9402 S.3       10 UNK        -0.2776 
      8 C8         16.0688  -29.0435  -45.7491 C.3       10 UNK         0.0316 
      9 C9         17.1252  -30.0183  -45.2389 C.ar      10 UNK        -0.0863 
     10 C10        16.7497  -31.2959  -44.8109 C.ar      10 UNK        -0.1009 
     11 C11        17.7078  -32.2195  -44.3809 C.ar      10 UNK        -0.0712 
     12 C12        19.0574  -31.8443  -44.3818 C.ar      10 UNK        -0.0894 
     13 C13        19.4503  -30.5699  -44.7964 C.ar      10 UNK        -0.0745 
     14 C14        18.4766  -29.6600  -45.2207 C.ar      10 UNK        -0.0972 
     15 C15        20.9214  -30.1741  -44.7510 C.3       10 UNK         0.0209 
     16 S16        21.4912  -29.4571  -46.3284 S.3       10 UNK        -0.2568 
     17 C17        23.0337  -28.6253  -45.8246 C.3       10 UNK        -0.0983 
     18 CA         22.8047  -27.1293  -45.4724 C.3       3 UNK         0.0876 
     19 N          22.0117  -26.9913  -44.2488 N.am      3 UNK        -0.4424 
     20 C          20.7813  -26.4814  -44.1574 C.2       2 UNK         0.4918 
     21 O          20.1555  -25.9718  -45.0891 O.2       2 UNK        -0.4875 
     22 CA         20.1626  -26.5579  -42.7618 C.3       2 UNK         0.0481 
     23 CB         20.7084  -25.4490  -41.8432 C.3       2 UNK        -0.1831 
     24 N          18.7093  -26.4644  -42.8377 N.am      2 UNK        -0.4498 
     25 C          17.8710  -27.0824  -41.9992 C.2       1 UNK         0.5027 
     26 O          18.2481  -27.8297  -41.0917 O.2       1 UNK        -0.4969 
     27 C          24.1278  -26.3475  -45.3228 C.2       3 UNK         0.5005 
     28 O          25.1320  -26.7164  -45.9350 O.2       3 UNK        -0.5279 
     29 N          24.1193  -25.2950  -44.4870 N.am      4 UNK        -0.4463 
     30 CA         25.2169  -24.3920  -44.1044 C.3       4 UNK         0.0283 
     31 CB         25.7946  -23.6449  -45.3225 C.3       4 UNK        -0.1875 
     32 C          26.3315  -25.0648  -43.2833 C.2       4 UNK         0.4949 
     33 O          26.7102  -24.5409  -42.2361 O.2       4 UNK        -0.5039 
     34 N          26.8220  -26.2157  -43.7556 N.am      5 UNK        -0.4663 
     35 CA         27.8311  -27.0433  -43.0915 C.3       5 UNK         0.0242 
     36 CB         28.4526  -27.9942  -44.1274 C.3       5 UNK        -0.1982 
     37 C          27.2733  -27.8407  -41.8990 C.2       5 UNK         0.5017 
     38 O          28.0518  -28.2448  -41.0343 O.2       5 UNK        -0.5012 
     39 N          25.9533  -28.0602  -41.8717 N.am      6 UNK        -0.4439 
     40 CA         25.2314  -28.7831  -40.8309 C.3       6 UNK         0.0297 
     41 CB         25.3558  -30.3011  -41.0609 C.3       6 UNK        -0.2006 
     42 C          23.7608  -28.3558  -40.8476 C.2       6 UNK         0.4892 
     43 O          23.2607  -27.9225  -41.8917 O.2       6 UNK        -0.5089 
     44 N          23.1014  -28.5220  -39.6962 N.am      7 UNK        -0.4243 
     45 CA         21.6561  -28.3977  -39.5296 C.3       7 UNK         0.0196 
     46 CB         21.3499  -27.6549  -38.2192 C.3       7 UNK        -0.2007 
     47 C          21.0466  -29.8049  -39.5149 C.2       7 UNK         0.5020 
     48 O          21.6041  -30.6922  -38.8632 O.2       7 UNK        -0.5147 
     49 N          19.9125  -29.9684  -40.2091 N.am      8 UNK        -0.4734 
     50 CA         19.1567  -31.2116  -40.4148 C.3       8 UNK         0.0238 
     51 CB         18.5395  -31.6820  -39.0784 C.3       8 UNK        -0.1912 
     52 C          19.9552  -32.3304  -41.1231 C.2       8 UNK         0.5038 
     53 O          21.0813  -32.1152  -41.5777 O.2       8 UNK        -0.5046 
     54 N          19.3248  -33.5052  -41.2428 N.am      9 UNK        -0.4200 
     55 CA         19.9076  -34.7298  -41.8182 C.3       9 UNK         0.0839 
     56 C          20.6939  -35.5872  -40.7813 C.2       9 UNK         0.5513 
     57 N          20.7459  -35.2210  -39.5058 N.am      9 UNK        -0.7519 
     58 O          21.2819  -36.6025  -41.1449 O.2       9 UNK        -0.4960 
     59 C59        18.8264  -35.5681  -42.5590 C.3       10 UNK        -0.0876 
     60 S60        18.4492  -34.9356  -44.2302 S.3       10 UNK        -0.2414 
     61 C61        17.2507  -33.5978  -43.8994 C.3       10 UNK         0.0169 
     62 H62        15.7023  -26.1572  -37.8518 H         1 UNK         0.0903 
     63 H63        14.4891  -27.1417  -38.6719 H         1 UNK         0.0903 
     64 H64        14.2450  -25.4022  -38.5032 H         1 UNK         0.0903 
     65 H65        15.1713  -27.7384  -40.7175 H         1 UNK         0.3096 
     66 H66        16.2379  -25.8258  -42.6103 H         1 UNK         0.1121 
     67 H67        14.6525  -27.8290  -43.1289 H         1 UNK         0.0849 
     68 H68        16.0496  -28.8602  -42.9837 H         1 UNK         0.0849 
     69 H69        15.0655  -29.4539  -45.6234 H         1 UNK         0.0865 
     70 H70        16.2106  -28.9082  -46.8221 H         1 UNK         0.0865 
     71 H71        15.7051  -31.5769  -44.8176 H         1 UNK         0.1346 
     72 H72        19.8119  -32.5413  -44.0468 H         1 UNK         0.1412 
     73 H73        18.7723  -28.6704  -45.5432 H         1 UNK         0.1426 
     74 H74        21.5497  -31.0346  -44.5152 H         1 UNK         0.0716 
     75 H75        21.0592  -29.4675  -43.9343 H         1 UNK         0.0716 
     76 H76        23.4894  -29.1605  -44.9891 H         1 UNK         0.0695 
     77 H77        23.7240  -28.7260  -46.6640 H         1 UNK         0.0695 
     78 H78        22.2840  -26.6589  -46.3095 H         1 UNK         0.0983 
     79 H79        22.4484  -27.3610  -43.4031 H         1 UNK         0.3095 
     80 H80        20.4314  -27.5363  -42.3627 H         1 UNK         0.0454 
     81 H81        20.4808  -24.4564  -42.2335 H         1 UNK         0.0851 
     82 H82        20.2829  -25.5175  -40.8419 H         1 UNK         0.0851 
     83 H83        21.7914  -25.5197  -41.7355 H         1 UNK         0.0851 
     84 H84        18.3502  -25.9393  -43.6255 H         1 UNK         0.2976 
     85 H85        23.2405  -25.1047  -44.0259 H         1 UNK         0.3116 
     86 H86        24.7625  -23.6427  -43.4539 H         1 UNK         0.0646 
     87 H87        26.5373  -22.9099  -45.0096 H         1 UNK         0.0847 
     88 H88        25.0160  -23.1074  -45.8637 H         1 UNK         0.0847 
     89 H89        26.2859  -24.3189  -46.0246 H         1 UNK         0.0847 
     90 H90        26.4308  -26.5603  -44.6308 H         1 UNK         0.3040 
     91 H91        28.6176  -26.3896  -42.7074 H         1 UNK         0.1015 
     92 H92        28.9177  -27.4415  -44.9440 H         1 UNK         0.0786 
     93 H93        27.7073  -28.6647  -44.5574 H         1 UNK         0.0786 
     94 H94        29.2277  -28.6142  -43.6743 H         1 UNK         0.0786 
     95 H95        25.3674  -27.6581  -42.5916 H         1 UNK         0.3172 
     96 H96        25.6547  -28.5234  -39.8580 H         1 UNK         0.0595 
     97 H97        24.8051  -30.8612  -40.3038 H         1 UNK         0.0839 
     98 H98        26.3941  -30.6293  -41.0122 H         1 UNK         0.0839 
     99 H99        24.9576  -30.5926  -42.0337 H         1 UNK         0.0839 
    100 H100       23.5888  -28.9483  -38.9203 H         1 UNK         0.2998 
    101 H101       21.2295  -27.8252  -40.3497 H         1 UNK         0.0822 
    102 H102       21.7350  -28.1895  -37.3498 H         1 UNK         0.0787 
    103 H103       21.7861  -26.6559  -38.2202 H         1 UNK         0.0787 
    104 H104       20.2737  -27.5391  -38.0825 H         1 UNK         0.0787 
    105 H105       19.4957  -29.1497  -40.6490 H         1 UNK         0.3055 
    106 H106       18.3407  -30.9490  -41.0910 H         1 UNK         0.1106 
    107 H107       19.2981  -32.0574  -38.3909 H         1 UNK         0.0828 
    108 H108       18.0166  -30.8658  -38.5793 H         1 UNK         0.0828 
    109 H109       17.8085  -32.4770  -39.2265 H         1 UNK         0.0828 
    110 H110       18.4045  -33.6052  -40.8423 H         1 UNK         0.2931 
    111 H111       20.6573  -34.4398  -42.5570 H         1 UNK         0.0412 
    112 H112       20.2917  -34.3786  -39.1936 H         1 UNK         0.3472 
    113 H113       21.2650  -35.7865  -38.8522 H         1 UNK         0.3472 
    114 H114       17.9112  -35.6480  -41.9701 H         1 UNK         0.0970 
    115 H115       19.1643  -36.5958  -42.7063 H         1 UNK         0.0970 
    116 H116       17.0270  -33.5399  -42.8345 H         1 UNK         0.0612 
    117 H117       16.3153  -33.8688  -44.3912 H         1 UNK         0.0612 
@<TRIPOS>BOND
     1    1    2 1    
     2    1   62 1    
     3    1   63 1    
     4    1   64 1    
     5    2    3 2    
     6    2    4 am   BACKBONE|DICT|INTERRES
     7    4    5 1    
     8    4   65 1    
     9    5    6 1    
    10    5   25 1    
    11    5   66 1    
    12    6    7 1    
    13    6   67 1    
    14    6   68 1    
    15    7    8 1    
    16    8    9 1    
    17    8   69 1    
    18    8   70 1    
    19    9   10 ar   
    20    9   14 ar   
    21   10   11 ar   
    22   10   71 1    
    23   11   12 ar   
    24   11   61 1    
    25   12   13 ar   
    26   12   72 1    
    27   13   14 ar   
    28   13   15 1    
    29   14   73 1    
    30   15   16 1    
    31   15   74 1    
    32   15   75 1    
    33   16   17 1    
    34   17   18 1    
    35   17   76 1    
    36   17   77 1    
    37   18   19 1    
    38   18   27 1    
    39   18   78 1    
    40   19   20 am   BACKBONE|DICT|INTERRES
    41   19   79 1    
    42   20   21 2    
    43   20   22 1    
    44   22   23 1    
    45   22   24 1    
    46   22   80 1    
    47   23   81 1    
    48   23   82 1    
    49   23   83 1    
    50   24   25 am   BACKBONE|DICT|INTERRES
    51   24   84 1    
    52   25   26 2    
    53   27   28 2    
    54   27   29 am   BACKBONE|DICT|INTERRES
    55   29   30 1    
    56   29   85 1    
    57   30   31 1    
    58   30   32 1    
    59   30   86 1    
    60   31   87 1    
    61   31   88 1    
    62   31   89 1    
    63   32   33 2    
    64   32   34 am   BACKBONE|DICT|INTERRES
    65   34   35 1    
    66   34   90 1    
    67   35   36 1    
    68   35   37 1    
    69   35   91 1    
    70   36   92 1    
    71   36   93 1    
    72   36   94 1    
    73   37   38 2    
    74   37   39 am   BACKBONE|DICT|INTERRES
    75   39   40 1    
    76   39   95 1    
    77   40   41 1    
    78   40   42 1    
    79   40   96 1    
    80   41   97 1    
    81   41   98 1    
    82   41   99 1    
    83   42   43 2    
    84   42   44 am   BACKBONE|DICT|INTERRES
    85   44   45 1    
    86   44  100 1    
    87   45   46 1    
    88   45   47 1    
    89   45  101 1    
    90   46  102 1    
    91   46  103 1    
    92   46  104 1    
    93   47   48 2    
    94   47   49 am   BACKBONE|DICT|INTERRES
    95   49   50 1    
    96   49  105 1    
    97   50   51 1    
    98   50   52 1    
    99   50  106 1    
   100   51  107 1    
   101   51  108 1    
   102   51  109 1    
   103   52   53 2    
   104   52   54 am   BACKBONE|DICT|INTERRES
   105   54   55 1    
   106   54  110 1    
   107   55   56 1    
   108   55   59 1    
   109   55  111 1    
   110   56   57 am   BACKBONE|DICT|INTERRES
   111   56   58 2    
   112   57  112 1    
   113   57  113 1    
   114   59   60 1    
   115   59  114 1    
   116   59  115 1    
   117   60   61 1    
   118   61  116 1    
   119   61  117 1    
@<TRIPOS>SUBSTRUCTURE
     1 UNK         1 GROUP             0       ****    0 ROOT    
