@<TRIPOS>MOLECULE
3R8
117   119    1
SMALL
USER_CHARGES


@<TRIPOS>ATOM
      1 CA         13.1846  -26.2517  -42.2707 C.3       0 UNK        -0.2013 
      2 C          14.6329  -26.6898  -42.1099 C.2       0 UNK         0.4866 
      3 O          15.1442  -26.6964  -40.9897 O.2       0 UNK        -0.5176 
      4 N          15.2873  -27.0543  -43.2216 N.am      1 UNK        -0.4884 
      5 CA         16.6894  -27.4866  -43.3111 C.3       1 UNK         0.0853 
      6 C6         16.9763  -28.8315  -42.5838 C.3       10 UNK        -0.0849 
      7 S7         15.9241  -30.2271  -43.1136 S.3       10 UNK        -0.2776 
      8 C8         16.4152  -30.4986  -44.8525 C.3       10 UNK         0.0316 
      9 C9         17.9229  -30.4719  -45.0748 C.ar      10 UNK        -0.0863 
     10 C10        18.7625  -31.3453  -44.3755 C.ar      10 UNK        -0.1009 
     11 C11        20.1486  -31.3079  -44.5679 C.ar      10 UNK        -0.0712 
     12 C12        20.6877  -30.3884  -45.4723 C.ar      10 UNK        -0.0894 
     13 C13        19.8610  -29.5073  -46.1732 C.ar      10 UNK        -0.0745 
     14 C14        18.4790  -29.5590  -45.9762 C.ar      10 UNK        -0.0972 
     15 C15        20.4561  -28.4975  -47.1435 C.3       10 UNK         0.0209 
     16 S16        20.5982  -26.8429  -46.3969 S.3       10 UNK        -0.2568 
     17 C17        22.0870  -27.0296  -45.3600 C.3       10 UNK        -0.0983 
     18 CA         22.1270  -25.9879  -44.2175 C.3       3 UNK         0.0876 
     19 N          21.0359  -26.1781  -43.2605 N.am      3 UNK        -0.4424 
     20 C          20.5989  -25.2331  -42.4186 C.2       2 UNK         0.4918 
     21 O          21.0066  -24.0701  -42.4286 O.2       2 UNK        -0.4875 
     22 CA         19.5438  -25.6727  -41.3862 C.3       2 UNK         0.0481 
     23 CB         18.8662  -24.4880  -40.6649 C.3       2 UNK        -0.1831 
     24 N          18.5496  -26.5954  -41.9445 N.am      2 UNK        -0.4498 
     25 C          17.6423  -26.3386  -42.9011 C.2       1 UNK         0.5027 
     26 O          17.5288  -25.2475  -43.4643 O.2       1 UNK        -0.4969 
     27 C          23.4509  -26.0730  -43.4407 C.2       3 UNK         0.5005 
     28 O          23.7042  -27.1039  -42.8176 O.2       3 UNK        -0.5279 
     29 N          24.2652  -25.0087  -43.4701 N.am      4 UNK        -0.4463 
     30 CA         25.4442  -24.8055  -42.6107 C.3       4 UNK         0.0283 
     31 CB         26.1209  -23.4791  -42.9938 C.3       4 UNK        -0.1875 
     32 C          26.4856  -25.9432  -42.5862 C.2       4 UNK         0.4949 
     33 O          27.2019  -26.0797  -41.5943 O.2       4 UNK        -0.5039 
     34 N          26.5495  -26.7378  -43.6609 N.am      5 UNK        -0.4663 
     35 CA         27.4352  -27.8942  -43.7878 C.3       5 UNK         0.0242 
     36 CB         27.6243  -28.2040  -45.2826 C.3       5 UNK        -0.1982 
     37 C          26.9505  -29.1543  -43.0430 C.2       5 UNK         0.5017 
     38 O          27.7724  -30.0471  -42.8288 O.2       5 UNK        -0.5012 
     39 N          25.6543  -29.2473  -42.7017 N.am      6 UNK        -0.4439 
     40 CA         25.0403  -30.4895  -42.2051 C.3       6 UNK         0.0297 
     41 CB         24.5870  -31.3332  -43.4090 C.3       6 UNK        -0.2006 
     42 C          23.8931  -30.3049  -41.1928 C.2       6 UNK         0.4892 
     43 O          23.4493  -31.3026  -40.6200 O.2       6 UNK        -0.5089 
     44 N          23.4309  -29.0658  -40.9775 N.am      7 UNK        -0.4243 
     45 CA         22.3275  -28.6639  -40.1026 C.3       7 UNK         0.0196 
     46 CB         22.6769  -28.9079  -38.6158 C.3       7 UNK        -0.2007 
     47 C          20.9980  -29.2862  -40.5657 C.2       7 UNK         0.5020 
     48 O          20.5573  -28.9908  -41.6777 O.2       7 UNK        -0.5147 
     49 N          20.3765  -30.1050  -39.7094 N.am      8 UNK        -0.4734 
     50 CA         19.1309  -30.8226  -39.9915 C.3       8 UNK         0.0238 
     51 CB         18.2288  -30.7545  -38.7475 C.3       8 UNK        -0.1912 
     52 C          19.3567  -32.2834  -40.4199 C.2       8 UNK         0.5038 
     53 O          18.3882  -32.9170  -40.8403 O.2       8 UNK        -0.5046 
     54 N          20.6008  -32.7803  -40.3036 N.am      9 UNK        -0.4200 
     55 CA         21.0586  -34.1507  -40.6048 C.3       9 UNK         0.0839 
     56 C          20.1205  -35.2881  -40.0959 C.2       9 UNK         0.5513 
     57 N          19.8090  -36.2942  -40.9028 N.am      9 UNK        -0.7519 
     58 O          19.7226  -35.2906  -38.9327 O.2       9 UNK        -0.4960 
     59 C59        21.6228  -34.3132  -42.0494 C.3       10 UNK        -0.0876 
     60 S60        20.4728  -33.8587  -43.3937 S.3       10 UNK        -0.2414 
     61 C61        21.0960  -32.1855  -43.7597 C.3       10 UNK         0.0169 
     62 H62        13.0628  -25.2255  -41.9248 H         1 UNK         0.0903 
     63 H63        12.8546  -26.3014  -43.3083 H         1 UNK         0.0903 
     64 H64        12.5320  -26.8914  -41.6771 H         1 UNK         0.0903 
     65 H65        14.8051  -26.9963  -44.1077 H         1 UNK         0.3096 
     66 H66        16.8870  -27.6413  -44.3722 H         1 UNK         0.1121 
     67 H67        18.0166  -29.1257  -42.7292 H         1 UNK         0.0849 
     68 H68        16.8386  -28.7209  -41.5069 H         1 UNK         0.0849 
     69 H69        16.0273  -31.4641  -45.1796 H         1 UNK         0.0865 
     70 H70        15.9196  -29.7496  -45.4719 H         1 UNK         0.0865 
     71 H71        18.3338  -32.0339  -43.6599 H         1 UNK         0.1346 
     72 H72        21.7583  -30.3440  -45.6170 H         1 UNK         0.1412 
     73 H73        17.8406  -28.8763  -46.5204 H         1 UNK         0.1426 
     74 H74        19.8217  -28.4293  -48.0285 H         1 UNK         0.0716 
     75 H75        21.4349  -28.8261  -47.4968 H         1 UNK         0.0716 
     76 H76        22.1249  -28.0399  -44.9503 H         1 UNK         0.0695 
     77 H77        22.9587  -26.9258  -46.0089 H         1 UNK         0.0695 
     78 H78        22.0392  -24.9927  -44.6594 H         1 UNK         0.0983 
     79 H79        20.7013  -27.1261  -43.1443 H         1 UNK         0.3095 
     80 H80        20.0851  -26.2408  -40.6291 H         1 UNK         0.0454 
     81 H81        19.5997  -23.8907  -40.1221 H         1 UNK         0.0851 
     82 H82        18.1300  -24.8336  -39.9393 H         1 UNK         0.0851 
     83 H83        18.3605  -23.8208  -41.3634 H         1 UNK         0.0851 
     84 H84        18.5973  -27.5371  -41.5802 H         1 UNK         0.2976 
     85 H85        23.9830  -24.2106  -44.0217 H         1 UNK         0.3116 
     86 H86        25.0698  -24.7081  -41.5896 H         1 UNK         0.0646 
     87 H87        26.4746  -23.4908  -44.0255 H         1 UNK         0.0847 
     88 H88        25.4399  -22.6355  -42.8798 H         1 UNK         0.0847 
     89 H89        26.9842  -23.2807  -42.3567 H         1 UNK         0.0847 
     90 H90        25.9184  -26.5546  -44.4273 H         1 UNK         0.3040 
     91 H91        28.4103  -27.6312  -43.3709 H         1 UNK         0.1015 
     92 H92        28.3121  -29.0388  -45.4255 H         1 UNK         0.0786 
     93 H93        28.0416  -27.3496  -45.8160 H         1 UNK         0.0786 
     94 H94        26.6820  -28.4734  -45.7617 H         1 UNK         0.0786 
     95 H95        25.0389  -28.4576  -42.8818 H         1 UNK         0.3172 
     96 H96        25.7938  -31.0627  -41.6610 H         1 UNK         0.0595 
     97 H97        23.8478  -30.8011  -44.0080 H         1 UNK         0.0839 
     98 H98        24.1454  -32.2753  -43.0856 H         1 UNK         0.0839 
     99 H99        25.4259  -31.5835  -44.0585 H         1 UNK         0.0839 
    100 H100       23.7551  -28.3185  -41.5887 H         1 UNK         0.2998 
    101 H101       22.2162  -27.5873  -40.2386 H         1 UNK         0.0822 
    102 H102       21.8913  -28.5323  -37.9587 H         1 UNK         0.0787 
    103 H103       23.5930  -28.3833  -38.3437 H         1 UNK         0.0787 
    104 H104       22.8279  -29.9635  -38.3881 H         1 UNK         0.0787 
    105 H105       20.8086  -30.2760  -38.8122 H         1 UNK         0.3055 
    106 H106       18.6039  -30.3419  -40.8156 H         1 UNK         0.1106 
    107 H107       18.0120  -29.7225  -38.4711 H         1 UNK         0.0828 
    108 H108       17.2719  -31.2452  -38.9313 H         1 UNK         0.0828 
    109 H109       18.6867  -31.2452  -37.8878 H         1 UNK         0.0828 
    110 H110       21.3282  -32.1524  -39.9900 H         1 UNK         0.2931 
    111 H111       21.9300  -34.2640  -39.9585 H         1 UNK         0.0412 
    112 H112       19.2205  -37.0375  -40.5600 H         1 UNK         0.3472 
    113 H113       20.1053  -36.2890  -41.8664 H         1 UNK         0.3472 
    114 H114       22.5229  -33.7048  -42.1397 H         1 UNK         0.0970 
    115 H115       21.9712  -35.3334  -42.2174 H         1 UNK         0.0970 
    116 H116       22.0367  -32.3044  -44.2964 H         1 UNK         0.0612 
    117 H117       21.3228  -31.6635  -42.8293 H         1 UNK         0.0612 
@<TRIPOS>BOND
     1    1    2 1    
     2    1   62 1    
     3    1   63 1    
     4    1   64 1    
     5    2    3 2    
     6    2    4 am   BACKBONE|DICT|INTERRES
     7    4    5 1    
     8    4   65 1    
     9    5    6 1    
    10    5   25 1    
    11    5   66 1    
    12    6    7 1    
    13    6   67 1    
    14    6   68 1    
    15    7    8 1    
    16    8    9 1    
    17    8   69 1    
    18    8   70 1    
    19    9   10 ar   
    20    9   14 ar   
    21   10   11 ar   
    22   10   71 1    
    23   11   12 ar   
    24   11   61 1    
    25   12   13 ar   
    26   12   72 1    
    27   13   14 ar   
    28   13   15 1    
    29   14   73 1    
    30   15   16 1    
    31   15   74 1    
    32   15   75 1    
    33   16   17 1    
    34   17   18 1    
    35   17   76 1    
    36   17   77 1    
    37   18   19 1    
    38   18   27 1    
    39   18   78 1    
    40   19   20 am   BACKBONE|DICT|INTERRES
    41   19   79 1    
    42   20   21 2    
    43   20   22 1    
    44   22   23 1    
    45   22   24 1    
    46   22   80 1    
    47   23   81 1    
    48   23   82 1    
    49   23   83 1    
    50   24   25 am   BACKBONE|DICT|INTERRES
    51   24   84 1    
    52   25   26 2    
    53   27   28 2    
    54   27   29 am   BACKBONE|DICT|INTERRES
    55   29   30 1    
    56   29   85 1    
    57   30   31 1    
    58   30   32 1    
    59   30   86 1    
    60   31   87 1    
    61   31   88 1    
    62   31   89 1    
    63   32   33 2    
    64   32   34 am   BACKBONE|DICT|INTERRES
    65   34   35 1    
    66   34   90 1    
    67   35   36 1    
    68   35   37 1    
    69   35   91 1    
    70   36   92 1    
    71   36   93 1    
    72   36   94 1    
    73   37   38 2    
    74   37   39 am   BACKBONE|DICT|INTERRES
    75   39   40 1    
    76   39   95 1    
    77   40   41 1    
    78   40   42 1    
    79   40   96 1    
    80   41   97 1    
    81   41   98 1    
    82   41   99 1    
    83   42   43 2    
    84   42   44 am   BACKBONE|DICT|INTERRES
    85   44   45 1    
    86   44  100 1    
    87   45   46 1    
    88   45   47 1    
    89   45  101 1    
    90   46  102 1    
    91   46  103 1    
    92   46  104 1    
    93   47   48 2    
    94   47   49 am   BACKBONE|DICT|INTERRES
    95   49   50 1    
    96   49  105 1    
    97   50   51 1    
    98   50   52 1    
    99   50  106 1    
   100   51  107 1    
   101   51  108 1    
   102   51  109 1    
   103   52   53 2    
   104   52   54 am   BACKBONE|DICT|INTERRES
   105   54   55 1    
   106   54  110 1    
   107   55   56 1    
   108   55   59 1    
   109   55  111 1    
   110   56   57 am   BACKBONE|DICT|INTERRES
   111   56   58 2    
   112   57  112 1    
   113   57  113 1    
   114   59   60 1    
   115   59  114 1    
   116   59  115 1    
   117   60   61 1    
   118   61  116 1    
   119   61  117 1    
@<TRIPOS>SUBSTRUCTURE
     1 UNK         1 GROUP             0       ****    0 ROOT    
