@<TRIPOS>MOLECULE
3R8
117   119    1
SMALL
USER_CHARGES


@<TRIPOS>ATOM
      1 CA         22.4880  -29.9878  -47.5462 C.3       0 UNK        -0.2013 
      2 C          21.2157  -30.0261  -46.7130 C.2       0 UNK         0.4866 
      3 O          20.4091  -30.9407  -46.8748 O.2       0 UNK        -0.5176 
      4 N          21.0394  -29.0418  -45.8259 N.am      1 UNK        -0.4884 
      5 CA         19.9033  -28.9033  -44.9170 C.3       1 UNK         0.0853 
      6 C6         18.8933  -27.8384  -45.4228 C.3       10 UNK        -0.0849 
      7 S7         17.7310  -28.5641  -46.6288 S.3       10 UNK        -0.2776 
      8 C8         16.1659  -28.6513  -45.6911 C.3       10 UNK         0.0316 
      9 C9         16.3447  -29.2067  -44.2828 C.ar      10 UNK        -0.0863 
     10 C10        16.7302  -30.5363  -44.0866 C.ar      10 UNK        -0.1009 
     11 C11        16.9122  -31.0336  -42.7941 C.ar      10 UNK        -0.0712 
     12 C12        16.7007  -30.1904  -41.6994 C.ar      10 UNK        -0.0894 
     13 C13        16.3276  -28.8533  -41.8738 C.ar      10 UNK        -0.0745 
     14 C14        16.1296  -28.3783  -43.1760 C.ar      10 UNK        -0.0972 
     15 C15        16.1392  -27.9904  -40.6201 C.3       10 UNK         0.0209 
     16 S16        15.7505  -26.2147  -40.8594 S.3       10 UNK        -0.2568 
     17 C17        17.1855  -25.4315  -41.6882 C.3       10 UNK        -0.0983 
     18 CA         18.5714  -25.6119  -41.0139 C.3       3 UNK         0.0876 
     19 N          19.0617  -26.9752  -41.1937 N.am      3 UNK        -0.4424 
     20 C          20.1263  -27.5247  -40.5980 C.2       2 UNK         0.4918 
     21 O          20.7927  -26.9752  -39.7220 O.2       2 UNK        -0.4875 
     22 CA         20.5163  -28.9295  -41.0943 C.3       2 UNK         0.0481 
     23 CB         19.9960  -29.9966  -40.1214 C.3       2 UNK        -0.1831 
     24 N          20.0833  -29.2162  -42.4745 N.am      2 UNK        -0.4498 
     25 C          20.4792  -28.5139  -43.5518 C.2       1 UNK         0.5027 
     26 O          21.2401  -27.5452  -43.4957 O.2       1 UNK        -0.4969 
     27 C          19.5603  -24.5636  -41.5807 C.2       3 UNK         0.5005 
     28 O          19.5891  -23.4396  -41.0768 O.2       3 UNK        -0.5279 
     29 N          20.3187  -24.9248  -42.6284 N.am      4 UNK        -0.4463 
     30 CA         21.2289  -24.0321  -43.3480 C.3       4 UNK         0.0283 
     31 CB         21.1838  -24.3574  -44.8508 C.3       4 UNK        -0.1875 
     32 C          22.6665  -24.1308  -42.8198 C.2       4 UNK         0.4949 
     33 O          23.3167  -23.0978  -42.6566 O.2       4 UNK        -0.5039 
     34 N          23.1387  -25.3549  -42.5582 N.am      5 UNK        -0.4663 
     35 CA         24.4625  -25.6410  -42.0093 C.3       5 UNK         0.0242 
     36 CB         25.4686  -25.8525  -43.1532 C.3       5 UNK        -0.1982 
     37 C          24.3519  -26.8847  -41.1258 C.2       5 UNK         0.5017 
     38 O          23.6467  -27.8176  -41.5071 O.2       5 UNK        -0.5012 
     39 N          25.0370  -26.8687  -39.9737 N.am      6 UNK        -0.4439 
     40 CA         24.9415  -27.8428  -38.8790 C.3       6 UNK         0.0297 
     41 CB         26.0447  -27.5506  -37.8469 C.3       6 UNK        -0.2006 
     42 C          24.9821  -29.3177  -39.3233 C.2       6 UNK         0.4892 
     43 O          26.0442  -29.8114  -39.7068 O.2       6 UNK        -0.5089 
     44 N          23.8113  -29.9698  -39.2563 N.am      7 UNK        -0.4243 
     45 CA         23.5433  -31.3772  -39.5798 C.3       7 UNK         0.0196 
     46 CB         24.2625  -32.3068  -38.5787 C.3       7 UNK        -0.2007 
     47 C          23.8210  -31.7692  -41.0468 C.2       7 UNK         0.5020 
     48 O          24.0390  -32.9507  -41.3198 O.2       7 UNK        -0.5147 
     49 N          23.7955  -30.8020  -41.9773 N.am      8 UNK        -0.4734 
     50 CA         24.1688  -31.0050  -43.3839 C.3       8 UNK         0.0238 
     51 CB         24.2886  -29.6464  -44.0895 C.3       8 UNK        -0.1912 
     52 C          23.2716  -31.9702  -44.1829 C.2       8 UNK         0.5038 
     53 O          23.7398  -32.5015  -45.1906 O.2       8 UNK        -0.5046 
     54 N          22.0306  -32.2030  -43.7303 N.am      9 UNK        -0.4200 
     55 CA         21.1495  -33.2551  -44.2697 C.3       9 UNK         0.0839 
     56 C          21.4997  -34.6981  -43.7955 C.2       9 UNK         0.5513 
     57 N          22.4273  -34.8988  -42.8657 N.am      9 UNK        -0.7519 
     58 O          20.9264  -35.6616  -44.2976 O.2       9 UNK        -0.4960 
     59 C59        19.6407  -32.9276  -44.1001 C.3       10 UNK        -0.0876 
     60 S60        19.1150  -32.6708  -42.3738 S.3       10 UNK        -0.2414 
     61 C61        17.3138  -32.4846  -42.5676 C.3       10 UNK         0.0169 
     62 H62        23.1147  -29.1315  -47.2980 H         1 UNK         0.0903 
     63 H63        23.0706  -30.8940  -47.3825 H         1 UNK         0.0903 
     64 H64        22.2395  -29.9301  -48.6056 H         1 UNK         0.0903 
     65 H65        21.7513  -28.3335  -45.7034 H         1 UNK         0.3096 
     66 H66        19.3927  -29.8575  -44.8005 H         1 UNK         0.1121 
     67 H67        18.3261  -27.3902  -44.6063 H         1 UNK         0.0849 
     68 H68        19.4146  -27.0050  -45.8974 H         1 UNK         0.0849 
     69 H69        15.7234  -27.6544  -45.6602 H         1 UNK         0.0865 
     70 H70        15.4597  -29.2779  -46.2377 H         1 UNK         0.0865 
     71 H71        16.8919  -31.1793  -44.9413 H         1 UNK         0.1346 
     72 H72        16.8223  -30.5845  -40.6997 H         1 UNK         0.1412 
     73 H73        15.8039  -27.3627  -43.3431 H         1 UNK         0.1426 
     74 H74        17.0087  -28.0811  -39.9693 H         1 UNK         0.0716 
     75 H75        15.3112  -28.4190  -40.0538 H         1 UNK         0.0716 
     76 H76        16.9330  -24.3696  -41.7316 H         1 UNK         0.0695 
     77 H77        17.2250  -25.7515  -42.7298 H         1 UNK         0.0695 
     78 H78        18.4734  -25.4216  -39.9429 H         1 UNK         0.0983 
     79 H79        18.5588  -27.5379  -41.8627 H         1 UNK         0.3095 
     80 H80        21.5993  -29.0006  -41.0786 H         1 UNK         0.0454 
     81 H81        20.3643  -29.8119  -39.1114 H         1 UNK         0.0851 
     82 H82        20.3304  -30.9934  -40.4016 H         1 UNK         0.0851 
     83 H83        18.9106  -30.0036  -40.0635 H         1 UNK         0.0851 
     84 H84        19.4356  -29.9844  -42.5919 H         1 UNK         0.2976 
     85 H85        20.3209  -25.8935  -42.9269 H         1 UNK         0.3116 
     86 H86        20.8983  -22.9982  -43.2259 H         1 UNK         0.0646 
     87 H87        20.1746  -24.2526  -45.2492 H         1 UNK         0.0847 
     88 H88        21.5235  -25.3720  -45.0608 H         1 UNK         0.0847 
     89 H89        21.8257  -23.6786  -45.4138 H         1 UNK         0.0847 
     90 H90        22.5484  -26.1714  -42.6989 H         1 UNK         0.3040 
     91 H91        24.7917  -24.8032  -41.3902 H         1 UNK         0.1015 
     92 H92        26.4497  -26.1330  -42.7678 H         1 UNK         0.0786 
     93 H93        25.5971  -24.9417  -43.7382 H         1 UNK         0.0786 
     94 H94        25.1433  -26.6404  -43.8328 H         1 UNK         0.0786 
     95 H95        25.6211  -26.0664  -39.7881 H         1 UNK         0.3172 
     96 H96        23.9823  -27.6627  -38.3889 H         1 UNK         0.0595 
     97 H97        26.0000  -28.2570  -37.0167 H         1 UNK         0.0839 
     98 H98        25.9426  -26.5512  -37.4237 H         1 UNK         0.0839 
     99 H99        27.0398  -27.6301  -38.2870 H         1 UNK         0.0839 
    100 H100       23.0062  -29.4362  -38.9596 H         1 UNK         0.2998 
    101 H101       22.4726  -31.5208  -39.4359 H         1 UNK         0.0822 
    102 H102       24.0371  -32.0319  -37.5483 H         1 UNK         0.0787 
    103 H103       23.9503  -33.3438  -38.7094 H         1 UNK         0.0787 
    104 H104       25.3452  -32.2759  -38.7053 H         1 UNK         0.0787 
    105 H105       23.6392  -29.8405  -41.6855 H         1 UNK         0.3055 
    106 H106       25.1629  -31.4581  -43.3822 H         1 UNK         0.1106 
    107 H107       25.0751  -29.0433  -43.6367 H         1 UNK         0.0828 
    108 H108       24.5428  -29.7666  -45.1433 H         1 UNK         0.0828 
    109 H109       23.3619  -29.0789  -44.0343 H         1 UNK         0.0828 
    110 H110       21.7315  -31.7585  -42.8760 H         1 UNK         0.2931 
    111 H111       21.3147  -33.2785  -45.3487 H         1 UNK         0.0412 
    112 H112       22.9248  -34.1260  -42.4350 H         1 UNK         0.3472 
    113 H113       22.6380  -35.8425  -42.5828 H         1 UNK         0.3472 
    114 H114       19.0333  -33.7234  -44.5356 H         1 UNK         0.0970 
    115 H115       19.3918  -32.0407  -44.6766 H         1 UNK         0.0970 
    116 H116       16.8294  -32.8582  -41.6642 H         1 UNK         0.0612 
    117 H117       16.9554  -33.1156  -43.3823 H         1 UNK         0.0612 
@<TRIPOS>BOND
     1    1    2 1    
     2    1   62 1    
     3    1   63 1    
     4    1   64 1    
     5    2    3 2    
     6    2    4 am   BACKBONE|DICT|INTERRES
     7    4    5 1    
     8    4   65 1    
     9    5    6 1    
    10    5   25 1    
    11    5   66 1    
    12    6    7 1    
    13    6   67 1    
    14    6   68 1    
    15    7    8 1    
    16    8    9 1    
    17    8   69 1    
    18    8   70 1    
    19    9   10 ar   
    20    9   14 ar   
    21   10   11 ar   
    22   10   71 1    
    23   11   12 ar   
    24   11   61 1    
    25   12   13 ar   
    26   12   72 1    
    27   13   14 ar   
    28   13   15 1    
    29   14   73 1    
    30   15   16 1    
    31   15   74 1    
    32   15   75 1    
    33   16   17 1    
    34   17   18 1    
    35   17   76 1    
    36   17   77 1    
    37   18   19 1    
    38   18   27 1    
    39   18   78 1    
    40   19   20 am   BACKBONE|DICT|INTERRES
    41   19   79 1    
    42   20   21 2    
    43   20   22 1    
    44   22   23 1    
    45   22   24 1    
    46   22   80 1    
    47   23   81 1    
    48   23   82 1    
    49   23   83 1    
    50   24   25 am   BACKBONE|DICT|INTERRES
    51   24   84 1    
    52   25   26 2    
    53   27   28 2    
    54   27   29 am   BACKBONE|DICT|INTERRES
    55   29   30 1    
    56   29   85 1    
    57   30   31 1    
    58   30   32 1    
    59   30   86 1    
    60   31   87 1    
    61   31   88 1    
    62   31   89 1    
    63   32   33 2    
    64   32   34 am   BACKBONE|DICT|INTERRES
    65   34   35 1    
    66   34   90 1    
    67   35   36 1    
    68   35   37 1    
    69   35   91 1    
    70   36   92 1    
    71   36   93 1    
    72   36   94 1    
    73   37   38 2    
    74   37   39 am   BACKBONE|DICT|INTERRES
    75   39   40 1    
    76   39   95 1    
    77   40   41 1    
    78   40   42 1    
    79   40   96 1    
    80   41   97 1    
    81   41   98 1    
    82   41   99 1    
    83   42   43 2    
    84   42   44 am   BACKBONE|DICT|INTERRES
    85   44   45 1    
    86   44  100 1    
    87   45   46 1    
    88   45   47 1    
    89   45  101 1    
    90   46  102 1    
    91   46  103 1    
    92   46  104 1    
    93   47   48 2    
    94   47   49 am   BACKBONE|DICT|INTERRES
    95   49   50 1    
    96   49  105 1    
    97   50   51 1    
    98   50   52 1    
    99   50  106 1    
   100   51  107 1    
   101   51  108 1    
   102   51  109 1    
   103   52   53 2    
   104   52   54 am   BACKBONE|DICT|INTERRES
   105   54   55 1    
   106   54  110 1    
   107   55   56 1    
   108   55   59 1    
   109   55  111 1    
   110   56   57 am   BACKBONE|DICT|INTERRES
   111   56   58 2    
   112   57  112 1    
   113   57  113 1    
   114   59   60 1    
   115   59  114 1    
   116   59  115 1    
   117   60   61 1    
   118   61  116 1    
   119   61  117 1    
@<TRIPOS>SUBSTRUCTURE
     1 UNK         1 GROUP             0       ****    0 ROOT    
