@<TRIPOS>MOLECULE
3R8
117   119    1
SMALL
USER_CHARGES


@<TRIPOS>ATOM
      1 CA         14.0714  -21.9737  -44.2485 C.3       0 UNK        -0.2013 
      2 C          14.1952  -23.4569  -44.5634 C.2       0 UNK         0.4866 
      3 O          13.6318  -23.9213  -45.5545 O.2       0 UNK        -0.5176 
      4 N          14.9307  -24.2048  -43.7290 N.am      1 UNK        -0.4884 
      5 CA         15.1543  -25.6506  -43.8805 C.3       1 UNK         0.0853 
      6 C6         15.5526  -26.2987  -42.5268 C.3       10 UNK        -0.0849 
      7 S7         14.9737  -28.0232  -42.3940 S.3       10 UNK        -0.2776 
      8 C8         15.9474  -28.6343  -40.9818 C.3       10 UNK         0.0316 
      9 C9         17.4196  -28.8308  -41.3220 C.ar      10 UNK        -0.0863 
     10 C10        17.8050  -29.8114  -42.2418 C.ar      10 UNK        -0.1009 
     11 C11        19.1552  -30.0348  -42.5288 C.ar      10 UNK        -0.0712 
     12 C12        20.1234  -29.2795  -41.8558 C.ar      10 UNK        -0.0894 
     13 C13        19.7543  -28.2776  -40.9544 C.ar      10 UNK        -0.0745 
     14 C14        18.3992  -28.0586  -40.6908 C.ar      10 UNK        -0.0972 
     15 C15        20.8173  -27.4394  -40.2535 C.3       10 UNK         0.0209 
     16 S16        22.0228  -26.7015  -41.4067 S.3       10 UNK        -0.2568 
     17 C17        20.9554  -25.7242  -42.5168 C.3       10 UNK        -0.0983 
     18 CA         20.7492  -26.3789  -43.9086 C.3       3 UNK         0.0876 
     19 N          19.7119  -25.6660  -44.6544 N.am      3 UNK        -0.4424 
     20 C          19.1953  -26.0239  -45.8377 C.2       2 UNK         0.4918 
     21 O          19.5251  -27.0313  -46.4655 O.2       2 UNK        -0.4875 
     22 CA         18.0876  -25.0958  -46.3703 C.3       2 UNK         0.0481 
     23 CB         17.5914  -25.4814  -47.7805 C.3       2 UNK        -0.1831 
     24 N          16.9749  -24.9982  -45.4161 N.am      2 UNK        -0.4498 
     25 C          16.1720  -25.9917  -44.9954 C.2       1 UNK         0.5027 
     26 O          16.2090  -27.1380  -45.4436 O.2       1 UNK        -0.4969 
     27 C          22.0592  -26.4619  -44.7226 C.2       3 UNK         0.5005 
     28 O          22.7114  -25.4342  -44.9249 O.2       3 UNK        -0.5279 
     29 N          22.4021  -27.6685  -45.1951 N.am      4 UNK        -0.4463 
     30 CA         23.6065  -27.9241  -45.9879 C.3       4 UNK         0.0283 
     31 CB         23.3844  -29.1530  -46.8844 C.3       4 UNK        -0.1875 
     32 C          24.8564  -28.1212  -45.1166 C.2       4 UNK         0.4949 
     33 O          25.9516  -27.7727  -45.5584 O.2       4 UNK        -0.5039 
     34 N          24.6837  -28.6759  -43.9104 N.am      5 UNK        -0.4663 
     35 CA         25.7485  -28.9634  -42.9529 C.3       5 UNK         0.0242 
     36 CB         26.5841  -30.1745  -43.4199 C.3       5 UNK        -0.1982 
     37 C          25.1401  -29.2205  -41.5694 C.2       5 UNK         0.5017 
     38 O          23.9370  -29.4772  -41.4594 O.2       5 UNK        -0.5012 
     39 N          26.0004  -29.1724  -40.5451 N.am      6 UNK        -0.4439 
     40 CA         25.6797  -29.4623  -39.1461 C.3       6 UNK         0.0297 
     41 CB         26.9091  -29.1305  -38.2824 C.3       6 UNK        -0.2006 
     42 C          25.2367  -30.9198  -38.9168 C.2       6 UNK         0.4892 
     43 O          25.4670  -31.7832  -39.7678 O.2       6 UNK        -0.5089 
     44 N          24.6106  -31.1542  -37.7538 N.am      7 UNK        -0.4243 
     45 CA         24.0389  -32.4327  -37.3052 C.3       7 UNK         0.0196 
     46 CB         25.1489  -33.4771  -37.0555 C.3       7 UNK        -0.2007 
     47 C          22.9265  -32.9448  -38.2428 C.2       7 UNK         0.5020 
     48 O          22.8233  -34.1496  -38.4766 O.2       7 UNK        -0.5147 
     49 N          22.1213  -32.0010  -38.7555 N.am      8 UNK        -0.4734 
     50 CA         21.0416  -32.1793  -39.7310 C.3       8 UNK         0.0238 
     51 CB         19.8788  -32.9985  -39.1305 C.3       8 UNK        -0.1912 
     52 C          21.5573  -32.7465  -41.0671 C.2       8 UNK         0.5038 
     53 O          21.1378  -33.8310  -41.4772 O.2       8 UNK        -0.5046 
     54 N          22.4476  -31.9881  -41.7232 N.am      9 UNK        -0.4200 
     55 CA         23.0439  -32.3041  -43.0315 C.3       9 UNK         0.0839 
     56 C          24.0079  -33.5256  -42.9840 C.2       9 UNK         0.5513 
     57 N          24.8027  -33.6773  -41.9315 N.am      9 UNK        -0.7519 
     58 O          24.0568  -34.3344  -43.9076 O.2       9 UNK        -0.4960 
     59 C59        22.0027  -32.3680  -44.1896 C.3       10 UNK        -0.0876 
     60 S60        21.0999  -30.7965  -44.4259 S.3       10 UNK        -0.2414 
     61 C61        19.5297  -31.1128  -43.5454 C.3       10 UNK         0.0169 
     62 H62        13.0246  -21.7075  -44.1043 H         1 UNK         0.0903 
     63 H63        14.6176  -21.7000  -43.3460 H         1 UNK         0.0903 
     64 H64        14.4627  -21.3806  -45.0748 H         1 UNK         0.0903 
     65 H65        15.3646  -23.7706  -42.9257 H         1 UNK         0.3096 
     66 H66        14.2016  -26.0830  -44.1968 H         1 UNK         0.1121 
     67 H67        16.6307  -26.2478  -42.3604 H         1 UNK         0.0849 
     68 H68        15.0969  -25.7565  -41.6965 H         1 UNK         0.0849 
     69 H69        15.8255  -27.9522  -40.1387 H         1 UNK         0.0865 
     70 H70        15.5322  -29.5901  -40.6590 H         1 UNK         0.0865 
     71 H71        17.0458  -30.4031  -42.7353 H         1 UNK         0.1346 
     72 H72        21.1746  -29.4482  -42.0418 H         1 UNK         0.1412 
     73 H73        18.1071  -27.2958  -39.9818 H         1 UNK         0.1426 
     74 H74        20.3603  -26.6398  -39.6684 H         1 UNK         0.0716 
     75 H75        21.3544  -28.0730  -39.5466 H         1 UNK         0.0716 
     76 H76        21.3896  -24.7279  -42.6188 H         1 UNK         0.0695 
     77 H77        19.9914  -25.5771  -42.0270 H         1 UNK         0.0695 
     78 H78        20.3730  -27.3914  -43.7589 H         1 UNK         0.0983 
     79 H79        19.3813  -24.8109  -44.2338 H         1 UNK         0.3095 
     80 H80        18.5230  -24.0980  -46.4417 H         1 UNK         0.0454 
     81 H81        18.4095  -25.4471  -48.5008 H         1 UNK         0.0851 
     82 H82        16.8211  -24.7949  -48.1312 H         1 UNK         0.0851 
     83 H83        17.1797  -26.4905  -47.8106 H         1 UNK         0.0851 
     84 H84        16.8393  -24.0923  -44.9898 H         1 UNK         0.2976 
     85 H85        21.7949  -28.4595  -45.0221 H         1 UNK         0.3116 
     86 H86        23.7861  -27.0668  -46.6407 H         1 UNK         0.0646 
     87 H87        22.4949  -29.0394  -47.5044 H         1 UNK         0.0847 
     88 H88        24.2311  -29.2987  -47.5565 H         1 UNK         0.0847 
     89 H89        23.2759  -30.0684  -46.3025 H         1 UNK         0.0847 
     90 H90        23.7518  -28.8870  -43.5756 H         1 UNK         0.3040 
     91 H91        26.3917  -28.0836  -42.8787 H         1 UNK         0.1015 
     92 H92        27.0756  -29.9803  -44.3731 H         1 UNK         0.0786 
     93 H93        25.9730  -31.0685  -43.5385 H         1 UNK         0.0786 
     94 H94        27.3698  -30.4149  -42.7027 H         1 UNK         0.0786 
     95 H95        26.9731  -28.9941  -40.7475 H         1 UNK         0.3172 
     96 H96        24.8559  -28.8074  -38.8542 H         1 UNK         0.0595 
     97 H97        27.7623  -29.7604  -38.5379 H         1 UNK         0.0839 
     98 H98        26.7025  -29.2804  -37.2219 H         1 UNK         0.0839 
     99 H99        27.2115  -28.0899  -38.4032 H         1 UNK         0.0839 
    100 H100       24.4813  -30.3764  -37.1207 H         1 UNK         0.2998 
    101 H101       23.5559  -32.2345  -36.3470 H         1 UNK         0.0822 
    102 H102       25.9164  -33.0886  -36.3863 H         1 UNK         0.0787 
    103 H103       24.7416  -34.3767  -36.5923 H         1 UNK         0.0787 
    104 H104       25.6350  -33.7827  -37.9826 H         1 UNK         0.0787 
    105 H105       22.3154  -31.0443  -38.4950 H         1 UNK         0.3055 
    106 H106       20.6503  -31.1847  -39.9455 H         1 UNK         0.1106 
    107 H107       19.5078  -32.5458  -38.2112 H         1 UNK         0.0828 
    108 H108       19.0413  -33.0481  -39.8276 H         1 UNK         0.0828 
    109 H109       20.1731  -34.0239  -38.9052 H         1 UNK         0.0828 
    110 H110       22.7885  -31.1293  -41.3046 H         1 UNK         0.2931 
    111 H111       23.6926  -31.4608  -43.2616 H         1 UNK         0.0412 
    112 H112       24.8213  -32.9951  -41.1789 H         1 UNK         0.3472 
    113 H113       25.4276  -34.4664  -41.9001 H         1 UNK         0.3472 
    114 H114       21.3041  -33.1936  -44.0492 H         1 UNK         0.0970 
    115 H115       22.5109  -32.5763  -45.1326 H         1 UNK         0.0970 
    116 H116       18.7445  -31.1964  -44.2983 H         1 UNK         0.0612 
    117 H117       19.5598  -32.0732  -43.0328 H         1 UNK         0.0612 
@<TRIPOS>BOND
     1    1    2 1    
     2    1   62 1    
     3    1   63 1    
     4    1   64 1    
     5    2    3 2    
     6    2    4 am   BACKBONE|DICT|INTERRES
     7    4    5 1    
     8    4   65 1    
     9    5    6 1    
    10    5   25 1    
    11    5   66 1    
    12    6    7 1    
    13    6   67 1    
    14    6   68 1    
    15    7    8 1    
    16    8    9 1    
    17    8   69 1    
    18    8   70 1    
    19    9   10 ar   
    20    9   14 ar   
    21   10   11 ar   
    22   10   71 1    
    23   11   12 ar   
    24   11   61 1    
    25   12   13 ar   
    26   12   72 1    
    27   13   14 ar   
    28   13   15 1    
    29   14   73 1    
    30   15   16 1    
    31   15   74 1    
    32   15   75 1    
    33   16   17 1    
    34   17   18 1    
    35   17   76 1    
    36   17   77 1    
    37   18   19 1    
    38   18   27 1    
    39   18   78 1    
    40   19   20 am   BACKBONE|DICT|INTERRES
    41   19   79 1    
    42   20   21 2    
    43   20   22 1    
    44   22   23 1    
    45   22   24 1    
    46   22   80 1    
    47   23   81 1    
    48   23   82 1    
    49   23   83 1    
    50   24   25 am   BACKBONE|DICT|INTERRES
    51   24   84 1    
    52   25   26 2    
    53   27   28 2    
    54   27   29 am   BACKBONE|DICT|INTERRES
    55   29   30 1    
    56   29   85 1    
    57   30   31 1    
    58   30   32 1    
    59   30   86 1    
    60   31   87 1    
    61   31   88 1    
    62   31   89 1    
    63   32   33 2    
    64   32   34 am   BACKBONE|DICT|INTERRES
    65   34   35 1    
    66   34   90 1    
    67   35   36 1    
    68   35   37 1    
    69   35   91 1    
    70   36   92 1    
    71   36   93 1    
    72   36   94 1    
    73   37   38 2    
    74   37   39 am   BACKBONE|DICT|INTERRES
    75   39   40 1    
    76   39   95 1    
    77   40   41 1    
    78   40   42 1    
    79   40   96 1    
    80   41   97 1    
    81   41   98 1    
    82   41   99 1    
    83   42   43 2    
    84   42   44 am   BACKBONE|DICT|INTERRES
    85   44   45 1    
    86   44  100 1    
    87   45   46 1    
    88   45   47 1    
    89   45  101 1    
    90   46  102 1    
    91   46  103 1    
    92   46  104 1    
    93   47   48 2    
    94   47   49 am   BACKBONE|DICT|INTERRES
    95   49   50 1    
    96   49  105 1    
    97   50   51 1    
    98   50   52 1    
    99   50  106 1    
   100   51  107 1    
   101   51  108 1    
   102   51  109 1    
   103   52   53 2    
   104   52   54 am   BACKBONE|DICT|INTERRES
   105   54   55 1    
   106   54  110 1    
   107   55   56 1    
   108   55   59 1    
   109   55  111 1    
   110   56   57 am   BACKBONE|DICT|INTERRES
   111   56   58 2    
   112   57  112 1    
   113   57  113 1    
   114   59   60 1    
   115   59  114 1    
   116   59  115 1    
   117   60   61 1    
   118   61  116 1    
   119   61  117 1    
@<TRIPOS>SUBSTRUCTURE
     1 UNK         1 GROUP             0       ****    0 ROOT    
