@<TRIPOS>MOLECULE
3R8
117   119    1
SMALL
USER_CHARGES


@<TRIPOS>ATOM
      1 CA         17.9337  -26.0758  -39.1491 C.3       0 UNK        -0.2013 
      2 C          18.0045  -25.5884  -40.5884 C.2       0 UNK         0.4866 
      3 O          18.1833  -24.3925  -40.8219 O.2       0 UNK        -0.5176 
      4 N          17.8544  -26.5031  -41.5543 N.am      1 UNK        -0.4884 
      5 CA         17.9620  -26.2341  -42.9916 C.3       1 UNK         0.0853 
      6 C6         17.5109  -27.4518  -43.8280 C.3       10 UNK        -0.0849 
      7 S7         15.7145  -27.7806  -43.7325 S.3       10 UNK        -0.2776 
      8 C8         15.5699  -29.6056  -43.8788 C.3       10 UNK         0.0316 
      9 C9         16.7061  -30.2642  -44.6568 C.ar      10 UNK        -0.0863 
     10 C10        17.4505  -31.2917  -44.0714 C.ar      10 UNK        -0.1009 
     11 C11        18.5698  -31.8315  -44.7212 C.ar      10 UNK        -0.0712 
     12 C12        18.9399  -31.3119  -45.9677 C.ar      10 UNK        -0.0894 
     13 C13        18.1898  -30.3004  -46.5764 C.ar      10 UNK        -0.0745 
     14 C14        17.0505  -29.8123  -45.9321 C.ar      10 UNK        -0.0972 
     15 C15        18.6095  -29.7193  -47.9204 C.3       10 UNK         0.0209 
     16 S16        18.8235  -27.9072  -47.8307 S.3       10 UNK        -0.2568 
     17 C17        20.5851  -27.6655  -48.2504 C.3       10 UNK        -0.0983 
     18 CA         21.5023  -27.3307  -47.0438 C.3       3 UNK         0.0876 
     19 N          20.9521  -26.2534  -46.2161 N.am      3 UNK        -0.4424 
     20 C          21.6741  -25.3586  -45.5298 C.2       2 UNK         0.4918 
     21 O          22.9034  -25.3064  -45.5552 O.2       2 UNK        -0.4875 
     22 CA         20.8951  -24.3487  -44.6635 C.3       2 UNK         0.0481 
     23 CB         20.7094  -23.0260  -45.4239 C.3       2 UNK        -0.1831 
     24 N          19.5864  -24.8288  -44.1987 N.am      2 UNK        -0.4498 
     25 C          19.4107  -25.8703  -43.3730 C.2       1 UNK         0.5027 
     26 O          20.3347  -26.5750  -42.9666 O.2       1 UNK        -0.4969 
     27 C          21.8935  -28.5881  -46.2349 C.2       3 UNK         0.5005 
     28 O          22.5031  -29.4911  -46.8122 O.2       3 UNK        -0.5279 
     29 N          21.5685  -28.6444  -44.9339 N.am      4 UNK        -0.4463 
     30 CA         22.0020  -29.7177  -44.0394 C.3       4 UNK         0.0283 
     31 CB         21.0273  -29.8282  -42.8599 C.3       4 UNK        -0.1875 
     32 C          23.4253  -29.4489  -43.5304 C.2       4 UNK         0.4949 
     33 O          23.7935  -28.2895  -43.3238 O.2       4 UNK        -0.5039 
     34 N          24.1868  -30.5267  -43.2988 N.am      5 UNK        -0.4663 
     35 CA         25.5522  -30.4990  -42.7639 C.3       5 UNK         0.0242 
     36 CB         26.1019  -31.9338  -42.7021 C.3       5 UNK        -0.1982 
     37 C          25.5969  -29.8326  -41.3790 C.2       5 UNK         0.5017 
     38 O          24.9917  -30.3538  -40.4413 O.2       5 UNK        -0.5012 
     39 N          26.2443  -28.6599  -41.3005 N.am      6 UNK        -0.4439 
     40 CA         26.3194  -27.7690  -40.1312 C.3       6 UNK         0.0297 
     41 CB         27.1927  -28.4039  -39.0277 C.3       6 UNK        -0.2006 
     42 C          24.9393  -27.3173  -39.5990 C.2       6 UNK         0.4892 
     43 O          24.8190  -27.0085  -38.4125 O.2       6 UNK        -0.5089 
     44 N          23.9245  -27.3151  -40.4796 N.am      7 UNK        -0.4243 
     45 CA         22.4991  -27.1027  -40.2019 C.3       7 UNK         0.0196 
     46 CB         22.2321  -25.6628  -39.7153 C.3       7 UNK        -0.2007 
     47 C          21.8721  -28.1729  -39.2790 C.2       7 UNK         0.5020 
     48 O          20.8271  -27.9145  -38.6809 O.2       7 UNK        -0.5147 
     49 N          22.5010  -29.3521  -39.1732 N.am      8 UNK        -0.4734 
     50 CA         22.1224  -30.4318  -38.2645 C.3       8 UNK         0.0238 
     51 CB         23.2295  -30.5888  -37.2046 C.3       8 UNK        -0.1912 
     52 C          21.8948  -31.7181  -39.0697 C.2       8 UNK         0.5038 
     53 O          22.7611  -32.5944  -39.0945 O.2       8 UNK        -0.5046 
     54 N          20.7341  -31.7973  -39.7326 N.am      9 UNK        -0.4200 
     55 CA         20.2724  -32.9840  -40.4698 C.3       9 UNK         0.0839 
     56 C          20.0332  -34.2000  -39.5298 C.2       9 UNK         0.5513 
     57 N          20.4475  -35.3937  -39.9312 N.am      9 UNK        -0.7519 
     58 O          19.4467  -34.0689  -38.4571 O.2       9 UNK        -0.4960 
     59 C59        19.0109  -32.6506  -41.3087 C.3       10 UNK        -0.0876 
     60 S60        18.7317  -33.8291  -42.6779 S.3       10 UNK        -0.2414 
     61 C61        19.4357  -32.9405  -44.1126 C.3       10 UNK         0.0169 
     62 H62        18.8332  -25.7817  -38.6088 H         1 UNK         0.0903 
     63 H63        17.0731  -25.6375  -38.6445 H         1 UNK         0.0903 
     64 H64        17.8492  -27.1608  -39.0899 H         1 UNK         0.0903 
     65 H65        17.7121  -27.4705  -41.3038 H         1 UNK         0.3096 
     66 H66        17.3163  -25.3846  -43.2256 H         1 UNK         0.1121 
     67 H67        18.0710  -28.3345  -43.5148 H         1 UNK         0.0849 
     68 H68        17.7465  -27.2999  -44.8833 H         1 UNK         0.0849 
     69 H69        15.5100  -30.0190  -42.8709 H         1 UNK         0.0865 
     70 H70        14.6220  -29.8474  -44.3612 H         1 UNK         0.0865 
     71 H71        17.1579  -31.6477  -43.0955 H         1 UNK         0.1346 
     72 H72        19.8210  -31.6951  -46.4645 H         1 UNK         0.1412 
     73 H73        16.4720  -29.0227  -46.3924 H         1 UNK         0.1426 
     74 H74        17.8388  -29.9455  -48.6583 H         1 UNK         0.0716 
     75 H75        19.5238  -30.1951  -48.2769 H         1 UNK         0.0716 
     76 H76        20.6218  -26.8308  -48.9521 H         1 UNK         0.0695 
     77 H77        20.9645  -28.5189  -48.8150 H         1 UNK         0.0695 
     78 H78        22.4433  -26.9718  -47.4672 H         1 UNK         0.0983 
     79 H79        19.9448  -26.2165  -46.1608 H         1 UNK         0.3095 
     80 H80        21.5025  -24.1473  -43.7785 H         1 UNK         0.0454 
     81 H81        21.6695  -22.6290  -45.7569 H         1 UNK         0.0851 
     82 H82        20.2499  -22.2651  -44.7929 H         1 UNK         0.0851 
     83 H83        20.0853  -23.1521  -46.3095 H         1 UNK         0.0851 
     84 H84        18.7796  -24.3025  -44.5037 H         1 UNK         0.2976 
     85 H85        21.1459  -27.8368  -44.4910 H         1 UNK         0.3116 
     86 H86        21.9868  -30.6645  -44.5835 H         1 UNK         0.0646 
     87 H87        21.0519  -28.9484  -42.2218 H         1 UNK         0.0847 
     88 H88        20.0021  -29.9537  -43.2034 H         1 UNK         0.0847 
     89 H89        21.2798  -30.6852  -42.2368 H         1 UNK         0.0847 
     90 H90        23.7940  -31.4417  -43.4664 H         1 UNK         0.3040 
     91 H91        26.1714  -29.9260  -43.4575 H         1 UNK         0.1015 
     92 H92        27.1214  -31.9437  -42.3138 H         1 UNK         0.0786 
     93 H93        26.1284  -32.3933  -43.6903 H         1 UNK         0.0786 
     94 H94        25.5001  -32.5698  -42.0509 H         1 UNK         0.0786 
     95 H95        26.6696  -28.2982  -42.1439 H         1 UNK         0.3172 
     96 H96        26.8219  -26.8621  -40.4705 H         1 UNK         0.0595 
     97 H97        26.7157  -29.2823  -38.5912 H         1 UNK         0.0839 
     98 H98        27.3762  -27.6981  -38.2167 H         1 UNK         0.0839 
     99 H99        28.1651  -28.7076  -39.4151 H         1 UNK         0.0839 
    100 H100       24.1291  -27.5887  -41.4367 H         1 UNK         0.2998 
    101 H101       22.0037  -27.2086  -41.1640 H         1 UNK         0.0822 
    102 H102       21.1621  -25.4540  -39.6873 H         1 UNK         0.0787 
    103 H103       22.6832  -24.9291  -40.3832 H         1 UNK         0.0787 
    104 H104       22.6236  -25.4935  -38.7120 H         1 UNK         0.0787 
    105 H105       23.3471  -29.5206  -39.7120 H         1 UNK         0.3055 
    106 H106       21.1907  -30.2015  -37.7428 H         1 UNK         0.1106 
    107 H107       23.3362  -29.6820  -36.6091 H         1 UNK         0.0828 
    108 H108       23.0020  -31.4052  -36.5181 H         1 UNK         0.0828 
    109 H109       24.1978  -30.8020  -37.6602 H         1 UNK         0.0828 
    110 H110       20.0735  -31.0403  -39.6396 H         1 UNK         0.2931 
    111 H111       21.0774  -33.2394  -41.1628 H         1 UNK         0.0412 
    112 H112       20.9072  -35.5095  -40.8211 H         1 UNK         0.3472 
    113 H113       20.2896  -36.1947  -39.3398 H         1 UNK         0.3472 
    114 H114       18.1192  -32.6259  -40.6790 H         1 UNK         0.0970 
    115 H115       19.0938  -31.6498  -41.7300 H         1 UNK         0.0970 
    116 H116       19.6330  -33.6847  -44.8855 H         1 UNK         0.0612 
    117 H117       20.4059  -32.5297  -43.8329 H         1 UNK         0.0612 
@<TRIPOS>BOND
     1    1    2 1    
     2    1   62 1    
     3    1   63 1    
     4    1   64 1    
     5    2    3 2    
     6    2    4 am   BACKBONE|DICT|INTERRES
     7    4    5 1    
     8    4   65 1    
     9    5    6 1    
    10    5   25 1    
    11    5   66 1    
    12    6    7 1    
    13    6   67 1    
    14    6   68 1    
    15    7    8 1    
    16    8    9 1    
    17    8   69 1    
    18    8   70 1    
    19    9   10 ar   
    20    9   14 ar   
    21   10   11 ar   
    22   10   71 1    
    23   11   12 ar   
    24   11   61 1    
    25   12   13 ar   
    26   12   72 1    
    27   13   14 ar   
    28   13   15 1    
    29   14   73 1    
    30   15   16 1    
    31   15   74 1    
    32   15   75 1    
    33   16   17 1    
    34   17   18 1    
    35   17   76 1    
    36   17   77 1    
    37   18   19 1    
    38   18   27 1    
    39   18   78 1    
    40   19   20 am   BACKBONE|DICT|INTERRES
    41   19   79 1    
    42   20   21 2    
    43   20   22 1    
    44   22   23 1    
    45   22   24 1    
    46   22   80 1    
    47   23   81 1    
    48   23   82 1    
    49   23   83 1    
    50   24   25 am   BACKBONE|DICT|INTERRES
    51   24   84 1    
    52   25   26 2    
    53   27   28 2    
    54   27   29 am   BACKBONE|DICT|INTERRES
    55   29   30 1    
    56   29   85 1    
    57   30   31 1    
    58   30   32 1    
    59   30   86 1    
    60   31   87 1    
    61   31   88 1    
    62   31   89 1    
    63   32   33 2    
    64   32   34 am   BACKBONE|DICT|INTERRES
    65   34   35 1    
    66   34   90 1    
    67   35   36 1    
    68   35   37 1    
    69   35   91 1    
    70   36   92 1    
    71   36   93 1    
    72   36   94 1    
    73   37   38 2    
    74   37   39 am   BACKBONE|DICT|INTERRES
    75   39   40 1    
    76   39   95 1    
    77   40   41 1    
    78   40   42 1    
    79   40   96 1    
    80   41   97 1    
    81   41   98 1    
    82   41   99 1    
    83   42   43 2    
    84   42   44 am   BACKBONE|DICT|INTERRES
    85   44   45 1    
    86   44  100 1    
    87   45   46 1    
    88   45   47 1    
    89   45  101 1    
    90   46  102 1    
    91   46  103 1    
    92   46  104 1    
    93   47   48 2    
    94   47   49 am   BACKBONE|DICT|INTERRES
    95   49   50 1    
    96   49  105 1    
    97   50   51 1    
    98   50   52 1    
    99   50  106 1    
   100   51  107 1    
   101   51  108 1    
   102   51  109 1    
   103   52   53 2    
   104   52   54 am   BACKBONE|DICT|INTERRES
   105   54   55 1    
   106   54  110 1    
   107   55   56 1    
   108   55   59 1    
   109   55  111 1    
   110   56   57 am   BACKBONE|DICT|INTERRES
   111   56   58 2    
   112   57  112 1    
   113   57  113 1    
   114   59   60 1    
   115   59  114 1    
   116   59  115 1    
   117   60   61 1    
   118   61  116 1    
   119   61  117 1    
@<TRIPOS>SUBSTRUCTURE
     1 UNK         1 GROUP             0       ****    0 ROOT    
