@<TRIPOS>MOLECULE
3R8
117   119    1
SMALL
USER_CHARGES


@<TRIPOS>ATOM
      1 CA         18.6400  -24.6994  -40.0584 C.3       0 UNK        -0.2013 
      2 C          19.9424  -25.3455  -40.5214 C.2       0 UNK         0.4866 
      3 O          20.8698  -25.4571  -39.7231 O.2       0 UNK        -0.5176 
      4 N          20.0666  -25.7770  -41.7816 N.am      1 UNK        -0.4884 
      5 CA         19.0843  -25.6911  -42.8693 C.3       1 UNK         0.0853 
      6 C6         18.4722  -27.0833  -43.1958 C.3       10 UNK        -0.0849 
      7 S7         17.4610  -27.7583  -41.8364 S.3       10 UNK        -0.2776 
      8 C8         16.3175  -28.8696  -42.7212 C.3       10 UNK         0.0316 
      9 C9         17.0542  -29.9108  -43.5535 C.ar      10 UNK        -0.0863 
     10 C10        17.8564  -30.8717  -42.9298 C.ar      10 UNK        -0.1009 
     11 C11        18.5684  -31.8037  -43.6895 C.ar      10 UNK        -0.0712 
     12 C12        18.4537  -31.7862  -45.0819 C.ar      10 UNK        -0.0894 
     13 C13        17.6613  -30.8263  -45.7178 C.ar      10 UNK        -0.0745 
     14 C14        16.9539  -29.8979  -44.9485 C.ar      10 UNK        -0.0972 
     15 C15        17.6139  -30.7649  -47.2381 C.3       10 UNK         0.0209 
     16 S16        18.4864  -29.3044  -47.8974 S.3       10 UNK        -0.2568 
     17 C17        20.1543  -29.4872  -47.1713 C.3       10 UNK        -0.0983 
     18 CA         21.0144  -28.2057  -47.2994 C.3       3 UNK         0.0876 
     19 N          20.3156  -27.0249  -46.7823 N.am      3 UNK        -0.4424 
     20 C          20.6030  -25.7561  -47.1034 C.2       2 UNK         0.4918 
     21 O          21.5465  -25.4256  -47.8217 O.2       2 UNK        -0.4875 
     22 CA         19.6620  -24.6716  -46.5416 C.3       2 UNK         0.0481 
     23 CB         18.5309  -24.3790  -47.5404 C.3       2 UNK        -0.1831 
     24 N          19.0828  -25.0437  -45.2459 N.am      2 UNK        -0.4498 
     25 C          19.7813  -25.0726  -44.1019 C.2       1 UNK         0.5027 
     26 O          20.9326  -24.6382  -44.0170 O.2       1 UNK        -0.4969 
     27 C          22.3857  -28.4258  -46.6276 C.2       3 UNK         0.5005 
     28 O          23.3001  -28.9319  -47.2808 O.2       3 UNK        -0.5279 
     29 N          22.5067  -28.0621  -45.3442 N.am      4 UNK        -0.4463 
     30 CA         23.7052  -28.2180  -44.5248 C.3       4 UNK         0.0283 
     31 CB         23.8101  -29.6602  -43.9967 C.3       4 UNK        -0.1875 
     32 C          23.6305  -27.2307  -43.3583 C.2       4 UNK         0.4949 
     33 O          22.5317  -26.8855  -42.9214 O.2       4 UNK        -0.5039 
     34 N          24.8033  -26.8286  -42.8532 N.am      5 UNK        -0.4663 
     35 CA         24.9835  -25.8214  -41.7989 C.3       5 UNK         0.0242 
     36 CB         26.4726  -25.4383  -41.7373 C.3       5 UNK        -0.1982 
     37 C          24.4676  -26.2189  -40.4004 C.2       5 UNK         0.5017 
     38 O          24.4542  -25.3671  -39.5103 O.2       5 UNK        -0.5012 
     39 N          24.0676  -27.4818  -40.2225 N.am      6 UNK        -0.4439 
     40 CA         23.3782  -27.9913  -39.0453 C.3       6 UNK         0.0297 
     41 CB         24.3533  -28.8078  -38.1804 C.3       6 UNK        -0.2006 
     42 C          22.2224  -28.8617  -39.5408 C.2       6 UNK         0.4892 
     43 O          22.4360  -29.7012  -40.4186 O.2       6 UNK        -0.5089 
     44 N          21.0384  -28.6752  -38.9442 N.am      7 UNK        -0.4243 
     45 CA         19.7876  -29.3567  -39.2993 C.3       7 UNK         0.0196 
     46 CB         18.6291  -28.7009  -38.5299 C.3       7 UNK        -0.2007 
     47 C          19.7905  -30.8794  -39.0694 C.2       7 UNK         0.5020 
     48 O          18.9239  -31.5708  -39.6023 O.2       7 UNK        -0.5147 
     49 N          20.7527  -31.3831  -38.2861 N.am      8 UNK        -0.4734 
     50 CA         20.9956  -32.8140  -38.0987 C.3       8 UNK         0.0238 
     51 CB         21.8676  -33.0151  -36.8482 C.3       8 UNK        -0.1912 
     52 C          21.6506  -33.4813  -39.3231 C.2       8 UNK         0.5038 
     53 O          21.5243  -34.6979  -39.4679 O.2       8 UNK        -0.5046 
     54 N          22.3460  -32.6937  -40.1599 N.am      9 UNK        -0.4200 
     55 CA         23.1045  -33.1388  -41.3431 C.3       9 UNK         0.0839 
     56 C          24.2709  -34.1299  -41.0366 C.2       9 UNK         0.5513 
     57 N          24.8156  -34.1462  -39.8255 N.am      9 UNK        -0.7519 
     58 O          24.7150  -34.8721  -41.9091 O.2       9 UNK        -0.4960 
     59 C59        22.1813  -33.6086  -42.5044 C.3       10 UNK        -0.0876 
     60 S60        21.2231  -32.2215  -43.1962 S.3       10 UNK        -0.2414 
     61 C61        19.5087  -32.7942  -43.0215 C.3       10 UNK         0.0169 
     62 H62        17.7843  -25.3427  -40.2559 H         1 UNK         0.0903 
     63 H63        18.6680  -24.5132  -38.9849 H         1 UNK         0.0903 
     64 H64        18.4867  -23.7432  -40.5576 H         1 UNK         0.0903 
     65 H65        20.9723  -26.1300  -42.0871 H         1 UNK         0.3096 
     66 H66        18.2779  -25.0029  -42.6131 H         1 UNK         0.1121 
     67 H67        19.2585  -27.8052  -43.4272 H         1 UNK         0.0849 
     68 H68        17.8301  -27.0363  -44.0761 H         1 UNK         0.0849 
     69 H69        15.6836  -29.3773  -41.9930 H         1 UNK         0.0865 
     70 H70        15.6496  -28.2722  -43.3437 H         1 UNK         0.0865 
     71 H71        17.9504  -30.8693  -41.8532 H         1 UNK         0.1346 
     72 H72        19.0208  -32.4941  -45.6710 H         1 UNK         0.1412 
     73 H73        16.3495  -29.1491  -45.4423 H         1 UNK         0.1426 
     74 H74        16.5741  -30.7357  -47.5666 H         1 UNK         0.0716 
     75 H75        18.0489  -31.6644  -47.6767 H         1 UNK         0.0716 
     76 H76        20.6466  -30.3310  -47.6587 H         1 UNK         0.0695 
     77 H77        20.0587  -29.7541  -46.1179 H         1 UNK         0.0695 
     78 H78        21.2041  -28.0384  -48.3623 H         1 UNK         0.0983 
     79 H79        19.4964  -27.2086  -46.2246 H         1 UNK         0.3095 
     80 H80        20.2442  -23.7563  -46.4143 H         1 UNK         0.0454 
     81 H81        18.9348  -24.0726  -48.5064 H         1 UNK         0.0851 
     82 H82        17.8897  -23.5704  -47.1894 H         1 UNK         0.0851 
     83 H83        17.9045  -25.2550  -47.7141 H         1 UNK         0.0851 
     84 H84        18.1213  -25.3534  -45.2506 H         1 UNK         0.2976 
     85 H85        21.7402  -27.5974  -44.8743 H         1 UNK         0.3116 
     86 H86        24.5827  -27.9820  -45.1307 H         1 UNK         0.0646 
     87 H87        24.7350  -29.8086  -43.4386 H         1 UNK         0.0847 
     88 H88        22.9856  -29.8946  -43.3226 H         1 UNK         0.0847 
     89 H89        23.8000  -30.3905  -44.8058 H         1 UNK         0.0847 
     90 H90        25.6513  -27.1973  -43.2608 H         1 UNK         0.3040 
     91 H91        24.4153  -24.9360  -42.0937 H         1 UNK         0.1015 
     92 H92        26.6468  -24.6530  -41.0002 H         1 UNK         0.0786 
     93 H93        26.8264  -25.0594  -42.6964 H         1 UNK         0.0786 
     94 H94        27.0958  -26.2891  -41.4593 H         1 UNK         0.0786 
     95 H95        24.0500  -28.0987  -41.0239 H         1 UNK         0.3172 
     96 H96        22.9736  -27.1664  -38.4543 H         1 UNK         0.0595 
     97 H97        24.7678  -29.6554  -38.7281 H         1 UNK         0.0839 
     98 H98        23.8546  -29.2020  -37.2941 H         1 UNK         0.0839 
     99 H99        25.1855  -28.1929  -37.8376 H         1 UNK         0.0839 
    100 H100       20.9666  -27.9499  -38.2445 H         1 UNK         0.2998 
    101 H101       19.6269  -29.2006  -40.3681 H         1 UNK         0.0822 
    102 H102       17.6742  -29.1506  -38.8064 H         1 UNK         0.0787 
    103 H103       18.7445  -28.8137  -37.4513 H         1 UNK         0.0787 
    104 H104       18.5566  -27.6365  -38.7535 H         1 UNK         0.0787 
    105 H105       21.4100  -30.7423  -37.8665 H         1 UNK         0.3055 
    106 H106       20.0367  -33.3107  -37.9326 H         1 UNK         0.1106 
    107 H107       21.3808  -32.6183  -35.9571 H         1 UNK         0.0828 
    108 H108       22.0525  -34.0752  -36.6680 H         1 UNK         0.0828 
    109 H109       22.8382  -32.5275  -36.9469 H         1 UNK         0.0828 
    110 H110       22.3541  -31.6919  -40.0013 H         1 UNK         0.2931 
    111 H111       23.6212  -32.2441  -41.6934 H         1 UNK         0.0412 
    112 H112       25.5755  -34.7805  -39.6345 H         1 UNK         0.3472 
    113 H113       24.4751  -33.5329  -39.1030 H         1 UNK         0.3472 
    114 H114       22.7658  -34.0193  -43.3292 H         1 UNK         0.0970 
    115 H115       21.5183  -34.4107  -42.1773 H         1 UNK         0.0970 
    116 H116       19.2692  -32.9105  -41.9636 H         1 UNK         0.0612 
    117 H117       19.3999  -33.7770  -43.4824 H         1 UNK         0.0612 
@<TRIPOS>BOND
     1    1    2 1    
     2    1   62 1    
     3    1   63 1    
     4    1   64 1    
     5    2    3 2    
     6    2    4 am   BACKBONE|DICT|INTERRES
     7    4    5 1    
     8    4   65 1    
     9    5    6 1    
    10    5   25 1    
    11    5   66 1    
    12    6    7 1    
    13    6   67 1    
    14    6   68 1    
    15    7    8 1    
    16    8    9 1    
    17    8   69 1    
    18    8   70 1    
    19    9   10 ar   
    20    9   14 ar   
    21   10   11 ar   
    22   10   71 1    
    23   11   12 ar   
    24   11   61 1    
    25   12   13 ar   
    26   12   72 1    
    27   13   14 ar   
    28   13   15 1    
    29   14   73 1    
    30   15   16 1    
    31   15   74 1    
    32   15   75 1    
    33   16   17 1    
    34   17   18 1    
    35   17   76 1    
    36   17   77 1    
    37   18   19 1    
    38   18   27 1    
    39   18   78 1    
    40   19   20 am   BACKBONE|DICT|INTERRES
    41   19   79 1    
    42   20   21 2    
    43   20   22 1    
    44   22   23 1    
    45   22   24 1    
    46   22   80 1    
    47   23   81 1    
    48   23   82 1    
    49   23   83 1    
    50   24   25 am   BACKBONE|DICT|INTERRES
    51   24   84 1    
    52   25   26 2    
    53   27   28 2    
    54   27   29 am   BACKBONE|DICT|INTERRES
    55   29   30 1    
    56   29   85 1    
    57   30   31 1    
    58   30   32 1    
    59   30   86 1    
    60   31   87 1    
    61   31   88 1    
    62   31   89 1    
    63   32   33 2    
    64   32   34 am   BACKBONE|DICT|INTERRES
    65   34   35 1    
    66   34   90 1    
    67   35   36 1    
    68   35   37 1    
    69   35   91 1    
    70   36   92 1    
    71   36   93 1    
    72   36   94 1    
    73   37   38 2    
    74   37   39 am   BACKBONE|DICT|INTERRES
    75   39   40 1    
    76   39   95 1    
    77   40   41 1    
    78   40   42 1    
    79   40   96 1    
    80   41   97 1    
    81   41   98 1    
    82   41   99 1    
    83   42   43 2    
    84   42   44 am   BACKBONE|DICT|INTERRES
    85   44   45 1    
    86   44  100 1    
    87   45   46 1    
    88   45   47 1    
    89   45  101 1    
    90   46  102 1    
    91   46  103 1    
    92   46  104 1    
    93   47   48 2    
    94   47   49 am   BACKBONE|DICT|INTERRES
    95   49   50 1    
    96   49  105 1    
    97   50   51 1    
    98   50   52 1    
    99   50  106 1    
   100   51  107 1    
   101   51  108 1    
   102   51  109 1    
   103   52   53 2    
   104   52   54 am   BACKBONE|DICT|INTERRES
   105   54   55 1    
   106   54  110 1    
   107   55   56 1    
   108   55   59 1    
   109   55  111 1    
   110   56   57 am   BACKBONE|DICT|INTERRES
   111   56   58 2    
   112   57  112 1    
   113   57  113 1    
   114   59   60 1    
   115   59  114 1    
   116   59  115 1    
   117   60   61 1    
   118   61  116 1    
   119   61  117 1    
@<TRIPOS>SUBSTRUCTURE
     1 UNK         1 GROUP             0       ****    0 ROOT    
