@<TRIPOS>MOLECULE
3R8
117   119    1
SMALL
USER_CHARGES


@<TRIPOS>ATOM
      1 CA         15.6106  -28.0033  -43.2210 C.3       0 UNK        -0.2013 
      2 C          16.2322  -26.8883  -44.0482 C.2       0 UNK         0.4866 
      3 O          15.7073  -25.7747  -44.0615 O.2       0 UNK        -0.5176 
      4 N          17.3266  -27.1877  -44.7594 N.am      1 UNK        -0.4884 
      5 CA         17.9813  -26.2830  -45.7123 C.3       1 UNK         0.0853 
      6 C6         18.9930  -27.0184  -46.6283 C.3       10 UNK        -0.0849 
      7 S7         18.2683  -28.4499  -47.5018 S.3       10 UNK        -0.2776 
      8 C8         19.2777  -29.8346  -46.8788 C.3       10 UNK         0.0316 
      9 C9         18.7929  -30.3448  -45.5279 C.ar      10 UNK        -0.0863 
     10 C10        17.8921  -31.4127  -45.4657 C.ar      10 UNK        -0.1009 
     11 C11        17.4848  -31.9265  -44.2309 C.ar      10 UNK        -0.0712 
     12 C12        17.9488  -31.3383  -43.0520 C.ar      10 UNK        -0.0894 
     13 C13        18.8634  -30.2859  -43.1011 C.ar      10 UNK        -0.0745 
     14 C14        19.2833  -29.7941  -44.3401 C.ar      10 UNK        -0.0972 
     15 C15        19.4373  -29.7200  -41.8157 C.3       10 UNK         0.0209 
     16 S16        18.4616  -28.3136  -41.2124 S.3       10 UNK        -0.2568 
     17 C17        19.5191  -27.7334  -39.8439 C.3       10 UNK        -0.0983 
     18 CA         20.7370  -26.9316  -40.3646 C.3       3 UNK         0.0876 
     19 N          20.3309  -25.8313  -41.2510 N.am      3 UNK        -0.4424 
     20 C          21.0799  -25.2850  -42.2150 C.2       2 UNK         0.4918 
     21 O          22.2851  -25.5116  -42.3538 O.2       2 UNK        -0.4875 
     22 CA         20.3291  -24.4435  -43.2522 C.3       2 UNK         0.0481 
     23 CB         21.3088  -23.6810  -44.1748 C.3       2 UNK        -0.1831 
     24 N          19.4817  -25.3720  -44.0057 N.am      2 UNK        -0.4498 
     25 C          18.6616  -25.0812  -45.0244 C.2       1 UNK         0.5027 
     26 O          18.4420  -23.9409  -45.4353 O.2       1 UNK        -0.4969 
     27 C          21.7271  -26.5170  -39.2541 C.2       3 UNK         0.5005 
     28 O          21.4901  -26.7477  -38.0667 O.2       3 UNK        -0.5279 
     29 N          22.8424  -25.9362  -39.6944 N.am      4 UNK        -0.4463 
     30 CA         24.0908  -25.7444  -38.9720 C.3       4 UNK         0.0283 
     31 CB         24.1708  -24.3246  -38.3855 C.3       4 UNK        -0.1875 
     32 C          25.2242  -26.0315  -39.9636 C.2       4 UNK         0.4949 
     33 O          26.0493  -26.9077  -39.7090 O.2       4 UNK        -0.5039 
     34 N          25.1982  -25.3386  -41.1130 N.am      5 UNK        -0.4663 
     35 CA         26.1036  -25.5653  -42.2426 C.3       5 UNK         0.0242 
     36 CB         26.0646  -24.3445  -43.1762 C.3       5 UNK        -0.1982 
     37 C          25.7658  -26.8477  -43.0223 C.2       5 UNK         0.5017 
     38 O          26.6790  -27.5649  -43.4300 O.2       5 UNK        -0.5012 
     39 N          24.4651  -27.1227  -43.1970 N.am      6 UNK        -0.4439 
     40 CA         23.9289  -28.2864  -43.9114 C.3       6 UNK         0.0297 
     41 CB         22.6180  -27.8814  -44.6077 C.3       6 UNK        -0.2006 
     42 C          23.7330  -29.5244  -43.0108 C.2       6 UNK         0.4892 
     43 O          23.0278  -30.4506  -43.4142 O.2       6 UNK        -0.5089 
     44 N          24.3557  -29.5272  -41.8223 N.am      7 UNK        -0.4243 
     45 CA         24.3577  -30.6006  -40.8232 C.3       7 UNK         0.0196 
     46 CB         25.1367  -31.8296  -41.3489 C.3       7 UNK        -0.2007 
     47 C          22.9420  -30.9177  -40.3008 C.2       7 UNK         0.5020 
     48 O          22.2239  -29.9903  -39.9270 O.2       7 UNK        -0.5147 
     49 N          22.5772  -32.2043  -40.2534 N.am      8 UNK        -0.4734 
     50 CA         21.3164  -32.7121  -39.7124 C.3       8 UNK         0.0238 
     51 CB         21.5675  -33.2989  -38.3095 C.3       8 UNK        -0.1912 
     52 C          20.6968  -33.7256  -40.6881 C.2       8 UNK         0.5038 
     53 O          20.3757  -34.8467  -40.2894 O.2       8 UNK        -0.5046 
     54 N          20.5500  -33.3114  -41.9537 N.am      9 UNK        -0.4200 
     55 CA         20.0476  -34.1217  -43.0764 C.3       9 UNK         0.0839 
     56 C          21.0601  -35.2104  -43.5448 C.2       9 UNK         0.5513 
     57 N          20.6444  -36.1214  -44.4139 N.am      9 UNK        -0.7519 
     58 O          22.2291  -35.2193  -43.1627 O.2       9 UNK        -0.4960 
     59 C59        18.6004  -34.6620  -42.8306 C.3       10 UNK        -0.0876 
     60 S60        17.5703  -34.6859  -44.3418 S.3       10 UNK        -0.2414 
     61 C61        16.5927  -33.1556  -44.1678 C.3       10 UNK         0.0169 
     62 H62        16.1640  -28.9374  -43.3154 H         1 UNK         0.0903 
     63 H63        15.5908  -27.7245  -42.1679 H         1 UNK         0.0903 
     64 H64        14.5862  -28.1844  -43.5447 H         1 UNK         0.0903 
     65 H65        17.6872  -28.1325  -44.7344 H         1 UNK         0.3096 
     66 H66        17.1963  -25.8748  -46.3535 H         1 UNK         0.1121 
     67 H67        19.8690  -27.3391  -46.0635 H         1 UNK         0.0849 
     68 H68        19.3714  -26.3325  -47.3891 H         1 UNK         0.0849 
     69 H69        19.2375  -30.6439  -47.6096 H         1 UNK         0.0865 
     70 H70        20.3274  -29.5424  -46.8243 H         1 UNK         0.0865 
     71 H71        17.5334  -31.8690  -46.3784 H         1 UNK         0.1346 
     72 H72        17.6347  -31.7285  -42.0940 H         1 UNK         0.1412 
     73 H73        20.0050  -28.9936  -44.3762 H         1 UNK         0.1426 
     74 H74        20.4714  -29.4227  -41.9882 H         1 UNK         0.0716 
     75 H75        19.4628  -30.4874  -41.0429 H         1 UNK         0.0716 
     76 H76        19.8420  -28.5980  -39.2604 H         1 UNK         0.0695 
     77 H77        18.9126  -27.1187  -39.1766 H         1 UNK         0.0695 
     78 H78        21.3177  -27.6228  -40.9779 H         1 UNK         0.0983 
     79 H79        19.3540  -25.5797  -41.2020 H         1 UNK         0.3095 
     80 H80        19.6967  -23.7268  -42.7255 H         1 UNK         0.0454 
     81 H81        20.7908  -22.9874  -44.8359 H         1 UNK         0.0851 
     82 H82        21.8926  -24.3625  -44.7946 H         1 UNK         0.0851 
     83 H83        22.0137  -23.0883  -43.5904 H         1 UNK         0.0851 
     84 H84        19.5427  -26.3375  -43.7137 H         1 UNK         0.2976 
     85 H85        22.8830  -25.7764  -40.6986 H         1 UNK         0.3116 
     86 H86        24.1596  -26.4706  -38.1589 H         1 UNK         0.0646 
     87 H87        24.0761  -23.5560  -39.1531 H         1 UNK         0.0847 
     88 H88        25.1233  -24.1666  -37.8781 H         1 UNK         0.0847 
     89 H89        23.3817  -24.1593  -37.6519 H         1 UNK         0.0847 
     90 H90        24.4945  -24.6250  -41.2403 H         1 UNK         0.3040 
     91 H91        27.1204  -25.6696  -41.8563 H         1 UNK         0.1015 
     92 H92        25.0656  -24.1746  -43.5809 H         1 UNK         0.0786 
     93 H93        26.7406  -24.4786  -44.0220 H         1 UNK         0.0786 
     94 H94        26.3751  -23.4379  -42.6564 H         1 UNK         0.0786 
     95 H95        23.7754  -26.4641  -42.8426 H         1 UNK         0.3172 
     96 H96        24.6366  -28.5760  -44.6908 H         1 UNK         0.0595 
     97 H97        21.8310  -27.6772  -43.8835 H         1 UNK         0.0839 
     98 H98        22.2647  -28.6766  -45.2651 H         1 UNK         0.0839 
     99 H99        22.7497  -26.9909  -45.2225 H         1 UNK         0.0839 
    100 H100       24.8891  -28.7050  -41.5777 H         1 UNK         0.2998 
    101 H101       24.9066  -30.2089  -39.9654 H         1 UNK         0.0822 
    102 H102       26.1324  -31.5430  -41.6878 H         1 UNK         0.0787 
    103 H103       25.2749  -32.5778  -40.5674 H         1 UNK         0.0787 
    104 H104       24.6315  -32.3098  -42.1882 H         1 UNK         0.0787 
    105 H105       23.2120  -32.8986  -40.6245 H         1 UNK         0.3055 
    106 H106       20.5935  -31.9015  -39.6063 H         1 UNK         0.1106 
    107 H107       21.9717  -32.5459  -37.6327 H         1 UNK         0.0828 
    108 H108       22.2693  -34.1331  -38.3405 H         1 UNK         0.0828 
    109 H109       20.6409  -33.6658  -37.8661 H         1 UNK         0.0828 
    110 H110       20.9039  -32.3990  -42.2040 H         1 UNK         0.2931 
    111 H111       20.0088  -33.4089  -43.9009 H         1 UNK         0.0412 
    112 H112       21.2872  -36.8254  -44.7416 H         1 UNK         0.3472 
    113 H113       19.6920  -36.1069  -44.7486 H         1 UNK         0.3472 
    114 H114       18.0849  -34.0600  -42.0824 H         1 UNK         0.0970 
    115 H115       18.6276  -35.6665  -42.4040 H         1 UNK         0.0970 
    116 H116       16.0328  -33.1817  -43.2317 H         1 UNK         0.0612 
    117 H117       15.8522  -33.1147  -44.9679 H         1 UNK         0.0612 
@<TRIPOS>BOND
     1    1    2 1    
     2    1   62 1    
     3    1   63 1    
     4    1   64 1    
     5    2    3 2    
     6    2    4 am   BACKBONE|DICT|INTERRES
     7    4    5 1    
     8    4   65 1    
     9    5    6 1    
    10    5   25 1    
    11    5   66 1    
    12    6    7 1    
    13    6   67 1    
    14    6   68 1    
    15    7    8 1    
    16    8    9 1    
    17    8   69 1    
    18    8   70 1    
    19    9   10 ar   
    20    9   14 ar   
    21   10   11 ar   
    22   10   71 1    
    23   11   12 ar   
    24   11   61 1    
    25   12   13 ar   
    26   12   72 1    
    27   13   14 ar   
    28   13   15 1    
    29   14   73 1    
    30   15   16 1    
    31   15   74 1    
    32   15   75 1    
    33   16   17 1    
    34   17   18 1    
    35   17   76 1    
    36   17   77 1    
    37   18   19 1    
    38   18   27 1    
    39   18   78 1    
    40   19   20 am   BACKBONE|DICT|INTERRES
    41   19   79 1    
    42   20   21 2    
    43   20   22 1    
    44   22   23 1    
    45   22   24 1    
    46   22   80 1    
    47   23   81 1    
    48   23   82 1    
    49   23   83 1    
    50   24   25 am   BACKBONE|DICT|INTERRES
    51   24   84 1    
    52   25   26 2    
    53   27   28 2    
    54   27   29 am   BACKBONE|DICT|INTERRES
    55   29   30 1    
    56   29   85 1    
    57   30   31 1    
    58   30   32 1    
    59   30   86 1    
    60   31   87 1    
    61   31   88 1    
    62   31   89 1    
    63   32   33 2    
    64   32   34 am   BACKBONE|DICT|INTERRES
    65   34   35 1    
    66   34   90 1    
    67   35   36 1    
    68   35   37 1    
    69   35   91 1    
    70   36   92 1    
    71   36   93 1    
    72   36   94 1    
    73   37   38 2    
    74   37   39 am   BACKBONE|DICT|INTERRES
    75   39   40 1    
    76   39   95 1    
    77   40   41 1    
    78   40   42 1    
    79   40   96 1    
    80   41   97 1    
    81   41   98 1    
    82   41   99 1    
    83   42   43 2    
    84   42   44 am   BACKBONE|DICT|INTERRES
    85   44   45 1    
    86   44  100 1    
    87   45   46 1    
    88   45   47 1    
    89   45  101 1    
    90   46  102 1    
    91   46  103 1    
    92   46  104 1    
    93   47   48 2    
    94   47   49 am   BACKBONE|DICT|INTERRES
    95   49   50 1    
    96   49  105 1    
    97   50   51 1    
    98   50   52 1    
    99   50  106 1    
   100   51  107 1    
   101   51  108 1    
   102   51  109 1    
   103   52   53 2    
   104   52   54 am   BACKBONE|DICT|INTERRES
   105   54   55 1    
   106   54  110 1    
   107   55   56 1    
   108   55   59 1    
   109   55  111 1    
   110   56   57 am   BACKBONE|DICT|INTERRES
   111   56   58 2    
   112   57  112 1    
   113   57  113 1    
   114   59   60 1    
   115   59  114 1    
   116   59  115 1    
   117   60   61 1    
   118   61  116 1    
   119   61  117 1    
@<TRIPOS>SUBSTRUCTURE
     1 UNK         1 GROUP             0       ****    0 ROOT    
