@<TRIPOS>MOLECULE
3R8
117   119    1
SMALL
USER_CHARGES


@<TRIPOS>ATOM
      1 CA         15.7580  -25.7166  -47.5009 C.3       0 UNK        -0.2013 
      2 C          16.8239  -26.7085  -47.0609 C.2       0 UNK         0.4866 
      3 O          17.4107  -26.5324  -45.9928 O.2       0 UNK        -0.5176 
      4 N          17.0657  -27.7480  -47.8748 N.am      1 UNK        -0.4884 
      5 CA         18.0474  -28.8229  -47.6588 C.3       1 UNK         0.0853 
      6 C6         17.6667  -29.7690  -46.4813 C.3       10 UNK        -0.0849 
      7 S7         16.0425  -30.5782  -46.6655 S.3       10 UNK        -0.2776 
      8 C8         14.9778  -29.6006  -45.5489 C.3       10 UNK         0.0316 
      9 C9         15.5239  -29.4675  -44.1296 C.ar      10 UNK        -0.0863 
     10 C10        15.8601  -30.6006  -43.3808 C.ar      10 UNK        -0.1009 
     11 C11        16.3339  -30.4707  -42.0717 C.ar      10 UNK        -0.0712 
     12 C12        16.4544  -29.1979  -41.5063 C.ar      10 UNK        -0.0894 
     13 C13        16.1285  -28.0563  -42.2440 C.ar      10 UNK        -0.0745 
     14 C14        15.6702  -28.1990  -43.5570 C.ar      10 UNK        -0.0972 
     15 C15        16.2087  -26.6748  -41.6049 C.3       10 UNK         0.0209 
     16 S16        17.8609  -26.2804  -40.9445 S.3       10 UNK        -0.2568 
     17 C17        18.8307  -25.9759  -42.4612 C.3       10 UNK        -0.0983 
     18 CA         20.0659  -26.9075  -42.5862 C.3       3 UNK         0.0876 
     19 N          20.4336  -27.0798  -43.9944 N.am      3 UNK        -0.4424 
     20 C          21.2774  -28.0026  -44.4696 C.2       2 UNK         0.4918 
     21 O          21.8219  -28.8599  -43.7751 O.2       2 UNK        -0.4875 
     22 CA         21.4254  -28.0329  -45.9956 C.3       2 UNK         0.0481 
     23 CB         22.6461  -28.8275  -46.4912 C.3       2 UNK        -0.1831 
     24 N          20.2021  -28.6469  -46.4871 N.am      2 UNK        -0.4498 
     25 C          19.4745  -28.2347  -47.5295 C.2       1 UNK         0.5027 
     26 O          19.8685  -27.4053  -48.3534 O.2       1 UNK        -0.4969 
     27 C          21.2556  -26.4271  -41.7152 C.2       3 UNK         0.5005 
     28 O          22.2726  -25.9725  -42.2467 O.2       3 UNK        -0.5279 
     29 N          21.0650  -26.5135  -40.3897 N.am      4 UNK        -0.4463 
     30 CA         21.9982  -26.2563  -39.2837 C.3       4 UNK         0.0283 
     31 CB         22.7580  -24.9226  -39.4349 C.3       4 UNK        -0.1875 
     32 C          22.9595  -27.4315  -39.0519 C.2       4 UNK         0.4949 
     33 O          23.3005  -28.1595  -39.9851 O.2       4 UNK        -0.5039 
     34 N          23.3915  -27.5926  -37.7937 N.am      5 UNK        -0.4663 
     35 CA         24.1950  -28.7205  -37.2982 C.3       5 UNK         0.0242 
     36 CB         24.3587  -28.5865  -35.7754 C.3       5 UNK        -0.1982 
     37 C          25.5693  -28.9001  -37.9695 C.2       5 UNK         0.5017 
     38 O          26.1121  -30.0043  -37.9332 O.2       5 UNK        -0.5012 
     39 N          26.0956  -27.8301  -38.5810 N.am      6 UNK        -0.4439 
     40 CA         27.3210  -27.8426  -39.3831 C.3       6 UNK         0.0297 
     41 CB         27.7346  -26.3957  -39.6973 C.3       6 UNK        -0.2006 
     42 C          27.1931  -28.6589  -40.6843 C.2       6 UNK         0.4892 
     43 O          28.2002  -29.1924  -41.1514 O.2       6 UNK        -0.5089 
     44 N          25.9758  -28.7385  -41.2396 N.am      7 UNK        -0.4243 
     45 CA         25.6523  -29.5001  -42.4484 C.3       7 UNK         0.0196 
     46 CB         25.0103  -28.5548  -43.4702 C.3       7 UNK        -0.2007 
     47 C          24.7394  -30.7032  -42.1522 C.2       7 UNK         0.5020 
     48 O          24.7780  -31.6780  -42.9035 O.2       7 UNK        -0.5147 
     49 N          23.9646  -30.6351  -41.0589 N.am      8 UNK        -0.4734 
     50 CA         23.1491  -31.7029  -40.4678 C.3       8 UNK         0.0238 
     51 CB         24.0563  -32.8008  -39.8726 C.3       8 UNK        -0.1912 
     52 C          22.0717  -32.2586  -41.4181 C.2       8 UNK         0.5038 
     53 O          21.8967  -33.4757  -41.5053 O.2       8 UNK        -0.5046 
     54 N          21.3730  -31.3468  -42.1065 N.am      9 UNK        -0.4200 
     55 CA         20.2961  -31.6120  -43.0782 C.3       9 UNK         0.0839 
     56 C          20.7960  -32.1541  -44.4509 C.2       9 UNK         0.5513 
     57 N          22.0959  -32.2589  -44.7027 N.am      9 UNK        -0.7519 
     58 O          19.9860  -32.4550  -45.3228 O.2       9 UNK        -0.4960 
     59 C59        19.1138  -32.4546  -42.5106 C.3       10 UNK        -0.0876 
     60 S60        18.4654  -31.8297  -40.9195 S.3       10 UNK        -0.2414 
     61 C61        16.6793  -31.7012  -41.2468 C.3       10 UNK         0.0169 
     62 H62        16.1939  -24.7243  -47.6133 H         1 UNK         0.0903 
     63 H63        15.3041  -25.9980  -48.4510 H         1 UNK         0.0903 
     64 H64        14.9686  -25.6592  -46.7519 H         1 UNK         0.0903 
     65 H65        16.5597  -27.8095  -48.7474 H         1 UNK         0.3096 
     66 H66        18.0583  -29.4194  -48.5726 H         1 UNK         0.1121 
     67 H67        18.3882  -30.5839  -46.4065 H         1 UNK         0.0849 
     68 H68        17.7123  -29.2366  -45.5306 H         1 UNK         0.0849 
     69 H69        14.8163  -28.6189  -45.9950 H         1 UNK         0.0865 
     70 H70        13.9961  -30.0737  -45.5014 H         1 UNK         0.0865 
     71 H71        15.7478  -31.5829  -43.8192 H         1 UNK         0.1346 
     72 H72        16.8009  -29.0966  -40.4868 H         1 UNK         0.1412 
     73 H73        15.4107  -27.3189  -44.1297 H         1 UNK         0.1426 
     74 H74        15.4902  -26.6328  -40.7853 H         1 UNK         0.0716 
     75 H75        15.9115  -25.8963  -42.3095 H         1 UNK         0.0716 
     76 H76        18.1660  -26.1242  -43.3143 H         1 UNK         0.0695 
     77 H77        19.1209  -24.9240  -42.4963 H         1 UNK         0.0695 
     78 H78        19.7854  -27.9009  -42.2272 H         1 UNK         0.0983 
     79 H79        20.0005  -26.4416  -44.6463 H         1 UNK         0.3095 
     80 H80        21.5070  -27.0035  -46.3515 H         1 UNK         0.0454 
     81 H81        22.6702  -29.8394  -46.0866 H         1 UNK         0.0851 
     82 H82        22.6524  -28.9038  -47.5783 H         1 UNK         0.0851 
     83 H83        23.5703  -28.3292  -46.2008 H         1 UNK         0.0851 
     84 H84        19.7959  -29.3310  -45.8647 H         1 UNK         0.2976 
     85 H85        20.1629  -26.8652  -40.0952 H         1 UNK         0.3116 
     86 H86        21.3671  -26.1747  -38.3972 H         1 UNK         0.0646 
     87 H87        23.2793  -24.6646  -38.5125 H         1 UNK         0.0847 
     88 H88        22.0791  -24.1008  -39.6625 H         1 UNK         0.0847 
     89 H89        23.5101  -24.9662  -40.2232 H         1 UNK         0.0847 
     90 H90        23.0775  -26.9344  -37.0941 H         1 UNK         0.3040 
     91 H91        23.6298  -29.6332  -37.5005 H         1 UNK         0.1015 
     92 H92        23.3926  -28.5777  -35.2702 H         1 UNK         0.0786 
     93 H93        24.8890  -27.6722  -35.5056 H         1 UNK         0.0786 
     94 H94        24.9258  -29.4244  -35.3668 H         1 UNK         0.0786 
     95 H95        25.5781  -26.9642  -38.5424 H         1 UNK         0.3172 
     96 H96        28.1101  -28.3006  -38.7829 H         1 UNK         0.0595 
     97 H97        27.9076  -25.8239  -38.7854 H         1 UNK         0.0839 
     98 H98        26.9757  -25.8755  -40.2833 H         1 UNK         0.0839 
     99 H99        28.6616  -26.3721  -40.2723 H         1 UNK         0.0839 
    100 H100       25.1970  -28.2866  -40.7731 H         1 UNK         0.2998 
    101 H101       26.5613  -29.9057  -42.8977 H         1 UNK         0.0822 
    102 H102       25.7246  -27.8123  -43.8257 H         1 UNK         0.0787 
    103 H103       24.6560  -29.1110  -44.3374 H         1 UNK         0.0787 
    104 H104       24.1605  -28.0213  -43.0436 H         1 UNK         0.0787 
    105 H105       23.8944  -29.7359  -40.5862 H         1 UNK         0.3055 
    106 H106       22.6045  -31.2459  -39.6398 H         1 UNK         0.1106 
    107 H107       24.6085  -33.3325  -40.6482 H         1 UNK         0.0828 
    108 H108       24.7799  -32.3803  -39.1739 H         1 UNK         0.0828 
    109 H109       23.4703  -33.5398  -39.3250 H         1 UNK         0.0828 
    110 H110       21.6571  -30.3777  -42.0463 H         1 UNK         0.2931 
    111 H111       19.8837  -30.6287  -43.3053 H         1 UNK         0.0412 
    112 H112       22.3976  -32.6061  -45.5986 H         1 UNK         0.3472 
    113 H113       22.7797  -32.0090  -44.0010 H         1 UNK         0.3472 
    114 H114       19.4152  -33.4935  -42.3696 H         1 UNK         0.0970 
    115 H115       18.2996  -32.4813  -43.2367 H         1 UNK         0.0970 
    116 H116       16.3297  -32.6141  -41.7315 H         1 UNK         0.0612 
    117 H117       16.1547  -31.6440  -40.2920 H         1 UNK         0.0612 
@<TRIPOS>BOND
     1    1    2 1    
     2    1   62 1    
     3    1   63 1    
     4    1   64 1    
     5    2    3 2    
     6    2    4 am   BACKBONE|DICT|INTERRES
     7    4    5 1    
     8    4   65 1    
     9    5    6 1    
    10    5   25 1    
    11    5   66 1    
    12    6    7 1    
    13    6   67 1    
    14    6   68 1    
    15    7    8 1    
    16    8    9 1    
    17    8   69 1    
    18    8   70 1    
    19    9   10 ar   
    20    9   14 ar   
    21   10   11 ar   
    22   10   71 1    
    23   11   12 ar   
    24   11   61 1    
    25   12   13 ar   
    26   12   72 1    
    27   13   14 ar   
    28   13   15 1    
    29   14   73 1    
    30   15   16 1    
    31   15   74 1    
    32   15   75 1    
    33   16   17 1    
    34   17   18 1    
    35   17   76 1    
    36   17   77 1    
    37   18   19 1    
    38   18   27 1    
    39   18   78 1    
    40   19   20 am   BACKBONE|DICT|INTERRES
    41   19   79 1    
    42   20   21 2    
    43   20   22 1    
    44   22   23 1    
    45   22   24 1    
    46   22   80 1    
    47   23   81 1    
    48   23   82 1    
    49   23   83 1    
    50   24   25 am   BACKBONE|DICT|INTERRES
    51   24   84 1    
    52   25   26 2    
    53   27   28 2    
    54   27   29 am   BACKBONE|DICT|INTERRES
    55   29   30 1    
    56   29   85 1    
    57   30   31 1    
    58   30   32 1    
    59   30   86 1    
    60   31   87 1    
    61   31   88 1    
    62   31   89 1    
    63   32   33 2    
    64   32   34 am   BACKBONE|DICT|INTERRES
    65   34   35 1    
    66   34   90 1    
    67   35   36 1    
    68   35   37 1    
    69   35   91 1    
    70   36   92 1    
    71   36   93 1    
    72   36   94 1    
    73   37   38 2    
    74   37   39 am   BACKBONE|DICT|INTERRES
    75   39   40 1    
    76   39   95 1    
    77   40   41 1    
    78   40   42 1    
    79   40   96 1    
    80   41   97 1    
    81   41   98 1    
    82   41   99 1    
    83   42   43 2    
    84   42   44 am   BACKBONE|DICT|INTERRES
    85   44   45 1    
    86   44  100 1    
    87   45   46 1    
    88   45   47 1    
    89   45  101 1    
    90   46  102 1    
    91   46  103 1    
    92   46  104 1    
    93   47   48 2    
    94   47   49 am   BACKBONE|DICT|INTERRES
    95   49   50 1    
    96   49  105 1    
    97   50   51 1    
    98   50   52 1    
    99   50  106 1    
   100   51  107 1    
   101   51  108 1    
   102   51  109 1    
   103   52   53 2    
   104   52   54 am   BACKBONE|DICT|INTERRES
   105   54   55 1    
   106   54  110 1    
   107   55   56 1    
   108   55   59 1    
   109   55  111 1    
   110   56   57 am   BACKBONE|DICT|INTERRES
   111   56   58 2    
   112   57  112 1    
   113   57  113 1    
   114   59   60 1    
   115   59  114 1    
   116   59  115 1    
   117   60   61 1    
   118   61  116 1    
   119   61  117 1    
@<TRIPOS>SUBSTRUCTURE
     1 UNK         1 GROUP             0       ****    0 ROOT    
