@<TRIPOS>MOLECULE
3R8
117   119    1
SMALL
USER_CHARGES


@<TRIPOS>ATOM
      1 CA         23.9565  -25.5480  -49.4410 C.3       0 UNK        -0.2013 
      2 C          23.6789  -26.1532  -48.0730 C.2       0 UNK         0.4866 
      3 O          24.5876  -26.7021  -47.4496 O.2       0 UNK        -0.5176 
      4 N          22.4328  -26.0566  -47.6005 N.am      1 UNK        -0.4884 
      5 CA         21.9796  -26.5486  -46.3025 C.3       1 UNK         0.0853 
      6 C6         21.6975  -28.0756  -46.3337 C.3       10 UNK        -0.0849 
      7 S7         21.2685  -28.7954  -44.7078 S.3       10 UNK        -0.2776 
      8 C8         19.5458  -29.3224  -45.0113 C.3       10 UNK         0.0316 
      9 C9         18.9070  -30.0100  -43.8080 C.ar      10 UNK        -0.0863 
     10 C10        19.5940  -31.0082  -43.1100 C.ar      10 UNK        -0.1009 
     11 C11        19.0134  -31.6410  -42.0091 C.ar      10 UNK        -0.0712 
     12 C12        17.7183  -31.2936  -41.6196 C.ar      10 UNK        -0.0894 
     13 C13        17.0091  -30.3106  -42.3164 C.ar      10 UNK        -0.0745 
     14 C14        17.6081  -29.6721  -43.4092 C.ar      10 UNK        -0.0972 
     15 C15        15.5948  -29.9496  -41.8815 C.3       10 UNK         0.0209 
     16 S16        15.5868  -28.9063  -40.3861 S.3       10 UNK        -0.2568 
     17 C17        16.0053  -27.2679  -41.0677 C.3       10 UNK        -0.0983 
     18 CA         17.5311  -26.9963  -41.0975 C.3       3 UNK         0.0876 
     19 N          17.8917  -26.1464  -42.2418 N.am      3 UNK        -0.4424 
     20 C          19.1422  -25.9692  -42.6788 C.2       2 UNK         0.4918 
     21 O          20.1344  -26.4304  -42.1087 O.2       2 UNK        -0.4875 
     22 CA         19.3327  -25.1144  -43.9341 C.3       2 UNK         0.0481 
     23 CB         19.5208  -23.6326  -43.5707 C.3       2 UNK        -0.1831 
     24 N          20.5300  -25.6212  -44.5860 N.am      2 UNK        -0.4498 
     25 C          20.7454  -25.7242  -45.8980 C.2       1 UNK         0.5027 
     26 O          20.0154  -25.2343  -46.7649 O.2       1 UNK        -0.4969 
     27 C          18.0770  -26.4818  -39.7443 C.2       3 UNK         0.5005 
     28 O          18.2764  -27.2778  -38.8262 O.2       3 UNK        -0.5279 
     29 N          18.3585  -25.1725  -39.6572 N.am      4 UNK        -0.4463 
     30 CA         19.0549  -24.5450  -38.5308 C.3       4 UNK         0.0283 
     31 CB         18.9022  -23.0183  -38.6259 C.3       4 UNK        -0.1875 
     32 C          20.5452  -24.9307  -38.4495 C.2       4 UNK         0.4949 
     33 O          21.0934  -24.9671  -37.3477 O.2       4 UNK        -0.5039 
     34 N          21.1725  -25.2037  -39.6029 N.am      5 UNK        -0.4663 
     35 CA         22.5593  -25.6647  -39.7037 C.3       5 UNK         0.0242 
     36 CB         23.1805  -25.1526  -41.0150 C.3       5 UNK        -0.1982 
     37 C          22.6455  -27.1961  -39.6251 C.2       5 UNK         0.5017 
     38 O          23.5394  -27.7131  -38.9549 O.2       5 UNK        -0.5012 
     39 N          21.7128  -27.8802  -40.3077 N.am      6 UNK        -0.4439 
     40 CA         21.5557  -29.3369  -40.3994 C.3       6 UNK         0.0297 
     41 CB         21.1460  -29.9233  -39.0315 C.3       6 UNK        -0.2006 
     42 C          22.7813  -30.0409  -41.0206 C.2       6 UNK         0.4892 
     43 O          23.1657  -31.1244  -40.5780 O.2       6 UNK        -0.5089 
     44 N          23.3844  -29.3950  -42.0272 N.am      7 UNK        -0.4243 
     45 CA         24.6527  -29.7906  -42.6423 C.3       7 UNK         0.0196 
     46 CB         25.1794  -28.6194  -43.4885 C.3       7 UNK        -0.2007 
     47 C          24.5837  -31.0712  -43.4916 C.2       7 UNK         0.5020 
     48 O          25.5663  -31.8115  -43.5365 O.2       7 UNK        -0.5147 
     49 N          23.4560  -31.2938  -44.1803 N.am      8 UNK        -0.4734 
     50 CA         23.2989  -32.3788  -45.1569 C.3       8 UNK         0.0238 
     51 CB         22.1202  -32.0634  -46.0931 C.3       8 UNK        -0.1912 
     52 C          23.1298  -33.7796  -44.5430 C.2       8 UNK         0.5038 
     53 O          23.4068  -34.7623  -45.2329 O.2       8 UNK        -0.5046 
     54 N          22.6558  -33.8599  -43.2936 N.am      9 UNK        -0.4200 
     55 CA         22.4037  -35.1288  -42.5924 C.3       9 UNK         0.0839 
     56 C          23.7153  -35.7872  -42.0891 C.2       9 UNK         0.5513 
     57 N          23.7879  -37.1111  -42.1022 N.am      9 UNK        -0.7519 
     58 O          24.6449  -35.1161  -41.6470 O.2       9 UNK        -0.4960 
     59 C59        21.3832  -34.9711  -41.4361 C.3       10 UNK        -0.0876 
     60 S60        19.7843  -34.2994  -42.0121 S.3       10 UNK        -0.2414 
     61 C61        19.8120  -32.6652  -41.2225 C.3       10 UNK         0.0169 
     62 H62        23.0638  -25.1009  -49.8780 H         1 UNK         0.0903 
     63 H63        24.7193  -24.7739  -49.3611 H         1 UNK         0.0903 
     64 H64        24.3200  -26.3155  -50.1237 H         1 UNK         0.0903 
     65 H65        21.7155  -25.5623  -48.1190 H         1 UNK         0.3096 
     66 H66        22.7660  -26.3489  -45.5703 H         1 UNK         0.1121 
     67 H67        20.9170  -28.3029  -47.0622 H         1 UNK         0.0849 
     68 H68        22.5869  -28.6003  -46.6856 H         1 UNK         0.0849 
     69 H69        18.9623  -28.4479  -45.3038 H         1 UNK         0.0865 
     70 H70        19.5226  -30.0109  -45.8570 H         1 UNK         0.0865 
     71 H71        20.5936  -31.2853  -43.4092 H         1 UNK         0.1346 
     72 H72        17.2640  -31.7796  -40.7668 H         1 UNK         0.1412 
     73 H73        17.0607  -28.9103  -43.9474 H         1 UNK         0.1426 
     74 H74        15.0434  -30.8664  -41.6680 H         1 UNK         0.0716 
     75 H75        15.0514  -29.4536  -42.6871 H         1 UNK         0.0716 
     76 H76        15.5855  -27.2167  -42.0735 H         1 UNK         0.0695 
     77 H77        15.4783  -26.5012  -40.4964 H         1 UNK         0.0695 
     78 H78        18.0444  -27.9455  -41.2641 H         1 UNK         0.0983 
     79 H79        17.1282  -25.7194  -42.7466 H         1 UNK         0.3095 
     80 H80        18.4664  -25.2370  -44.5876 H         1 UNK         0.0454 
     81 H81        20.3670  -23.4850  -42.8981 H         1 UNK         0.0851 
     82 H82        19.6947  -23.0282  -44.4611 H         1 UNK         0.0851 
     83 H83        18.6344  -23.2326  -43.0773 H         1 UNK         0.0851 
     84 H84        21.1397  -26.1233  -43.9516 H         1 UNK         0.2976 
     85 H85        18.1419  -24.5839  -40.4482 H         1 UNK         0.3116 
     86 H86        18.5764  -24.8779  -37.6071 H         1 UNK         0.0646 
     87 H87        19.3889  -22.5257  -37.7829 H         1 UNK         0.0847 
     88 H88        17.8535  -22.7213  -38.6095 H         1 UNK         0.0847 
     89 H89        19.3514  -22.6212  -39.5372 H         1 UNK         0.0847 
     90 H90        20.6350  -25.2053  -40.4596 H         1 UNK         0.3040 
     91 H91        23.1405  -25.2548  -38.8742 H         1 UNK         0.1015 
     92 H92        23.1710  -24.0633  -41.0567 H         1 UNK         0.0786 
     93 H93        22.6535  -25.5244  -41.8937 H         1 UNK         0.0786 
     94 H94        24.2206  -25.4701  -41.1018 H         1 UNK         0.0786 
     95 H95        21.0607  -27.3404  -40.8745 H         1 UNK         0.3172 
     96 H96        20.7269  -29.4974  -41.0877 H         1 UNK         0.0595 
     97 H97        20.2511  -29.4340  -38.6463 H         1 UNK         0.0839 
     98 H98        21.9367  -29.8100  -38.2895 H         1 UNK         0.0839 
     99 H99        20.9248  -30.9875  -39.1044 H         1 UNK         0.0839 
    100 H100       22.9776  -28.5270  -42.3435 H         1 UNK         0.2998 
    101 H101       25.3664  -29.9747  -41.8362 H         1 UNK         0.0822 
    102 H102       25.3238  -27.7243  -42.8829 H         1 UNK         0.0787 
    103 H103       26.1436  -28.8642  -43.9365 H         1 UNK         0.0787 
    104 H104       24.4976  -28.3688  -44.3027 H         1 UNK         0.0787 
    105 H105       22.7143  -30.6079  -44.1232 H         1 UNK         0.3055 
    106 H106       24.2050  -32.4125  -45.7667 H         1 UNK         0.1106 
    107 H107       22.0212  -32.8284  -46.8645 H         1 UNK         0.0828 
    108 H108       21.1723  -32.0241  -45.5572 H         1 UNK         0.0828 
    109 H109       22.2608  -31.1120  -46.6050 H         1 UNK         0.0828 
    110 H110       22.5145  -33.0112  -42.7679 H         1 UNK         0.2931 
    111 H111       21.9540  -35.8114  -43.3173 H         1 UNK         0.0412 
    112 H112       23.0271  -37.6718  -42.4546 H         1 UNK         0.3472 
    113 H113       24.6251  -37.5601  -41.7638 H         1 UNK         0.3472 
    114 H114       21.1823  -35.9418  -40.9787 H         1 UNK         0.0970 
    115 H115       21.7957  -34.3492  -40.6392 H         1 UNK         0.0970 
    116 H116       20.8408  -32.3174  -41.1453 H         1 UNK         0.0612 
    117 H117       19.4367  -32.7521  -40.2019 H         1 UNK         0.0612 
@<TRIPOS>BOND
     1    1    2 1    
     2    1   62 1    
     3    1   63 1    
     4    1   64 1    
     5    2    3 2    
     6    2    4 am   BACKBONE|DICT|INTERRES
     7    4    5 1    
     8    4   65 1    
     9    5    6 1    
    10    5   25 1    
    11    5   66 1    
    12    6    7 1    
    13    6   67 1    
    14    6   68 1    
    15    7    8 1    
    16    8    9 1    
    17    8   69 1    
    18    8   70 1    
    19    9   10 ar   
    20    9   14 ar   
    21   10   11 ar   
    22   10   71 1    
    23   11   12 ar   
    24   11   61 1    
    25   12   13 ar   
    26   12   72 1    
    27   13   14 ar   
    28   13   15 1    
    29   14   73 1    
    30   15   16 1    
    31   15   74 1    
    32   15   75 1    
    33   16   17 1    
    34   17   18 1    
    35   17   76 1    
    36   17   77 1    
    37   18   19 1    
    38   18   27 1    
    39   18   78 1    
    40   19   20 am   BACKBONE|DICT|INTERRES
    41   19   79 1    
    42   20   21 2    
    43   20   22 1    
    44   22   23 1    
    45   22   24 1    
    46   22   80 1    
    47   23   81 1    
    48   23   82 1    
    49   23   83 1    
    50   24   25 am   BACKBONE|DICT|INTERRES
    51   24   84 1    
    52   25   26 2    
    53   27   28 2    
    54   27   29 am   BACKBONE|DICT|INTERRES
    55   29   30 1    
    56   29   85 1    
    57   30   31 1    
    58   30   32 1    
    59   30   86 1    
    60   31   87 1    
    61   31   88 1    
    62   31   89 1    
    63   32   33 2    
    64   32   34 am   BACKBONE|DICT|INTERRES
    65   34   35 1    
    66   34   90 1    
    67   35   36 1    
    68   35   37 1    
    69   35   91 1    
    70   36   92 1    
    71   36   93 1    
    72   36   94 1    
    73   37   38 2    
    74   37   39 am   BACKBONE|DICT|INTERRES
    75   39   40 1    
    76   39   95 1    
    77   40   41 1    
    78   40   42 1    
    79   40   96 1    
    80   41   97 1    
    81   41   98 1    
    82   41   99 1    
    83   42   43 2    
    84   42   44 am   BACKBONE|DICT|INTERRES
    85   44   45 1    
    86   44  100 1    
    87   45   46 1    
    88   45   47 1    
    89   45  101 1    
    90   46  102 1    
    91   46  103 1    
    92   46  104 1    
    93   47   48 2    
    94   47   49 am   BACKBONE|DICT|INTERRES
    95   49   50 1    
    96   49  105 1    
    97   50   51 1    
    98   50   52 1    
    99   50  106 1    
   100   51  107 1    
   101   51  108 1    
   102   51  109 1    
   103   52   53 2    
   104   52   54 am   BACKBONE|DICT|INTERRES
   105   54   55 1    
   106   54  110 1    
   107   55   56 1    
   108   55   59 1    
   109   55  111 1    
   110   56   57 am   BACKBONE|DICT|INTERRES
   111   56   58 2    
   112   57  112 1    
   113   57  113 1    
   114   59   60 1    
   115   59  114 1    
   116   59  115 1    
   117   60   61 1    
   118   61  116 1    
   119   61  117 1    
@<TRIPOS>SUBSTRUCTURE
     1 UNK         1 GROUP             0       ****    0 ROOT    
