@<TRIPOS>MOLECULE
3R8
117   119    1
SMALL
USER_CHARGES


@<TRIPOS>ATOM
      1 CA         17.1370  -23.2649  -44.7617 C.3       0 UNK        -0.2013 
      2 C          16.7512  -24.2332  -45.8693 C.2       0 UNK         0.4866 
      3 O          16.7438  -23.8555  -47.0411 O.2       0 UNK        -0.5176 
      4 N          16.4402  -25.4864  -45.5171 N.am      1 UNK        -0.4884 
      5 CA         15.8914  -26.5239  -46.4059 C.3       1 UNK         0.0853 
      6 C6         15.0260  -27.5603  -45.6254 C.3       10 UNK        -0.0849 
      7 S7         13.9933  -26.8249  -44.3039 S.3       10 UNK        -0.2776 
      8 C8         14.4633  -27.7927  -42.8256 C.3       10 UNK         0.0316 
      9 C9         15.9690  -27.8674  -42.5793 C.ar      10 UNK        -0.0863 
     10 C10        16.6394  -29.0847  -42.7442 C.ar      10 UNK        -0.1009 
     11 C11        18.0082  -29.1869  -42.4834 C.ar      10 UNK        -0.0712 
     12 C12        18.7033  -28.0626  -42.0356 C.ar      10 UNK        -0.0894 
     13 C13        18.0600  -26.8269  -41.8985 C.ar      10 UNK        -0.0745 
     14 C14        16.6869  -26.7408  -42.1617 C.ar      10 UNK        -0.0972 
     15 C15        18.8230  -25.5878  -41.4323 C.3       10 UNK         0.0209 
     16 S16        20.5458  -25.4919  -42.0393 S.3       10 UNK        -0.2568 
     17 C17        20.3233  -25.2410  -43.8345 C.3       10 UNK        -0.0983 
     18 CA         20.5586  -26.5075  -44.6986 C.3       3 UNK         0.0876 
     19 N          20.1328  -26.2720  -46.0769 N.am      3 UNK        -0.4424 
     20 C          20.0808  -27.1779  -47.0633 C.2       2 UNK         0.4918 
     21 O          20.5437  -28.3176  -46.9956 O.2       2 UNK        -0.4875 
     22 CA         19.2486  -26.7369  -48.2846 C.3       2 UNK         0.0481 
     23 CB         19.2414  -27.7667  -49.4344 C.3       2 UNK        -0.1831 
     24 N          17.8878  -26.3927  -47.8426 N.am      2 UNK        -0.4498 
     25 C          17.0115  -27.2063  -47.2290 C.2       1 UNK         0.5027 
     26 O          17.1069  -28.4349  -47.2334 O.2       1 UNK        -0.4969 
     27 C          22.0064  -27.0278  -44.5894 C.2       3 UNK         0.5005 
     28 O          22.9168  -26.4603  -45.1984 O.2       3 UNK        -0.5279 
     29 N          22.1776  -28.0695  -43.7685 N.am      4 UNK        -0.4463 
     30 CA         23.4549  -28.6462  -43.3613 C.3       4 UNK         0.0283 
     31 CB         23.8328  -29.8090  -44.2986 C.3       4 UNK        -0.1875 
     32 C          23.3650  -29.0660  -41.8860 C.2       4 UNK         0.4949 
     33 O          23.8594  -30.1309  -41.5152 O.2       4 UNK        -0.5039 
     34 N          22.7196  -28.2308  -41.0559 N.am      5 UNK        -0.4663 
     35 CA         22.4759  -28.4876  -39.6290 C.3       5 UNK         0.0242 
     36 CB         21.5757  -27.3852  -39.0509 C.3       5 UNK        -0.1982 
     37 C          23.7575  -28.6369  -38.7897 C.2       5 UNK         0.5017 
     38 O          23.7483  -29.3745  -37.8047 O.2       5 UNK        -0.5012 
     39 N          24.8512  -27.9969  -39.2290 N.am      6 UNK        -0.4439 
     40 CA         26.2004  -28.1503  -38.6726 C.3       6 UNK         0.0297 
     41 CB         27.1314  -27.1075  -39.3118 C.3       6 UNK        -0.2006 
     42 C          26.7850  -29.5679  -38.8433 C.2       6 UNK         0.4892 
     43 O          27.6523  -29.9556  -38.0603 O.2       6 UNK        -0.5089 
     44 N          26.2887  -30.3156  -39.8386 N.am      7 UNK        -0.4243 
     45 CA         26.5990  -31.7234  -40.0909 C.3       7 UNK         0.0196 
     46 CB         26.9571  -31.8849  -41.5800 C.3       7 UNK        -0.2007 
     47 C          25.4175  -32.6317  -39.6966 C.2       7 UNK         0.5020 
     48 O          25.3532  -33.7706  -40.1614 O.2       7 UNK        -0.5147 
     49 N          24.4826  -32.1129  -38.8821 N.am      8 UNK        -0.4734 
     50 CA         23.2448  -32.7543  -38.4162 C.3       8 UNK         0.0238 
     51 CB         23.5686  -33.8986  -37.4320 C.3       8 UNK        -0.1912 
     52 C          22.3116  -33.1987  -39.5617 C.2       8 UNK         0.5038 
     53 O          21.6148  -34.2056  -39.4222 O.2       8 UNK        -0.5046 
     54 N          22.3329  -32.4509  -40.6747 N.am      9 UNK        -0.4200 
     55 CA         21.6405  -32.7465  -41.9394 C.3       9 UNK         0.0839 
     56 C          22.2125  -33.9774  -42.7084 C.2       9 UNK         0.5513 
     57 N          23.3846  -34.4999  -42.3637 N.am      9 UNK        -0.7519 
     58 O          21.6001  -34.4508  -43.6621 O.2       9 UNK        -0.4960 
     59 C59        20.0892  -32.7806  -41.8088 C.3       10 UNK        -0.0876 
     60 S60        19.3905  -31.2154  -41.1763 S.3       10 UNK        -0.2414 
     61 C61        18.7438  -30.4988  -42.7186 C.3       10 UNK         0.0169 
     62 H62        17.0945  -23.7317  -43.7782 H         1 UNK         0.0903 
     63 H63        18.1470  -22.8889  -44.9216 H         1 UNK         0.0903 
     64 H64        16.4563  -22.4141  -44.7587 H         1 UNK         0.0903 
     65 H65        16.4761  -25.7541  -44.5434 H         1 UNK         0.3096 
     66 H66        15.2326  -26.0332  -47.1262 H         1 UNK         0.1121 
     67 H67        14.3669  -28.0850  -46.3192 H         1 UNK         0.0849 
     68 H68        15.6505  -28.3364  -45.1845 H         1 UNK         0.0849 
     69 H69        13.9826  -27.3508  -41.9517 H         1 UNK         0.0865 
     70 H70        14.0421  -28.7949  -42.9209 H         1 UNK         0.0865 
     71 H71        16.0938  -29.9565  -43.0790 H         1 UNK         0.1346 
     72 H72        19.7535  -28.1554  -41.8025 H         1 UNK         0.1412 
     73 H73        16.1692  -25.8002  -42.0289 H         1 UNK         0.1426 
     74 H74        18.8420  -25.5890  -40.3419 H         1 UNK         0.0716 
     75 H75        18.2979  -24.6787  -41.7285 H         1 UNK         0.0716 
     76 H76        19.3124  -24.8706  -43.9964 H         1 UNK         0.0695 
     77 H77        20.9898  -24.4361  -44.1503 H         1 UNK         0.0695 
     78 H78        19.8923  -27.2902  -44.3347 H         1 UNK         0.0983 
     79 H79        19.7514  -25.3575  -46.2631 H         1 UNK         0.3095 
     80 H80        19.6983  -25.8188  -48.6655 H         1 UNK         0.0454 
     81 H81        20.2509  -27.9243  -49.8155 H         1 UNK         0.0851 
     82 H82        18.8641  -28.7393  -49.1182 H         1 UNK         0.0851 
     83 H83        18.6289  -27.4249  -50.2683 H         1 UNK         0.0851 
     84 H84        17.6791  -25.3992  -47.7822 H         1 UNK         0.2976 
     85 H85        21.3671  -28.4703  -43.3193 H         1 UNK         0.3116 
     86 H86        24.2362  -27.8855  -43.4194 H         1 UNK         0.0646 
     87 H87        24.7957  -30.2401  -44.0221 H         1 UNK         0.0847 
     88 H88        23.9154  -29.4720  -45.3319 H         1 UNK         0.0847 
     89 H89        23.0938  -30.6097  -44.2673 H         1 UNK         0.0847 
     90 H90        22.3627  -27.3596  -41.4255 H         1 UNK         0.3040 
     91 H91        21.9374  -29.4355  -39.5550 H         1 UNK         0.1015 
     92 H92        20.5989  -27.3789  -39.5338 H         1 UNK         0.0786 
     93 H93        22.0183  -26.3955  -39.1700 H         1 UNK         0.0786 
     94 H94        21.4022  -27.5396  -37.9848 H         1 UNK         0.0786 
     95 H95        24.7567  -27.4088  -40.0443 H         1 UNK         0.3172 
     96 H96        26.1433  -27.9475  -37.6010 H         1 UNK         0.0595 
     97 H97        26.7771  -26.0926  -39.1300 H         1 UNK         0.0839 
     98 H98        27.2166  -27.2475  -40.3902 H         1 UNK         0.0839 
     99 H99        28.1374  -27.1757  -38.8950 H         1 UNK         0.0839 
    100 H100       25.5462  -29.9335  -40.4150 H         1 UNK         0.2998 
    101 H101       27.4581  -32.0380  -39.4951 H         1 UNK         0.0822 
    102 H102       27.7796  -31.2282  -41.8635 H         1 UNK         0.0787 
    103 H103       27.2695  -32.9061  -41.8017 H         1 UNK         0.0787 
    104 H104       26.1072  -31.6562  -42.2246 H         1 UNK         0.0787 
    105 H105       24.6101  -31.1594  -38.5616 H         1 UNK         0.3055 
    106 H106       22.6928  -31.9916  -37.8643 H         1 UNK         0.1106 
    107 H107       24.0687  -34.7301  -37.9295 H         1 UNK         0.0828 
    108 H108       24.2125  -33.5553  -36.6224 H         1 UNK         0.0828 
    109 H109       22.6600  -34.2925  -36.9749 H         1 UNK         0.0828 
    110 H110       22.9689  -31.6609  -40.7196 H         1 UNK         0.2931 
    111 H111       21.8779  -31.9014  -42.5853 H         1 UNK         0.0412 
    112 H112       23.7406  -35.2867  -42.8825 H         1 UNK         0.3472 
    113 H113       23.9159  -34.1346  -41.5812 H         1 UNK         0.3472 
    114 H114       19.7751  -33.5901  -41.1490 H         1 UNK         0.0970 
    115 H115       19.6293  -33.0023  -42.7732 H         1 UNK         0.0970 
    116 H116       18.0821  -31.2224  -43.1974 H         1 UNK         0.0612 
    117 H117       19.5703  -30.3296  -43.4103 H         1 UNK         0.0612 
@<TRIPOS>BOND
     1    1    2 1    
     2    1   62 1    
     3    1   63 1    
     4    1   64 1    
     5    2    3 2    
     6    2    4 am   BACKBONE|DICT|INTERRES
     7    4    5 1    
     8    4   65 1    
     9    5    6 1    
    10    5   25 1    
    11    5   66 1    
    12    6    7 1    
    13    6   67 1    
    14    6   68 1    
    15    7    8 1    
    16    8    9 1    
    17    8   69 1    
    18    8   70 1    
    19    9   10 ar   
    20    9   14 ar   
    21   10   11 ar   
    22   10   71 1    
    23   11   12 ar   
    24   11   61 1    
    25   12   13 ar   
    26   12   72 1    
    27   13   14 ar   
    28   13   15 1    
    29   14   73 1    
    30   15   16 1    
    31   15   74 1    
    32   15   75 1    
    33   16   17 1    
    34   17   18 1    
    35   17   76 1    
    36   17   77 1    
    37   18   19 1    
    38   18   27 1    
    39   18   78 1    
    40   19   20 am   BACKBONE|DICT|INTERRES
    41   19   79 1    
    42   20   21 2    
    43   20   22 1    
    44   22   23 1    
    45   22   24 1    
    46   22   80 1    
    47   23   81 1    
    48   23   82 1    
    49   23   83 1    
    50   24   25 am   BACKBONE|DICT|INTERRES
    51   24   84 1    
    52   25   26 2    
    53   27   28 2    
    54   27   29 am   BACKBONE|DICT|INTERRES
    55   29   30 1    
    56   29   85 1    
    57   30   31 1    
    58   30   32 1    
    59   30   86 1    
    60   31   87 1    
    61   31   88 1    
    62   31   89 1    
    63   32   33 2    
    64   32   34 am   BACKBONE|DICT|INTERRES
    65   34   35 1    
    66   34   90 1    
    67   35   36 1    
    68   35   37 1    
    69   35   91 1    
    70   36   92 1    
    71   36   93 1    
    72   36   94 1    
    73   37   38 2    
    74   37   39 am   BACKBONE|DICT|INTERRES
    75   39   40 1    
    76   39   95 1    
    77   40   41 1    
    78   40   42 1    
    79   40   96 1    
    80   41   97 1    
    81   41   98 1    
    82   41   99 1    
    83   42   43 2    
    84   42   44 am   BACKBONE|DICT|INTERRES
    85   44   45 1    
    86   44  100 1    
    87   45   46 1    
    88   45   47 1    
    89   45  101 1    
    90   46  102 1    
    91   46  103 1    
    92   46  104 1    
    93   47   48 2    
    94   47   49 am   BACKBONE|DICT|INTERRES
    95   49   50 1    
    96   49  105 1    
    97   50   51 1    
    98   50   52 1    
    99   50  106 1    
   100   51  107 1    
   101   51  108 1    
   102   51  109 1    
   103   52   53 2    
   104   52   54 am   BACKBONE|DICT|INTERRES
   105   54   55 1    
   106   54  110 1    
   107   55   56 1    
   108   55   59 1    
   109   55  111 1    
   110   56   57 am   BACKBONE|DICT|INTERRES
   111   56   58 2    
   112   57  112 1    
   113   57  113 1    
   114   59   60 1    
   115   59  114 1    
   116   59  115 1    
   117   60   61 1    
   118   61  116 1    
   119   61  117 1    
@<TRIPOS>SUBSTRUCTURE
     1 UNK         1 GROUP             0       ****    0 ROOT    
