@<TRIPOS>MOLECULE
3R8
117   119    1
SMALL
USER_CHARGES


@<TRIPOS>ATOM
      1 CA         15.2306  -23.5798  -41.8765 C.3       0 UNK        -0.2013 
      2 C          14.9164  -23.9096  -43.3281 C.2       0 UNK         0.4866 
      3 O          13.7757  -23.7463  -43.7616 O.2       0 UNK        -0.5176 
      4 N          15.9197  -24.3719  -44.0792 N.am      1 UNK        -0.4884 
      5 CA         15.8479  -24.7063  -45.5013 C.3       1 UNK         0.0853 
      6 C6         15.0125  -25.9944  -45.7937 C.3       10 UNK        -0.0849 
      7 S7         15.8377  -27.5987  -45.4900 S.3       10 UNK        -0.2776 
      8 C8         15.5853  -27.8654  -43.7092 C.3       10 UNK         0.0316 
      9 C9         16.8878  -28.3125  -43.0641 C.ar      10 UNK        -0.0863 
     10 C10        17.3412  -29.6240  -43.2423 C.ar      10 UNK        -0.1009 
     11 C11        18.5608  -30.0332  -42.6966 C.ar      10 UNK        -0.0712 
     12 C12        19.3145  -29.1253  -41.9498 C.ar      10 UNK        -0.0894 
     13 C13        18.8741  -27.8120  -41.7614 C.ar      10 UNK        -0.0745 
     14 C14        17.6570  -27.4108  -42.3211 C.ar      10 UNK        -0.0972 
     15 C15        19.7269  -26.8259  -40.9748 C.3       10 UNK         0.0209 
     16 S16        21.3925  -26.6321  -41.6928 S.3       10 UNK        -0.2568 
     17 C17        21.0211  -25.8171  -43.2815 C.3       10 UNK        -0.0983 
     18 CA         20.8141  -26.8008  -44.4627 C.3       3 UNK         0.0876 
     19 N          20.1429  -26.1169  -45.5690 N.am      3 UNK        -0.4424 
     20 C          19.6476  -26.6828  -46.6755 C.2       2 UNK         0.4918 
     21 O          19.7044  -27.8887  -46.9227 O.2       2 UNK        -0.4875 
     22 CA         18.9067  -25.7266  -47.6346 C.3       2 UNK         0.0481 
     23 CB         18.7926  -26.2997  -49.0587 C.3       2 UNK        -0.1831 
     24 N          17.5630  -25.4319  -47.1296 N.am      2 UNK        -0.4498 
     25 C          17.2904  -24.6801  -46.0538 C.2       1 UNK         0.5027 
     26 O          18.1452  -23.9993  -45.4762 O.2       1 UNK        -0.4969 
     27 C          22.1288  -27.4783  -44.9061 C.2       3 UNK         0.5005 
     28 O          22.8033  -26.9768  -45.8109 O.2       3 UNK        -0.5279 
     29 N          22.4716  -28.5961  -44.2539 N.am      4 UNK        -0.4463 
     30 CA         23.6471  -29.4094  -44.5445 C.3       4 UNK         0.0283 
     31 CB         23.2464  -30.5693  -45.4721 C.3       4 UNK        -0.1875 
     32 C          24.2484  -29.9476  -43.2430 C.2       4 UNK         0.4949 
     33 O          23.5156  -30.1959  -42.2801 O.2       4 UNK        -0.5039 
     34 N          25.5751  -30.1426  -43.2691 N.am      5 UNK        -0.4663 
     35 CA         26.4168  -30.7677  -42.2393 C.3       5 UNK         0.0242 
     36 CB         26.1629  -32.2884  -42.2096 C.3       5 UNK        -0.1982 
     37 C          26.2917  -30.1212  -40.8465 C.2       5 UNK         0.5017 
     38 O          26.2592  -30.8341  -39.8441 O.2       5 UNK        -0.5012 
     39 N          26.1870  -28.7839  -40.8094 N.am      6 UNK        -0.4439 
     40 CA         25.9988  -27.9571  -39.6073 C.3       6 UNK         0.0297 
     41 CB         27.2902  -27.9288  -38.7617 C.3       6 UNK        -0.2006 
     42 C          24.7540  -28.3626  -38.7876 C.2       6 UNK         0.4892 
     43 O          24.8153  -28.4239  -37.5588 O.2       6 UNK        -0.5089 
     44 N          23.6597  -28.6508  -39.5068 N.am      7 UNK        -0.4243 
     45 CA         22.3507  -29.1052  -39.0261 C.3       7 UNK         0.0196 
     46 CB         21.7563  -28.1579  -37.9612 C.3       7 UNK        -0.2007 
     47 C          22.2961  -30.5851  -38.6045 C.2       7 UNK         0.5020 
     48 O          21.2630  -31.0124  -38.0880 O.2       7 UNK        -0.5147 
     49 N          23.3597  -31.3642  -38.8561 N.am      8 UNK        -0.4734 
     50 CA         23.3528  -32.8201  -38.6636 C.3       8 UNK         0.0238 
     51 CB         24.7892  -33.3295  -38.4652 C.3       8 UNK        -0.1912 
     52 C          22.6723  -33.5705  -39.8235 C.2       8 UNK         0.5038 
     53 O          22.2772  -34.7210  -39.6327 O.2       8 UNK        -0.5046 
     54 N          22.5606  -32.9233  -40.9935 N.am      9 UNK        -0.4200 
     55 CA         21.9361  -33.4318  -42.2289 C.3       9 UNK         0.0839 
     56 C          22.6943  -34.5965  -42.9356 C.2       9 UNK         0.5513 
     57 N          23.8828  -34.9910  -42.4960 N.am      9 UNK        -0.7519 
     58 O          22.2100  -35.1330  -43.9286 O.2       9 UNK        -0.4960 
     59 C59        20.4157  -33.7363  -42.0766 C.3       10 UNK        -0.0876 
     60 S60        19.4639  -32.3267  -41.4180 S.3       10 UNK        -0.2414 
     61 C61        19.0980  -31.4323  -42.9594 C.3       10 UNK         0.0169 
     62 H62        16.2778  -23.7596  -41.6338 H         1 UNK         0.0903 
     63 H63        15.0111  -22.5318  -41.6739 H         1 UNK         0.0903 
     64 H64        14.6193  -24.1907  -41.2128 H         1 UNK         0.0903 
     65 H65        16.8625  -24.4002  -43.7115 H         1 UNK         0.3096 
     66 H66        15.3426  -23.8723  -45.9939 H         1 UNK         0.1121 
     67 H67        14.0712  -25.9754  -45.2429 H         1 UNK         0.0849 
     68 H68        14.7130  -25.9884  -46.8429 H         1 UNK         0.0849 
     69 H69        15.2128  -26.9589  -43.2318 H         1 UNK         0.0865 
     70 H70        14.8159  -28.6250  -43.5634 H         1 UNK         0.0865 
     71 H71        16.7562  -30.3146  -43.8345 H         1 UNK         0.1346 
     72 H72        20.2605  -29.4419  -41.5366 H         1 UNK         0.1412 
     73 H73        17.3140  -26.3942  -42.1897 H         1 UNK         0.1426 
     74 H74        19.8210  -27.1847  -39.9498 H         1 UNK         0.0716 
     75 H75        19.2462  -25.8484  -40.9137 H         1 UNK         0.0716 
     76 H76        21.8240  -25.1119  -43.5050 H         1 UNK         0.0695 
     77 H77        20.1267  -25.2077  -43.1399 H         1 UNK         0.0695 
     78 H78        20.1295  -27.5913  -44.1543 H         1 UNK         0.0983 
     79 H79        19.9800  -25.1255  -45.4464 H         1 UNK         0.3095 
     80 H80        19.4749  -24.7958  -47.6944 H         1 UNK         0.0454 
     81 H81        18.2021  -27.2166  -49.0822 H         1 UNK         0.0851 
     82 H82        19.7778  -26.5368  -49.4622 H         1 UNK         0.0851 
     83 H83        18.3286  -25.5847  -49.7381 H         1 UNK         0.0851 
     84 H84        16.8177  -26.0023  -47.5032 H         1 UNK         0.2976 
     85 H85        21.9322  -28.8979  -43.4527 H         1 UNK         0.3116 
     86 H86        24.4047  -28.7997  -45.0419 H         1 UNK         0.0646 
     87 H87        22.4829  -31.2026  -45.0188 H         1 UNK         0.0847 
     88 H88        24.1029  -31.2043  -45.7024 H         1 UNK         0.0847 
     89 H89        22.8534  -30.2001  -46.4196 H         1 UNK         0.0847 
     90 H90        26.0656  -29.8813  -44.1143 H         1 UNK         0.3040 
     91 H91        27.4527  -30.6138  -42.5461 H         1 UNK         0.1015 
     92 H92        25.1560  -32.5135  -41.8639 H         1 UNK         0.0786 
     93 H93        26.8610  -32.7931  -41.5405 H         1 UNK         0.0786 
     94 H94        26.2845  -32.7329  -43.1974 H         1 UNK         0.0786 
     95 H95        26.2041  -28.2892  -41.6908 H         1 UNK         0.3172 
     96 H96        25.8124  -26.9409  -39.9579 H         1 UNK         0.0595 
     97 H97        27.1986  -27.2281  -37.9308 H         1 UNK         0.0839 
     98 H98        28.1478  -27.6138  -39.3558 H         1 UNK         0.0839 
     99 H99        27.5172  -28.9074  -38.3370 H         1 UNK         0.0839 
    100 H100       23.7479  -28.6245  -40.5150 H         1 UNK         0.2998 
    101 H101       21.7033  -29.0427  -39.8980 H         1 UNK         0.0822 
    102 H102       20.7066  -28.3897  -37.7771 H         1 UNK         0.0787 
    103 H103       22.2741  -28.2417  -37.0058 H         1 UNK         0.0787 
    104 H104       21.8057  -27.1175  -38.2827 H         1 UNK         0.0787 
    105 H105       24.2013  -30.9545  -39.2473 H         1 UNK         0.3055 
    106 H106       22.7911  -33.0507  -37.7552 H         1 UNK         0.1106 
    107 H107       24.7907  -34.3832  -38.1834 H         1 UNK         0.0828 
    108 H108       25.3824  -33.2402  -39.3748 H         1 UNK         0.0828 
    109 H109       25.3019  -32.7816  -37.6744 H         1 UNK         0.0828 
    110 H110       22.9248  -31.9809  -41.0593 H         1 UNK         0.2931 
    111 H111       22.0230  -32.6012  -42.9295 H         1 UNK         0.0412 
    112 H112       24.2859  -34.5778  -41.6721 H         1 UNK         0.3472 
    113 H113       24.3615  -35.7376  -42.9748 H         1 UNK         0.3472 
    114 H114       19.9799  -34.0271  -43.0343 H         1 UNK         0.0970 
    115 H115       20.2644  -34.5889  -41.4129 H         1 UNK         0.0970 
    116 H116       18.3915  -32.0184  -43.5493 H         1 UNK         0.0612 
    117 H117       20.0078  -31.3453  -43.5549 H         1 UNK         0.0612 
@<TRIPOS>BOND
     1    1    2 1    
     2    1   62 1    
     3    1   63 1    
     4    1   64 1    
     5    2    3 2    
     6    2    4 am   BACKBONE|DICT|INTERRES
     7    4    5 1    
     8    4   65 1    
     9    5    6 1    
    10    5   25 1    
    11    5   66 1    
    12    6    7 1    
    13    6   67 1    
    14    6   68 1    
    15    7    8 1    
    16    8    9 1    
    17    8   69 1    
    18    8   70 1    
    19    9   10 ar   
    20    9   14 ar   
    21   10   11 ar   
    22   10   71 1    
    23   11   12 ar   
    24   11   61 1    
    25   12   13 ar   
    26   12   72 1    
    27   13   14 ar   
    28   13   15 1    
    29   14   73 1    
    30   15   16 1    
    31   15   74 1    
    32   15   75 1    
    33   16   17 1    
    34   17   18 1    
    35   17   76 1    
    36   17   77 1    
    37   18   19 1    
    38   18   27 1    
    39   18   78 1    
    40   19   20 am   BACKBONE|DICT|INTERRES
    41   19   79 1    
    42   20   21 2    
    43   20   22 1    
    44   22   23 1    
    45   22   24 1    
    46   22   80 1    
    47   23   81 1    
    48   23   82 1    
    49   23   83 1    
    50   24   25 am   BACKBONE|DICT|INTERRES
    51   24   84 1    
    52   25   26 2    
    53   27   28 2    
    54   27   29 am   BACKBONE|DICT|INTERRES
    55   29   30 1    
    56   29   85 1    
    57   30   31 1    
    58   30   32 1    
    59   30   86 1    
    60   31   87 1    
    61   31   88 1    
    62   31   89 1    
    63   32   33 2    
    64   32   34 am   BACKBONE|DICT|INTERRES
    65   34   35 1    
    66   34   90 1    
    67   35   36 1    
    68   35   37 1    
    69   35   91 1    
    70   36   92 1    
    71   36   93 1    
    72   36   94 1    
    73   37   38 2    
    74   37   39 am   BACKBONE|DICT|INTERRES
    75   39   40 1    
    76   39   95 1    
    77   40   41 1    
    78   40   42 1    
    79   40   96 1    
    80   41   97 1    
    81   41   98 1    
    82   41   99 1    
    83   42   43 2    
    84   42   44 am   BACKBONE|DICT|INTERRES
    85   44   45 1    
    86   44  100 1    
    87   45   46 1    
    88   45   47 1    
    89   45  101 1    
    90   46  102 1    
    91   46  103 1    
    92   46  104 1    
    93   47   48 2    
    94   47   49 am   BACKBONE|DICT|INTERRES
    95   49   50 1    
    96   49  105 1    
    97   50   51 1    
    98   50   52 1    
    99   50  106 1    
   100   51  107 1    
   101   51  108 1    
   102   51  109 1    
   103   52   53 2    
   104   52   54 am   BACKBONE|DICT|INTERRES
   105   54   55 1    
   106   54  110 1    
   107   55   56 1    
   108   55   59 1    
   109   55  111 1    
   110   56   57 am   BACKBONE|DICT|INTERRES
   111   56   58 2    
   112   57  112 1    
   113   57  113 1    
   114   59   60 1    
   115   59  114 1    
   116   59  115 1    
   117   60   61 1    
   118   61  116 1    
   119   61  117 1    
@<TRIPOS>SUBSTRUCTURE
     1 UNK         1 GROUP             0       ****    0 ROOT    
