@<TRIPOS>MOLECULE
3R8
117   119    1
SMALL
USER_CHARGES


@<TRIPOS>ATOM
      1 CA         17.8327  -25.3987  -39.4665 C.3       0 UNK        -0.2013 
      2 C          17.6781  -24.8883  -40.8917 C.2       0 UNK         0.4866 
      3 O          17.5895  -23.6783  -41.1043 O.2       0 UNK        -0.5176 
      4 N          17.6371  -25.8034  -41.8676 N.am      1 UNK        -0.4884 
      5 CA         17.5684  -25.5019  -43.3021 C.3       1 UNK         0.0853 
      6 C6         17.2484  -26.7631  -44.1414 C.3       10 UNK        -0.0849 
      7 S7         15.7362  -27.6596  -43.6433 S.3       10 UNK        -0.2776 
      8 C8         16.3854  -29.2996  -43.1341 C.3       10 UNK         0.0316 
      9 C9         17.2488  -30.0460  -44.1596 C.ar      10 UNK        -0.0863 
     10 C10        17.9959  -31.1493  -43.7321 C.ar      10 UNK        -0.1009 
     11 C11        18.8309  -31.8397  -44.6178 C.ar      10 UNK        -0.0712 
     12 C12        18.9413  -31.3991  -45.9410 C.ar      10 UNK        -0.0894 
     13 C13        18.1895  -30.3105  -46.3923 C.ar      10 UNK        -0.0745 
     14 C14        17.3210  -29.6684  -45.5062 C.ar      10 UNK        -0.0972 
     15 C15        18.2732  -29.8550  -47.8455 C.3       10 UNK         0.0209 
     16 S16        18.4873  -28.0470  -48.0164 S.3       10 UNK        -0.2568 
     17 C17        20.2956  -27.8493  -48.2043 C.3       10 UNK        -0.0983 
     18 CA         21.0230  -27.2140  -46.9869 C.3       3 UNK         0.0876 
     19 N          20.3486  -25.9981  -46.5226 N.am      3 UNK        -0.4424 
     20 C          20.9460  -24.8471  -46.1880 C.2       2 UNK         0.4918 
     21 O          22.1609  -24.6593  -46.2478 O.2       2 UNK        -0.4875 
     22 CA         20.0282  -23.7162  -45.6778 C.3       2 UNK         0.0481 
     23 CB         19.5871  -22.8182  -46.8443 C.3       2 UNK        -0.1831 
     24 N          18.8427  -24.2041  -44.9592 N.am      2 UNK        -0.4498 
     25 C          18.8949  -24.8996  -43.8138 C.2       1 UNK         0.5027 
     26 O          19.9512  -25.1545  -43.2313 O.2       1 UNK        -0.4969 
     27 C          21.2803  -28.2338  -45.8547 C.2       3 UNK         0.5005 
     28 O          21.7616  -29.3293  -46.1502 O.2       3 UNK        -0.5279 
     29 N          20.9848  -27.8847  -44.5906 N.am      4 UNK        -0.4463 
     30 CA         21.2216  -28.7521  -43.4353 C.3       4 UNK         0.0283 
     31 CB         20.4233  -28.2567  -42.2179 C.3       4 UNK        -0.1875 
     32 C          22.7230  -28.8344  -43.1187 C.2       4 UNK         0.4949 
     33 O          23.2884  -27.8680  -42.6026 O.2       4 UNK        -0.5039 
     34 N          23.3348  -29.9789  -43.4487 N.am      5 UNK        -0.4663 
     35 CA         24.7566  -30.2872  -43.2784 C.3       5 UNK         0.0242 
     36 CB         25.0288  -31.6989  -43.8262 C.3       5 UNK        -0.1982 
     37 C          25.2058  -30.1614  -41.8129 C.2       5 UNK         0.5017 
     38 O          24.8894  -31.0349  -41.0043 O.2       5 UNK        -0.5012 
     39 N          25.8943  -29.0513  -41.5047 N.am      6 UNK        -0.4439 
     40 CA         26.3478  -28.6272  -40.1730 C.3       6 UNK         0.0297 
     41 CB         27.4553  -29.5671  -39.6497 C.3       6 UNK        -0.2006 
     42 C          25.1938  -28.4488  -39.1631 C.2       6 UNK         0.4892 
     43 O          25.3870  -28.6935  -37.9705 O.2       6 UNK        -0.5089 
     44 N          24.0093  -28.0560  -39.6613 N.am      7 UNK        -0.4243 
     45 CA         22.7177  -27.9162  -38.9709 C.3       7 UNK         0.0196 
     46 CB         22.7789  -26.8826  -37.8297 C.3       7 UNK        -0.2007 
     47 C          22.1202  -29.2516  -38.4899 C.2       7 UNK         0.5020 
     48 O          20.9514  -29.5235  -38.7650 O.2       7 UNK        -0.5147 
     49 N          22.9253  -30.0852  -37.8215 N.am      8 UNK        -0.4734 
     50 CA         22.5942  -31.4375  -37.3612 C.3       8 UNK         0.0238 
     51 CB         23.5464  -31.8120  -36.2100 C.3       8 UNK        -0.1912 
     52 C          22.6244  -32.4620  -38.5154 C.2       8 UNK         0.5038 
     53 O          23.3558  -33.4522  -38.4497 O.2       8 UNK        -0.5046 
     54 N          21.8386  -32.1823  -39.5596 N.am      9 UNK        -0.4200 
     55 CA         21.6909  -32.9844  -40.7782 C.3       9 UNK         0.0839 
     56 C          21.0421  -34.3693  -40.5068 C.2       9 UNK         0.5513 
     57 N          21.4892  -35.4119  -41.1926 N.am      9 UNK        -0.7519 
     58 O          20.1148  -34.4961  -39.7095 O.2       9 UNK        -0.4960 
     59 C59        20.9056  -32.1749  -41.8394 C.3       10 UNK        -0.0876 
     60 S60        21.2523  -32.7040  -43.5505 S.3       10 UNK        -0.2414 
     61 C61        19.5834  -33.0855  -44.1645 C.3       10 UNK         0.0169 
     62 H62        18.7340  -24.9835  -39.0161 H         1 UNK         0.0903 
     63 H63        16.9780  -25.0935  -38.8634 H         1 UNK         0.0903 
     64 H64        17.9056  -26.4855  -39.4272 H         1 UNK         0.0903 
     65 H65        17.7035  -26.7816  -41.6319 H         1 UNK         0.3096 
     66 H66        16.7760  -24.7650  -43.4527 H         1 UNK         0.1121 
     67 H67        18.0958  -27.4482  -44.1233 H         1 UNK         0.0849 
     68 H68        17.1164  -26.4910  -45.1905 H         1 UNK         0.0849 
     69 H69        16.9584  -29.1660  -42.2156 H         1 UNK         0.0865 
     70 H70        15.5374  -29.9342  -42.8732 H         1 UNK         0.0865 
     71 H71        17.9170  -31.4777  -42.7054 H         1 UNK         0.1346 
     72 H72        19.5990  -31.9191  -46.6240 H         1 UNK         0.1412 
     73 H73        16.7196  -28.8519  -45.8772 H         1 UNK         0.1426 
     74 H74        17.3434  -30.1367  -48.3413 H         1 UNK         0.0716 
     75 H75        19.0696  -30.3776  -48.3770 H         1 UNK         0.0716 
     76 H76        20.4438  -27.1998  -49.0683 H         1 UNK         0.0695 
     77 H77        20.7518  -28.7983  -48.4910 H         1 UNK         0.0695 
     78 H78        22.0212  -26.9416  -47.3370 H         1 UNK         0.0983 
     79 H79        19.3423  -26.0560  -46.4743 H         1 UNK         0.3095 
     80 H80        20.6113  -23.1076  -44.9834 H         1 UNK         0.0454 
     81 H81        20.4514  -22.4216  -47.3790 H         1 UNK         0.0851 
     82 H82        19.0085  -21.9640  -46.4921 H         1 UNK         0.0851 
     83 H83        18.9789  -23.3620  -47.5682 H         1 UNK         0.0851 
     84 H84        17.9462  -24.0283  -45.3913 H         1 UNK         0.2976 
     85 H85        20.6824  -26.9393  -44.3941 H         1 UNK         0.3116 
     86 H86        20.8507  -29.7471  -43.6866 H         1 UNK         0.0646 
     87 H87        20.7073  -27.2457  -41.9265 H         1 UNK         0.0847 
     88 H88        19.3533  -28.2704  -42.4107 H         1 UNK         0.0847 
     89 H89        20.5944  -28.8964  -41.3533 H         1 UNK         0.0847 
     90 H90        22.7749  -30.7040  -43.8781 H         1 UNK         0.3040 
     91 H91        25.3241  -29.5775  -43.8840 H         1 UNK         0.1015 
     92 H92        26.0827  -31.9609  -43.7231 H         1 UNK         0.0786 
     93 H93        24.7791  -31.7694  -44.8851 H         1 UNK         0.0786 
     94 H94        24.4512  -32.4571  -43.2953 H         1 UNK         0.0786 
     95 H95        26.0523  -28.3800  -42.2446 H         1 UNK         0.3172 
     96 H96        26.7889  -27.6378  -40.3019 H         1 UNK         0.0595 
     97 H97        27.0701  -30.5638  -39.4316 H         1 UNK         0.0839 
     98 H98        27.8944  -29.1811  -38.7289 H         1 UNK         0.0839 
     99 H99        28.2640  -29.6705  -40.3729 H         1 UNK         0.0839 
    100 H100       23.9589  -27.9215  -40.6675 H         1 UNK         0.2998 
    101 H101       22.0324  -27.5223  -39.7227 H         1 UNK         0.0822 
    102 H102       21.7872  -26.7136  -37.4081 H         1 UNK         0.0787 
    103 H103       23.1475  -25.9208  -38.1864 H         1 UNK         0.0787 
    104 H104       23.4243  -27.2073  -37.0132 H         1 UNK         0.0787 
    105 H105       23.8858  -29.7770  -37.6871 H         1 UNK         0.3055 
    106 H106       21.5762  -31.4326  -36.9650 H         1 UNK         0.1106 
    107 H107       23.3102  -32.7994  -35.8110 H         1 UNK         0.0828 
    108 H108       24.5865  -31.8311  -36.5383 H         1 UNK         0.0828 
    109 H109       23.4686  -31.1043  -35.3845 H         1 UNK         0.0828 
    110 H110       21.2746  -31.3422  -39.4953 H         1 UNK         0.2931 
    111 H111       22.7041  -33.1473  -41.1526 H         1 UNK         0.0412 
    112 H112       22.2299  -35.3061  -41.8684 H         1 UNK         0.3472 
    113 H113       21.0726  -36.3173  -41.0413 H         1 UNK         0.3472 
    114 H114       19.8358  -32.1961  -41.6290 H         1 UNK         0.0970 
    115 H115       21.1942  -31.1278  -41.7792 H         1 UNK         0.0970 
    116 H116       19.0186  -33.6195  -43.3987 H         1 UNK         0.0612 
    117 H117       19.6768  -33.7780  -45.0024 H         1 UNK         0.0612 
@<TRIPOS>BOND
     1    1    2 1    
     2    1   62 1    
     3    1   63 1    
     4    1   64 1    
     5    2    3 2    
     6    2    4 am   BACKBONE|DICT|INTERRES
     7    4    5 1    
     8    4   65 1    
     9    5    6 1    
    10    5   25 1    
    11    5   66 1    
    12    6    7 1    
    13    6   67 1    
    14    6   68 1    
    15    7    8 1    
    16    8    9 1    
    17    8   69 1    
    18    8   70 1    
    19    9   10 ar   
    20    9   14 ar   
    21   10   11 ar   
    22   10   71 1    
    23   11   12 ar   
    24   11   61 1    
    25   12   13 ar   
    26   12   72 1    
    27   13   14 ar   
    28   13   15 1    
    29   14   73 1    
    30   15   16 1    
    31   15   74 1    
    32   15   75 1    
    33   16   17 1    
    34   17   18 1    
    35   17   76 1    
    36   17   77 1    
    37   18   19 1    
    38   18   27 1    
    39   18   78 1    
    40   19   20 am   BACKBONE|DICT|INTERRES
    41   19   79 1    
    42   20   21 2    
    43   20   22 1    
    44   22   23 1    
    45   22   24 1    
    46   22   80 1    
    47   23   81 1    
    48   23   82 1    
    49   23   83 1    
    50   24   25 am   BACKBONE|DICT|INTERRES
    51   24   84 1    
    52   25   26 2    
    53   27   28 2    
    54   27   29 am   BACKBONE|DICT|INTERRES
    55   29   30 1    
    56   29   85 1    
    57   30   31 1    
    58   30   32 1    
    59   30   86 1    
    60   31   87 1    
    61   31   88 1    
    62   31   89 1    
    63   32   33 2    
    64   32   34 am   BACKBONE|DICT|INTERRES
    65   34   35 1    
    66   34   90 1    
    67   35   36 1    
    68   35   37 1    
    69   35   91 1    
    70   36   92 1    
    71   36   93 1    
    72   36   94 1    
    73   37   38 2    
    74   37   39 am   BACKBONE|DICT|INTERRES
    75   39   40 1    
    76   39   95 1    
    77   40   41 1    
    78   40   42 1    
    79   40   96 1    
    80   41   97 1    
    81   41   98 1    
    82   41   99 1    
    83   42   43 2    
    84   42   44 am   BACKBONE|DICT|INTERRES
    85   44   45 1    
    86   44  100 1    
    87   45   46 1    
    88   45   47 1    
    89   45  101 1    
    90   46  102 1    
    91   46  103 1    
    92   46  104 1    
    93   47   48 2    
    94   47   49 am   BACKBONE|DICT|INTERRES
    95   49   50 1    
    96   49  105 1    
    97   50   51 1    
    98   50   52 1    
    99   50  106 1    
   100   51  107 1    
   101   51  108 1    
   102   51  109 1    
   103   52   53 2    
   104   52   54 am   BACKBONE|DICT|INTERRES
   105   54   55 1    
   106   54  110 1    
   107   55   56 1    
   108   55   59 1    
   109   55  111 1    
   110   56   57 am   BACKBONE|DICT|INTERRES
   111   56   58 2    
   112   57  112 1    
   113   57  113 1    
   114   59   60 1    
   115   59  114 1    
   116   59  115 1    
   117   60   61 1    
   118   61  116 1    
   119   61  117 1    
@<TRIPOS>SUBSTRUCTURE
     1 UNK         1 GROUP             0       ****    0 ROOT    
