@<TRIPOS>MOLECULE
3R8
117   119    1
SMALL
USER_CHARGES


@<TRIPOS>ATOM
      1 CA         14.0444  -23.5571  -44.6904 C.3       0 UNK        -0.2013 
      2 C          15.3254  -24.3665  -44.8195 C.2       0 UNK         0.4866 
      3 O          15.9127  -24.4191  -45.9003 O.2       0 UNK        -0.5176 
      4 N          15.7801  -24.9839  -43.7221 N.am      1 UNK        -0.4884 
      5 CA         16.9635  -25.8541  -43.6397 C.3       1 UNK         0.0853 
      6 C6         16.8558  -26.8367  -42.4428 C.3       10 UNK        -0.0849 
      7 S7         15.4972  -28.0334  -42.6843 S.3       10 UNK        -0.2776 
      8 C8         16.2978  -29.6333  -42.2987 C.3       10 UNK         0.0316 
      9 C9         17.5371  -29.9569  -43.1345 C.ar      10 UNK        -0.0863 
     10 C10        18.6161  -30.6121  -42.5315 C.ar      10 UNK        -0.1009 
     11 C11        19.7634  -30.9271  -43.2655 C.ar      10 UNK        -0.0712 
     12 C12        19.8335  -30.5690  -44.6162 C.ar      10 UNK        -0.0894 
     13 C13        18.7654  -29.9123  -45.2352 C.ar      10 UNK        -0.0745 
     14 C14        17.6137  -29.6289  -44.4933 C.ar      10 UNK        -0.0972 
     15 C15        18.8385  -29.5364  -46.7106 C.3       10 UNK         0.0209 
     16 S16        18.6468  -27.7404  -46.9754 S.3       10 UNK        -0.2568 
     17 C17        20.2692  -27.2213  -47.6540 C.3       10 UNK        -0.0983 
     18 CA         21.1212  -26.3570  -46.6844 C.3       3 UNK         0.0876 
     19 N          20.3159  -25.2776  -46.1136 N.am      3 UNK        -0.4424 
     20 C          20.7472  -24.2003  -45.4479 C.2       2 UNK         0.4918 
     21 O          21.9339  -23.9148  -45.2925 O.2       2 UNK        -0.4875 
     22 CA         19.6522  -23.3218  -44.8104 C.3       2 UNK         0.0481 
     23 CB         19.3317  -22.1200  -45.7122 C.3       2 UNK        -0.1831 
     24 N          18.4155  -24.0679  -44.5385 N.am      2 UNK        -0.4498 
     25 C          18.2951  -25.0635  -43.6483 C.2       1 UNK         0.5027 
     26 O          19.2111  -25.3847  -42.8911 O.2       1 UNK        -0.4969 
     27 C          21.8354  -27.2381  -45.6347 C.2       3 UNK         0.5005 
     28 O          22.6984  -28.0270  -46.0237 O.2       3 UNK        -0.5279 
     29 N          21.4647  -27.1263  -44.3484 N.am      4 UNK        -0.4463 
     30 CA         21.9646  -27.9810  -43.2721 C.3       4 UNK         0.0283 
     31 CB         21.1322  -27.7676  -41.9992 C.3       4 UNK        -0.1875 
     32 C          23.4618  -27.8262  -42.9800 C.2       4 UNK         0.4949 
     33 O          24.1401  -28.8407  -42.8176 O.2       4 UNK        -0.5039 
     34 N          23.9438  -26.5761  -42.9056 N.am      5 UNK        -0.4663 
     35 CA         25.3133  -26.1855  -42.5404 C.3       5 UNK         0.0242 
     36 CB         26.3017  -26.5419  -43.6743 C.3       5 UNK        -0.1982 
     37 C          25.7153  -26.7491  -41.1608 C.2       5 UNK         0.5017 
     38 O          25.2984  -26.1941  -40.1437 O.2       5 UNK        -0.5012 
     39 N          26.4784  -27.8517  -41.1502 N.am      6 UNK        -0.4439 
     40 CA         26.8429  -28.6212  -39.9549 C.3       6 UNK         0.0297 
     41 CB         28.0112  -29.5585  -40.3017 C.3       6 UNK        -0.2006 
     42 C          25.6720  -29.4241  -39.3482 C.2       6 UNK         0.4892 
     43 O          25.7658  -29.8224  -38.1864 O.2       6 UNK        -0.5089 
     44 N          24.6036  -29.6367  -40.1306 N.am      7 UNK        -0.4243 
     45 CA         23.3677  -30.3463  -39.7954 C.3       7 UNK         0.0196 
     46 CB         22.5937  -29.6159  -38.6726 C.3       7 UNK        -0.2007 
     47 C          23.5979  -31.8503  -39.5533 C.2       7 UNK         0.5020 
     48 O          24.3343  -32.4742  -40.3187 O.2       7 UNK        -0.5147 
     49 N          22.9320  -32.4078  -38.5307 N.am      8 UNK        -0.4734 
     50 CA         22.9285  -33.8232  -38.1303 C.3       8 UNK         0.0238 
     51 CB         24.3413  -34.2936  -37.7187 C.3       8 UNK        -0.1912 
     52 C          22.2554  -34.7613  -39.1556 C.2       8 UNK         0.5038 
     53 O          22.6223  -35.9350  -39.2399 O.2       8 UNK        -0.5046 
     54 N          21.2619  -34.2414  -39.8913 N.am      9 UNK        -0.4200 
     55 CA         20.4165  -35.0133  -40.8217 C.3       9 UNK         0.0839 
     56 C          19.3255  -35.8791  -40.1245 C.2       9 UNK         0.5513 
     57 N          19.0723  -35.7248  -38.8299 N.am      9 UNK        -0.7519 
     58 O          18.7007  -36.7148  -40.7724 O.2       9 UNK        -0.4960 
     59 C59        19.7891  -34.1181  -41.9244 C.3       10 UNK        -0.0876 
     60 S60        21.0490  -33.3816  -43.0183 S.3       10 UNK        -0.2414 
     61 C61        20.9428  -31.6186  -42.5920 C.3       10 UNK         0.0169 
     62 H62        13.6358  -23.5979  -43.6810 H         1 UNK         0.0903 
     63 H63        14.2336  -22.5132  -44.9386 H         1 UNK         0.0903 
     64 H64        13.2896  -23.9394  -45.3770 H         1 UNK         0.0903 
     65 H65        15.2620  -24.8881  -42.8600 H         1 UNK         0.3096 
     66 H66        16.9933  -26.4598  -44.5485 H         1 UNK         0.1121 
     67 H67        16.6955  -26.2957  -41.5089 H         1 UNK         0.0849 
     68 H68        17.7838  -27.3929  -42.3093 H         1 UNK         0.0849 
     69 H69        16.5482  -29.6358  -41.2366 H         1 UNK         0.0865 
     70 H70        15.5678  -30.4307  -42.4420 H         1 UNK         0.0865 
     71 H71        18.5647  -30.8754  -41.4839 H         1 UNK         0.1346 
     72 H72        20.7253  -30.8010  -45.1824 H         1 UNK         0.1412 
     73 H73        16.7810  -29.1369  -44.9768 H         1 UNK         0.1426 
     74 H74        18.0365  -30.0514  -47.2409 H         1 UNK         0.0716 
     75 H75        19.7690  -29.8911  -47.1546 H         1 UNK         0.0716 
     76 H76        20.0577  -26.6328  -48.5481 H         1 UNK         0.0695 
     77 H77        20.8300  -28.0847  -48.0161 H         1 UNK         0.0695 
     78 H78        21.9171  -25.8886  -47.2675 H         1 UNK         0.0983 
     79 H79        19.3183  -25.4146  -46.1913 H         1 UNK         0.3095 
     80 H80        20.0384  -22.9464  -43.8606 H         1 UNK         0.0454 
     81 H81        18.9222  -22.4330  -46.6735 H         1 UNK         0.0851 
     82 H82        20.2292  -21.5339  -45.9148 H         1 UNK         0.0851 
     83 H83        18.6102  -21.4523  -45.2414 H         1 UNK         0.0851 
     84 H84        17.6176  -23.8917  -45.1433 H         1 UNK         0.2976 
     85 H85        20.7478  -26.4566  -44.0989 H         1 UNK         0.3116 
     86 H86        21.8215  -29.0077  -43.6000 H         1 UNK         0.0646 
     87 H87        21.2045  -26.7430  -41.6331 H         1 UNK         0.0847 
     88 H88        21.4629  -28.4227  -41.1953 H         1 UNK         0.0847 
     89 H89        20.0805  -27.9884  -42.1768 H         1 UNK         0.0847 
     90 H90        23.2942  -25.8150  -43.0493 H         1 UNK         0.3040 
     91 H91        25.3133  -25.0992  -42.4356 H         1 UNK         0.1015 
     92 H92        26.3019  -27.6054  -43.9143 H         1 UNK         0.0786 
     93 H93        27.3220  -26.2602  -43.4099 H         1 UNK         0.0786 
     94 H94        26.0501  -26.0045  -44.5888 H         1 UNK         0.0786 
     95 H95        26.7343  -28.2509  -42.0422 H         1 UNK         0.3172 
     96 H96        27.1850  -27.9189  -39.1919 H         1 UNK         0.0595 
     97 H97        28.3351  -30.1191  -39.4235 H         1 UNK         0.0839 
     98 H98        28.8754  -29.0014  -40.6640 H         1 UNK         0.0839 
     99 H99        27.7326  -30.2854  -41.0658 H         1 UNK         0.0839 
    100 H100       24.6504  -29.3087  -41.0930 H         1 UNK         0.2998 
    101 H101       22.7609  -30.2918  -40.6975 H         1 UNK         0.0822 
    102 H102       21.5834  -30.0112  -38.5612 H         1 UNK         0.0787 
    103 H103       23.0954  -29.6986  -37.7076 H         1 UNK         0.0787 
    104 H104       22.4924  -28.5535  -38.8955 H         1 UNK         0.0787 
    105 H105       22.3618  -31.7954  -37.9628 H         1 UNK         0.3055 
    106 H106       22.3037  -33.8791  -37.2373 H         1 UNK         0.1106 
    107 H107       24.3064  -35.2824  -37.2598 H         1 UNK         0.0828 
    108 H108       25.0138  -34.3595  -38.5743 H         1 UNK         0.0828 
    109 H109       24.7894  -33.6169  -36.9912 H         1 UNK         0.0828 
    110 H110       21.0193  -33.2722  -39.7590 H         1 UNK         0.2931 
    111 H111       21.0661  -35.7294  -41.3293 H         1 UNK         0.0412 
    112 H112       18.3657  -36.2977  -38.3951 H         1 UNK         0.3472 
    113 H113       19.5738  -35.0436  -38.2839 H         1 UNK         0.3472 
    114 H114       19.1252  -34.7039  -42.5633 H         1 UNK         0.0970 
    115 H115       19.1645  -33.3412  -41.4819 H         1 UNK         0.0970 
    116 H116       20.8885  -31.5088  -41.5085 H         1 UNK         0.0612 
    117 H117       21.8745  -31.1446  -42.9006 H         1 UNK         0.0612 
@<TRIPOS>BOND
     1    1    2 1    
     2    1   62 1    
     3    1   63 1    
     4    1   64 1    
     5    2    3 2    
     6    2    4 am   BACKBONE|DICT|INTERRES
     7    4    5 1    
     8    4   65 1    
     9    5    6 1    
    10    5   25 1    
    11    5   66 1    
    12    6    7 1    
    13    6   67 1    
    14    6   68 1    
    15    7    8 1    
    16    8    9 1    
    17    8   69 1    
    18    8   70 1    
    19    9   10 ar   
    20    9   14 ar   
    21   10   11 ar   
    22   10   71 1    
    23   11   12 ar   
    24   11   61 1    
    25   12   13 ar   
    26   12   72 1    
    27   13   14 ar   
    28   13   15 1    
    29   14   73 1    
    30   15   16 1    
    31   15   74 1    
    32   15   75 1    
    33   16   17 1    
    34   17   18 1    
    35   17   76 1    
    36   17   77 1    
    37   18   19 1    
    38   18   27 1    
    39   18   78 1    
    40   19   20 am   BACKBONE|DICT|INTERRES
    41   19   79 1    
    42   20   21 2    
    43   20   22 1    
    44   22   23 1    
    45   22   24 1    
    46   22   80 1    
    47   23   81 1    
    48   23   82 1    
    49   23   83 1    
    50   24   25 am   BACKBONE|DICT|INTERRES
    51   24   84 1    
    52   25   26 2    
    53   27   28 2    
    54   27   29 am   BACKBONE|DICT|INTERRES
    55   29   30 1    
    56   29   85 1    
    57   30   31 1    
    58   30   32 1    
    59   30   86 1    
    60   31   87 1    
    61   31   88 1    
    62   31   89 1    
    63   32   33 2    
    64   32   34 am   BACKBONE|DICT|INTERRES
    65   34   35 1    
    66   34   90 1    
    67   35   36 1    
    68   35   37 1    
    69   35   91 1    
    70   36   92 1    
    71   36   93 1    
    72   36   94 1    
    73   37   38 2    
    74   37   39 am   BACKBONE|DICT|INTERRES
    75   39   40 1    
    76   39   95 1    
    77   40   41 1    
    78   40   42 1    
    79   40   96 1    
    80   41   97 1    
    81   41   98 1    
    82   41   99 1    
    83   42   43 2    
    84   42   44 am   BACKBONE|DICT|INTERRES
    85   44   45 1    
    86   44  100 1    
    87   45   46 1    
    88   45   47 1    
    89   45  101 1    
    90   46  102 1    
    91   46  103 1    
    92   46  104 1    
    93   47   48 2    
    94   47   49 am   BACKBONE|DICT|INTERRES
    95   49   50 1    
    96   49  105 1    
    97   50   51 1    
    98   50   52 1    
    99   50  106 1    
   100   51  107 1    
   101   51  108 1    
   102   51  109 1    
   103   52   53 2    
   104   52   54 am   BACKBONE|DICT|INTERRES
   105   54   55 1    
   106   54  110 1    
   107   55   56 1    
   108   55   59 1    
   109   55  111 1    
   110   56   57 am   BACKBONE|DICT|INTERRES
   111   56   58 2    
   112   57  112 1    
   113   57  113 1    
   114   59   60 1    
   115   59  114 1    
   116   59  115 1    
   117   60   61 1    
   118   61  116 1    
   119   61  117 1    
@<TRIPOS>SUBSTRUCTURE
     1 UNK         1 GROUP             0       ****    0 ROOT    
