@<TRIPOS>MOLECULE
3R8
117   119    1
SMALL
USER_CHARGES


@<TRIPOS>ATOM
      1 CA         15.6181  -24.7497  -48.8457 C.3       0 UNK        -0.2013 
      2 C          16.2700  -25.5277  -47.7127 C.2       0 UNK         0.4866 
      3 O          17.3056  -26.1576  -47.9205 O.2       0 UNK        -0.5176 
      4 N          15.6795  -25.4757  -46.5120 N.am      1 UNK        -0.4884 
      5 CA         16.1346  -26.1886  -45.3075 C.3       1 UNK         0.0853 
      6 C6         14.9430  -26.5726  -44.3917 C.3       10 UNK        -0.0849 
      7 S7         13.9348  -27.8819  -45.1714 S.3       10 UNK        -0.2776 
      8 C8         14.2046  -29.3208  -44.0750 C.3       10 UNK         0.0316 
      9 C9         15.6707  -29.5771  -43.7329 C.ar      10 UNK        -0.0863 
     10 C10        16.0666  -29.6607  -42.3940 C.ar      10 UNK        -0.1009 
     11 C11        17.4026  -29.8855  -42.0479 C.ar      10 UNK        -0.0712 
     12 C12        18.3519  -30.0126  -43.0705 C.ar      10 UNK        -0.0894 
     13 C13        17.9744  -29.9269  -44.4134 C.ar      10 UNK        -0.0745 
     14 C14        16.6293  -29.7297  -44.7392 C.ar      10 UNK        -0.0972 
     15 C15        19.0188  -30.0462  -45.5138 C.3       10 UNK         0.0209 
     16 S16        19.6845  -28.4199  -45.9938 S.3       10 UNK        -0.2568 
     17 C17        20.8935  -28.1066  -44.6634 C.3       10 UNK        -0.0983 
     18 CA         21.4258  -26.6523  -44.6616 C.3       3 UNK         0.0876 
     19 N          20.3325  -25.6976  -44.4873 N.am      3 UNK        -0.4424 
     20 C          20.3002  -24.4385  -44.9315 C.2       2 UNK         0.4918 
     21 O          21.2183  -23.9135  -45.5646 O.2       2 UNK        -0.4875 
     22 CA         18.9980  -23.6559  -44.6456 C.3       2 UNK         0.0481 
     23 CB         19.0069  -22.2447  -45.2615 C.3       2 UNK        -0.1831 
     24 N          17.8141  -24.3772  -45.1280 N.am      2 UNK        -0.4498 
     25 C          17.2512  -25.4444  -44.5417 C.2       1 UNK         0.5027 
     26 O          17.6242  -25.8724  -43.4480 O.2       1 UNK        -0.4969 
     27 C          22.4949  -26.4552  -43.5657 C.2       3 UNK         0.5005 
     28 O          22.2714  -25.7200  -42.6000 O.2       3 UNK        -0.5279 
     29 N          23.6335  -27.1482  -43.7101 N.am      4 UNK        -0.4463 
     30 CA         24.8207  -27.0837  -42.8433 C.3       4 UNK         0.0283 
     31 CB         26.0140  -27.6858  -43.6091 C.3       4 UNK        -0.1875 
     32 C          24.6656  -27.7098  -41.4351 C.2       4 UNK         0.4949 
     33 O          25.6482  -28.2146  -40.8882 O.2       4 UNK        -0.5039 
     34 N          23.4544  -27.6533  -40.8634 N.am      5 UNK        -0.4663 
     35 CA         23.0667  -28.0812  -39.5135 C.3       5 UNK         0.0242 
     36 CB         23.5020  -27.0100  -38.4883 C.3       5 UNK        -0.1982 
     37 C          23.5518  -29.5042  -39.1762 C.2       5 UNK         0.5017 
     38 O          23.1079  -30.4562  -39.8183 O.2       5 UNK        -0.5012 
     39 N          24.4729  -29.6266  -38.2106 N.am      6 UNK        -0.4439 
     40 CA         25.0721  -30.8805  -37.7437 C.3       6 UNK         0.0297 
     41 CB         25.9878  -30.5826  -36.5454 C.3       6 UNK        -0.2006 
     42 C          25.8406  -31.6735  -38.8187 C.2       6 UNK         0.4892 
     43 O          25.9762  -32.8884  -38.6719 O.2       6 UNK        -0.5089 
     44 N          26.3180  -30.9967  -39.8737 N.am      7 UNK        -0.4243 
     45 CA         26.9698  -31.6296  -41.0240 C.3       7 UNK         0.0196 
     46 CB         27.9748  -30.6427  -41.6410 C.3       7 UNK        -0.2007 
     47 C          25.9645  -32.1231  -42.0826 C.2       7 UNK         0.5020 
     48 O          26.3753  -32.8258  -43.0069 O.2       7 UNK        -0.5147 
     49 N          24.6855  -31.7495  -41.9483 N.am      8 UNK        -0.4734 
     50 CA         23.5912  -32.1364  -42.8321 C.3       8 UNK         0.0238 
     51 CB         22.9231  -30.8618  -43.3841 C.3       8 UNK        -0.1912 
     52 C          22.6315  -33.0519  -42.0574 C.2       8 UNK         0.5038 
     53 O          22.8777  -34.2569  -41.9880 O.2       8 UNK        -0.5046 
     54 N          21.5616  -32.4745  -41.4984 N.am      9 UNK        -0.4200 
     55 CA         20.5570  -33.1592  -40.6721 C.3       9 UNK         0.0839 
     56 C          21.0433  -33.5459  -39.2465 C.2       9 UNK         0.5513 
     57 N          22.0783  -32.9157  -38.7075 N.am      9 UNK        -0.7519 
     58 O          20.4759  -34.4428  -38.6278 O.2       9 UNK        -0.4960 
     59 C59        19.2193  -32.3730  -40.6322 C.3       10 UNK        -0.0876 
     60 S60        19.4146  -30.6176  -40.1553 S.3       10 UNK        -0.2414 
     61 C61        17.7632  -29.9506  -40.5606 C.3       10 UNK         0.0169 
     62 H62        16.3128  -24.0094  -49.2419 H         1 UNK         0.0903 
     63 H63        15.3438  -25.4263  -49.6545 H         1 UNK         0.0903 
     64 H64        14.7176  -24.2297  -48.5194 H         1 UNK         0.0903 
     65 H65        14.8312  -24.9374  -46.4019 H         1 UNK         0.3096 
     66 H66        16.6131  -27.1160  -45.6288 H         1 UNK         0.1121 
     67 H67        14.3112  -25.7049  -44.1950 H         1 UNK         0.0849 
     68 H68        15.2781  -26.9198  -43.4129 H         1 UNK         0.0849 
     69 H69        13.6195  -29.1701  -43.1664 H         1 UNK         0.0865 
     70 H70        13.7944  -30.2103  -44.5548 H         1 UNK         0.0865 
     71 H71        15.3297  -29.5457  -41.6104 H         1 UNK         0.1346 
     72 H72        19.3923  -30.1728  -42.8314 H         1 UNK         0.1412 
     73 H73        16.3312  -29.6660  -45.7771 H         1 UNK         0.1426 
     74 H74        18.5726  -30.5132  -46.3931 H         1 UNK         0.0716 
     75 H75        19.8327  -30.7029  -45.2033 H         1 UNK         0.0716 
     76 H76        20.4403  -28.3364  -43.6993 H         1 UNK         0.0695 
     77 H77        21.7092  -28.8143  -44.8065 H         1 UNK         0.0695 
     78 H78        21.9052  -26.4575  -45.6238 H         1 UNK         0.0983 
     79 H79        19.5303  -26.0266  -43.9611 H         1 UNK         0.3095 
     80 H80        18.9216  -23.5432  -43.5622 H         1 UNK         0.0454 
     81 H81        19.8500  -21.6612  -44.8891 H         1 UNK         0.0851 
     82 H82        19.0884  -22.2782  -46.3486 H         1 UNK         0.0851 
     83 H83        18.1000  -21.6952  -45.0090 H         1 UNK         0.0851 
     84 H84        17.4753  -24.1246  -46.0451 H         1 UNK         0.2976 
     85 H85        23.7218  -27.7470  -44.5185 H         1 UNK         0.3116 
     86 H86        25.0410  -26.0273  -42.6766 H         1 UNK         0.0646 
     87 H87        26.9458  -27.5466  -43.0593 H         1 UNK         0.0847 
     88 H88        26.1482  -27.2092  -44.5802 H         1 UNK         0.0847 
     89 H89        25.8870  -28.7568  -43.7727 H         1 UNK         0.0847 
     90 H90        22.7412  -27.1574  -41.3894 H         1 UNK         0.3040 
     91 H91        21.9764  -28.1298  -39.5027 H         1 UNK         0.1015 
     92 H92        23.0432  -26.0478  -38.7169 H         1 UNK         0.0786 
     93 H93        24.5824  -26.8601  -38.4810 H         1 UNK         0.0786 
     94 H94        23.1892  -27.2749  -37.4771 H         1 UNK         0.0786 
     95 H95        24.8003  -28.7797  -37.7691 H         1 UNK         0.3172 
     96 H96        24.2576  -31.5177  -37.3950 H         1 UNK         0.0595 
     97 H97        25.4371  -30.1145  -35.7291 H         1 UNK         0.0839 
     98 H98        26.8108  -29.9216  -36.8206 H         1 UNK         0.0839 
     99 H99        26.4262  -31.5006  -36.1511 H         1 UNK         0.0839 
    100 H100       26.1389  -29.9994  -39.9481 H         1 UNK         0.2998 
    101 H101       27.5305  -32.5024  -40.6823 H         1 UNK         0.0822 
    102 H102       28.7100  -30.3134  -40.9065 H         1 UNK         0.0787 
    103 H103       28.5230  -31.1054  -42.4627 H         1 UNK         0.0787 
    104 H104       27.4796  -29.7583  -42.0392 H         1 UNK         0.0787 
    105 H105       24.4146  -31.2206  -41.1252 H         1 UNK         0.3055 
    106 H106       23.9617  -32.7153  -43.6812 H         1 UNK         0.1106 
    107 H107       22.6111  -30.1770  -42.5944 H         1 UNK         0.0828 
    108 H108       23.6114  -30.3197  -44.0322 H         1 UNK         0.0828 
    109 H109       22.0456  -31.1094  -43.9826 H         1 UNK         0.0828 
    110 H110       21.4857  -31.4683  -41.5217 H         1 UNK         0.2931 
    111 H111       20.3403  -34.1073  -41.1686 H         1 UNK         0.0412 
    112 H112       22.3932  -33.1792  -37.7884 H         1 UNK         0.3472 
    113 H113       22.4981  -32.1269  -39.1900 H         1 UNK         0.3472 
    114 H114       18.5051  -32.8482  -39.9568 H         1 UNK         0.0970 
    115 H115       18.7563  -32.4164  -41.6185 H         1 UNK         0.0970 
    116 H116       17.0170  -30.5448  -40.0308 H         1 UNK         0.0612 
    117 H117       17.6999  -28.9411  -40.1527 H         1 UNK         0.0612 
@<TRIPOS>BOND
     1    1    2 1    
     2    1   62 1    
     3    1   63 1    
     4    1   64 1    
     5    2    3 2    
     6    2    4 am   BACKBONE|DICT|INTERRES
     7    4    5 1    
     8    4   65 1    
     9    5    6 1    
    10    5   25 1    
    11    5   66 1    
    12    6    7 1    
    13    6   67 1    
    14    6   68 1    
    15    7    8 1    
    16    8    9 1    
    17    8   69 1    
    18    8   70 1    
    19    9   10 ar   
    20    9   14 ar   
    21   10   11 ar   
    22   10   71 1    
    23   11   12 ar   
    24   11   61 1    
    25   12   13 ar   
    26   12   72 1    
    27   13   14 ar   
    28   13   15 1    
    29   14   73 1    
    30   15   16 1    
    31   15   74 1    
    32   15   75 1    
    33   16   17 1    
    34   17   18 1    
    35   17   76 1    
    36   17   77 1    
    37   18   19 1    
    38   18   27 1    
    39   18   78 1    
    40   19   20 am   BACKBONE|DICT|INTERRES
    41   19   79 1    
    42   20   21 2    
    43   20   22 1    
    44   22   23 1    
    45   22   24 1    
    46   22   80 1    
    47   23   81 1    
    48   23   82 1    
    49   23   83 1    
    50   24   25 am   BACKBONE|DICT|INTERRES
    51   24   84 1    
    52   25   26 2    
    53   27   28 2    
    54   27   29 am   BACKBONE|DICT|INTERRES
    55   29   30 1    
    56   29   85 1    
    57   30   31 1    
    58   30   32 1    
    59   30   86 1    
    60   31   87 1    
    61   31   88 1    
    62   31   89 1    
    63   32   33 2    
    64   32   34 am   BACKBONE|DICT|INTERRES
    65   34   35 1    
    66   34   90 1    
    67   35   36 1    
    68   35   37 1    
    69   35   91 1    
    70   36   92 1    
    71   36   93 1    
    72   36   94 1    
    73   37   38 2    
    74   37   39 am   BACKBONE|DICT|INTERRES
    75   39   40 1    
    76   39   95 1    
    77   40   41 1    
    78   40   42 1    
    79   40   96 1    
    80   41   97 1    
    81   41   98 1    
    82   41   99 1    
    83   42   43 2    
    84   42   44 am   BACKBONE|DICT|INTERRES
    85   44   45 1    
    86   44  100 1    
    87   45   46 1    
    88   45   47 1    
    89   45  101 1    
    90   46  102 1    
    91   46  103 1    
    92   46  104 1    
    93   47   48 2    
    94   47   49 am   BACKBONE|DICT|INTERRES
    95   49   50 1    
    96   49  105 1    
    97   50   51 1    
    98   50   52 1    
    99   50  106 1    
   100   51  107 1    
   101   51  108 1    
   102   51  109 1    
   103   52   53 2    
   104   52   54 am   BACKBONE|DICT|INTERRES
   105   54   55 1    
   106   54  110 1    
   107   55   56 1    
   108   55   59 1    
   109   55  111 1    
   110   56   57 am   BACKBONE|DICT|INTERRES
   111   56   58 2    
   112   57  112 1    
   113   57  113 1    
   114   59   60 1    
   115   59  114 1    
   116   59  115 1    
   117   60   61 1    
   118   61  116 1    
   119   61  117 1    
@<TRIPOS>SUBSTRUCTURE
     1 UNK         1 GROUP             0       ****    0 ROOT    
