@<TRIPOS>MOLECULE
3R8
117   119    1
SMALL
USER_CHARGES


@<TRIPOS>ATOM
      1 CA         15.4225  -22.7420  -41.9340 C.3       0 UNK        -0.2013 
      2 C          15.9929  -23.9913  -42.5896 C.2       0 UNK         0.4866 
      3 O          16.6169  -24.7994  -41.9054 O.2       0 UNK        -0.5176 
      4 N          15.7615  -24.1490  -43.9001 N.am      1 UNK        -0.4884 
      5 CA         16.2617  -25.2070  -44.7905 C.3       1 UNK         0.0853 
      6 C6         16.0880  -26.6484  -44.2381 C.3       10 UNK        -0.0849 
      7 S7         15.7472  -27.8522  -45.5651 S.3       10 UNK        -0.2776 
      8 C8         15.7242  -29.4155  -44.6301 C.3       10 UNK         0.0316 
      9 C9         17.1078  -29.7770  -44.1117 C.ar      10 UNK        -0.0863 
     10 C10        17.3902  -29.7323  -42.7439 C.ar      10 UNK        -0.1009 
     11 C11        18.6672  -30.0397  -42.2641 C.ar      10 UNK        -0.0712 
     12 C12        19.6704  -30.3791  -43.1842 C.ar      10 UNK        -0.0894 
     13 C13        19.4018  -30.4330  -44.5552 C.ar      10 UNK        -0.0745 
     14 C14        18.1110  -30.1485  -45.0081 C.ar      10 UNK        -0.0972 
     15 C15        20.4972  -30.8224  -45.5429 C.3       10 UNK         0.0209 
     16 S16        20.6307  -29.6489  -46.9350 S.3       10 UNK        -0.2568 
     17 C17        22.0436  -28.5903  -46.4626 C.3       10 UNK        -0.0983 
     18 CA         21.7026  -27.3434  -45.5959 C.3       3 UNK         0.0876 
     19 N          20.5043  -26.6330  -46.0562 N.am      3 UNK        -0.4424 
     20 C          20.5166  -25.5053  -46.7738 C.2       2 UNK         0.4918 
     21 O          21.5411  -24.8808  -47.0517 O.2       2 UNK        -0.4875 
     22 CA         19.1685  -24.9830  -47.2997 C.3       2 UNK         0.0481 
     23 CB         18.9642  -25.4362  -48.7545 C.3       2 UNK        -0.1831 
     24 N          17.9895  -25.3644  -46.5143 N.am      2 UNK        -0.4498 
     25 C          17.6971  -24.9150  -45.2858 C.2       1 UNK         0.5027 
     26 O          18.4879  -24.2715  -44.5915 O.2       1 UNK        -0.4969 
     27 C          21.6522  -27.6226  -44.0839 C.2       3 UNK         0.5005 
     28 O          22.2620  -28.5872  -43.6201 O.2       3 UNK        -0.5279 
     29 N          20.9619  -26.7637  -43.3194 N.am      4 UNK        -0.4463 
     30 CA         20.8117  -26.8611  -41.8638 C.3       4 UNK         0.0283 
     31 CB         19.5944  -26.0329  -41.4274 C.3       4 UNK        -0.1875 
     32 C          22.0953  -26.5040  -41.0853 C.2       4 UNK         0.4949 
     33 O          22.1014  -25.5709  -40.2819 O.2       4 UNK        -0.5039 
     34 N          23.1618  -27.2687  -41.3394 N.am      5 UNK        -0.4663 
     35 CA         24.4872  -27.1476  -40.7261 C.3       5 UNK         0.0242 
     36 CB         25.5490  -27.3846  -41.8156 C.3       5 UNK        -0.1982 
     37 C          24.6832  -28.1116  -39.5395 C.2       5 UNK         0.5017 
     38 O          25.8190  -28.3006  -39.1014 O.2       5 UNK        -0.5012 
     39 N          23.5934  -28.7313  -39.0615 N.am      6 UNK        -0.4439 
     40 CA         23.4888  -29.7231  -37.9809 C.3       6 UNK         0.0297 
     41 CB         24.0326  -29.1880  -36.6412 C.3       6 UNK        -0.2006 
     42 C          24.1003  -31.0877  -38.3387 C.2       6 UNK         0.4892 
     43 O          23.3997  -32.0968  -38.2703 O.2       6 UNK        -0.5089 
     44 N          25.3763  -31.1005  -38.7439 N.am      7 UNK        -0.4243 
     45 CA         26.1010  -32.2957  -39.1870 C.3       7 UNK         0.0196 
     46 CB         27.5982  -31.9694  -39.3038 C.3       7 UNK        -0.2007 
     47 C          25.5640  -32.8573  -40.5146 C.2       7 UNK         0.5020 
     48 O          25.5229  -34.0745  -40.6920 O.2       7 UNK        -0.5147 
     49 N          25.1362  -31.9593  -41.4118 N.am      8 UNK        -0.4734 
     50 CA         24.5465  -32.2902  -42.7124 C.3       8 UNK         0.0238 
     51 CB         24.6706  -31.0694  -43.6374 C.3       8 UNK        -0.1912 
     52 C          23.0838  -32.7671  -42.6291 C.2       8 UNK         0.5038 
     53 O          22.5685  -33.2736  -43.6263 O.2       8 UNK        -0.5046 
     54 N          22.4414  -32.6026  -41.4646 N.am      9 UNK        -0.4200 
     55 CA         21.0635  -33.0447  -41.1974 C.3       9 UNK         0.0839 
     56 C          20.9160  -34.5794  -40.9819 C.2       9 UNK         0.5513 
     57 N          21.9940  -35.3431  -40.8423 N.am      9 UNK        -0.7519 
     58 O          19.7985  -35.0877  -40.9458 O.2       9 UNK        -0.4960 
     59 C59        20.4117  -32.2599  -40.0271 C.3       10 UNK        -0.0876 
     60 S60        20.5627  -30.4433  -40.1645 S.3       10 UNK        -0.2414 
     61 C61        18.9031  -29.9549  -40.7531 C.3       10 UNK         0.0169 
     62 H62        14.8767  -22.1192  -42.6424 H         1 UNK         0.0903 
     63 H63        14.7404  -23.0186  -41.1304 H         1 UNK         0.0903 
     64 H64        16.2270  -22.1439  -41.5068 H         1 UNK         0.0903 
     65 H65        15.2462  -23.4216  -44.3773 H         1 UNK         0.3096 
     66 H66        15.6154  -25.1095  -45.6650 H         1 UNK         0.1121 
     67 H67        16.9607  -26.9585  -43.6603 H         1 UNK         0.0849 
     68 H68        15.2425  -26.6902  -43.5497 H         1 UNK         0.0849 
     69 H69        15.0044  -29.3408  -43.8133 H         1 UNK         0.0865 
     70 H70        15.3655  -30.2138  -45.2815 H         1 UNK         0.0865 
     71 H71        16.6137  -29.4472  -42.0469 H         1 UNK         0.1346 
     72 H72        20.6741  -30.5928  -42.8482 H         1 UNK         0.1412 
     73 H73        17.8910  -30.1906  -46.0663 H         1 UNK         0.1426 
     74 H74        20.2630  -31.8100  -45.9418 H         1 UNK         0.0716 
     75 H75        21.4627  -30.9172  -45.0433 H         1 UNK         0.0716 
     76 H76        22.8290  -29.2010  -46.0136 H         1 UNK         0.0695 
     77 H77        22.4752  -28.2374  -47.4003 H         1 UNK         0.0695 
     78 H78        22.5628  -26.6760  -45.6824 H         1 UNK         0.0983 
     79 H79        19.6220  -27.0930  -45.8806 H         1 UNK         0.3095 
     80 H80        19.2244  -23.8924  -47.2941 H         1 UNK         0.0454 
     81 H81        19.8073  -25.1382  -49.3796 H         1 UNK         0.0851 
     82 H82        18.8719  -26.5206  -48.8301 H         1 UNK         0.0851 
     83 H83        18.0700  -24.9901  -49.1899 H         1 UNK         0.0851 
     84 H84        17.2987  -25.9262  -46.9930 H         1 UNK         0.2976 
     85 H85        20.5198  -25.9723  -43.7670 H         1 UNK         0.3116 
     86 H86        20.5937  -27.9010  -41.6270 H         1 UNK         0.0646 
     87 H87        19.4419  -26.0896  -40.3489 H         1 UNK         0.0847 
     88 H88        18.6857  -26.4071  -41.8977 H         1 UNK         0.0847 
     89 H89        19.7005  -24.9798  -41.6906 H         1 UNK         0.0847 
     90 H90        23.0462  -27.9812  -42.0591 H         1 UNK         0.3040 
     91 H91        24.6194  -26.1356  -40.3370 H         1 UNK         0.1015 
     92 H92        25.4164  -26.6992  -42.6529 H         1 UNK         0.0786 
     93 H93        25.5085  -28.4013  -42.2065 H         1 UNK         0.0786 
     94 H94        26.5557  -27.2240  -41.4273 H         1 UNK         0.0786 
     95 H95        22.7233  -28.5258  -39.5328 H         1 UNK         0.3172 
     96 H96        22.4194  -29.8885  -37.8419 H         1 UNK         0.0595 
     97 H97        23.5484  -28.2518  -36.3637 H         1 UNK         0.0839 
     98 H98        25.1082  -29.0127  -36.6690 H         1 UNK         0.0839 
     99 H99        23.8447  -29.9000  -35.8365 H         1 UNK         0.0839 
    100 H100       25.8592  -30.2073  -38.7931 H         1 UNK         0.2998 
    101 H101       25.9756  -33.0690  -38.4260 H         1 UNK         0.0822 
    102 H102       28.0088  -31.6463  -38.3470 H         1 UNK         0.0787 
    103 H103       28.1655  -32.8464  -39.6193 H         1 UNK         0.0787 
    104 H104       27.7849  -31.1795  -40.0327 H         1 UNK         0.0787 
    105 H105       25.2088  -30.9803  -41.1776 H         1 UNK         0.3055 
    106 H106       25.1185  -33.1095  -43.1543 H         1 UNK         0.1106 
    107 H107       24.2209  -31.2625  -44.6125 H         1 UNK         0.0828 
    108 H108       24.1700  -30.1999  -43.2156 H         1 UNK         0.0828 
    109 H109       25.7140  -30.8052  -43.8097 H         1 UNK         0.0828 
    110 H110       22.9378  -32.2040  -40.6810 H         1 UNK         0.2931 
    111 H111       20.4767  -32.8268  -42.0905 H         1 UNK         0.0412 
    112 H112       21.8821  -36.3357  -40.7066 H         1 UNK         0.3472 
    113 H113       22.9172  -34.9370  -40.8634 H         1 UNK         0.3472 
    114 H114       20.8700  -32.5533  -39.0811 H         1 UNK         0.0970 
    115 H115       19.3572  -32.5260  -39.9363 H         1 UNK         0.0970 
    116 H116       18.7353  -28.9226  -40.4439 H         1 UNK         0.0612 
    117 H117       18.1493  -30.5481  -40.2339 H         1 UNK         0.0612 
@<TRIPOS>BOND
     1    1    2 1    
     2    1   62 1    
     3    1   63 1    
     4    1   64 1    
     5    2    3 2    
     6    2    4 am   BACKBONE|DICT|INTERRES
     7    4    5 1    
     8    4   65 1    
     9    5    6 1    
    10    5   25 1    
    11    5   66 1    
    12    6    7 1    
    13    6   67 1    
    14    6   68 1    
    15    7    8 1    
    16    8    9 1    
    17    8   69 1    
    18    8   70 1    
    19    9   10 ar   
    20    9   14 ar   
    21   10   11 ar   
    22   10   71 1    
    23   11   12 ar   
    24   11   61 1    
    25   12   13 ar   
    26   12   72 1    
    27   13   14 ar   
    28   13   15 1    
    29   14   73 1    
    30   15   16 1    
    31   15   74 1    
    32   15   75 1    
    33   16   17 1    
    34   17   18 1    
    35   17   76 1    
    36   17   77 1    
    37   18   19 1    
    38   18   27 1    
    39   18   78 1    
    40   19   20 am   BACKBONE|DICT|INTERRES
    41   19   79 1    
    42   20   21 2    
    43   20   22 1    
    44   22   23 1    
    45   22   24 1    
    46   22   80 1    
    47   23   81 1    
    48   23   82 1    
    49   23   83 1    
    50   24   25 am   BACKBONE|DICT|INTERRES
    51   24   84 1    
    52   25   26 2    
    53   27   28 2    
    54   27   29 am   BACKBONE|DICT|INTERRES
    55   29   30 1    
    56   29   85 1    
    57   30   31 1    
    58   30   32 1    
    59   30   86 1    
    60   31   87 1    
    61   31   88 1    
    62   31   89 1    
    63   32   33 2    
    64   32   34 am   BACKBONE|DICT|INTERRES
    65   34   35 1    
    66   34   90 1    
    67   35   36 1    
    68   35   37 1    
    69   35   91 1    
    70   36   92 1    
    71   36   93 1    
    72   36   94 1    
    73   37   38 2    
    74   37   39 am   BACKBONE|DICT|INTERRES
    75   39   40 1    
    76   39   95 1    
    77   40   41 1    
    78   40   42 1    
    79   40   96 1    
    80   41   97 1    
    81   41   98 1    
    82   41   99 1    
    83   42   43 2    
    84   42   44 am   BACKBONE|DICT|INTERRES
    85   44   45 1    
    86   44  100 1    
    87   45   46 1    
    88   45   47 1    
    89   45  101 1    
    90   46  102 1    
    91   46  103 1    
    92   46  104 1    
    93   47   48 2    
    94   47   49 am   BACKBONE|DICT|INTERRES
    95   49   50 1    
    96   49  105 1    
    97   50   51 1    
    98   50   52 1    
    99   50  106 1    
   100   51  107 1    
   101   51  108 1    
   102   51  109 1    
   103   52   53 2    
   104   52   54 am   BACKBONE|DICT|INTERRES
   105   54   55 1    
   106   54  110 1    
   107   55   56 1    
   108   55   59 1    
   109   55  111 1    
   110   56   57 am   BACKBONE|DICT|INTERRES
   111   56   58 2    
   112   57  112 1    
   113   57  113 1    
   114   59   60 1    
   115   59  114 1    
   116   59  115 1    
   117   60   61 1    
   118   61  116 1    
   119   61  117 1    
@<TRIPOS>SUBSTRUCTURE
     1 UNK         1 GROUP             0       ****    0 ROOT    
