@<TRIPOS>MOLECULE
3R8
117   119    1
SMALL
USER_CHARGES


@<TRIPOS>ATOM
      1 CA         16.8652  -22.2277  -45.7003 C.3       0 UNK        -0.2013 
      2 C          17.5327  -23.5878  -45.5666 C.2       0 UNK         0.4866 
      3 O          18.2117  -24.0327  -46.4930 O.2       0 UNK        -0.5176 
      4 N          17.3589  -24.2514  -44.4167 N.am      1 UNK        -0.4884 
      5 CA         17.8959  -25.5823  -44.1018 C.3       1 UNK         0.0853 
      6 C6         17.0626  -26.2872  -42.9998 C.3       10 UNK        -0.0849 
      7 S7         15.3655  -26.6522  -43.5617 S.3       10 UNK        -0.2776 
      8 C8         15.1325  -28.3694  -42.9735 C.3       10 UNK         0.0316 
      9 C9         16.0754  -29.4187  -43.5701 C.ar      10 UNK        -0.0863 
     10 C10        16.2867  -30.6069  -42.8622 C.ar      10 UNK        -0.1009 
     11 C11        17.1223  -31.6067  -43.3692 C.ar      10 UNK        -0.0712 
     12 C12        17.7610  -31.4109  -44.5963 C.ar      10 UNK        -0.0894 
     13 C13        17.5662  -30.2304  -45.3147 C.ar      10 UNK        -0.0745 
     14 C14        16.7114  -29.2468  -44.8068 C.ar      10 UNK        -0.0972 
     15 C15        18.2512  -30.0277  -46.6566 C.3       10 UNK         0.0209 
     16 S16        19.5138  -28.7218  -46.5804 S.3       10 UNK        -0.2568 
     17 C17        21.0098  -29.5990  -45.9712 C.3       10 UNK        -0.0983 
     18 CA         21.9033  -28.7894  -44.9744 C.3       3 UNK         0.0876 
     19 N          21.6652  -27.3488  -45.0750 N.am      3 UNK        -0.4424 
     20 C          22.3155  -26.3566  -44.4604 C.2       2 UNK         0.4918 
     21 O          23.3124  -26.5111  -43.7606 O.2       2 UNK        -0.4875 
     22 CA         21.6830  -24.9591  -44.5997 C.3       2 UNK         0.0481 
     23 CB         22.2445  -24.2335  -45.8313 C.3       2 UNK        -0.1831 
     24 N          20.2166  -25.0004  -44.6793 N.am      2 UNK        -0.4498 
     25 C          19.4006  -25.5271  -43.7543 C.2       1 UNK         0.5027 
     26 O          19.8091  -25.9898  -42.6867 O.2       1 UNK        -0.4969 
     27 C          21.8067  -29.3296  -43.5293 C.2       3 UNK         0.5005 
     28 O          22.5640  -30.2371  -43.1822 O.2       3 UNK        -0.5279 
     29 N          20.9016  -28.7713  -42.7124 N.am      4 UNK        -0.4463 
     30 CA         20.7490  -29.1177  -41.2970 C.3       4 UNK         0.0283 
     31 CB         19.2779  -28.9665  -40.8830 C.3       4 UNK        -0.1875 
     32 C          21.6515  -28.2563  -40.4021 C.2       4 UNK         0.4949 
     33 O          22.1587  -28.7596  -39.3994 O.2       4 UNK        -0.5039 
     34 N          21.8444  -26.9813  -40.7706 N.am      5 UNK        -0.4663 
     35 CA         22.7095  -26.0380  -40.0550 C.3       5 UNK         0.0242 
     36 CB         22.4719  -24.6155  -40.5841 C.3       5 UNK        -0.1982 
     37 C          24.2007  -26.4061  -40.1430 C.2       5 UNK         0.5017 
     38 O          24.9158  -26.2623  -39.1510 O.2       5 UNK        -0.5012 
     39 N          24.6311  -26.8916  -41.3132 N.am      6 UNK        -0.4439 
     40 CA         25.9805  -27.3665  -41.5954 C.3       6 UNK         0.0297 
     41 CB         26.7408  -26.2739  -42.3715 C.3       6 UNK        -0.2006 
     42 C          25.8849  -28.6916  -42.3786 C.2       6 UNK         0.4892 
     43 O          26.0190  -28.6748  -43.6016 O.2       6 UNK        -0.5089 
     44 N          25.6366  -29.8350  -41.7259 N.am      7 UNK        -0.4243 
     45 CA         25.4014  -30.0359  -40.2991 C.3       7 UNK         0.0196 
     46 CB         26.7391  -30.1779  -39.5456 C.3       7 UNK        -0.2007 
     47 C          24.5753  -31.3132  -40.1267 C.2       7 UNK         0.5020 
     48 O          24.8724  -32.3153  -40.7798 O.2       7 UNK        -0.5147 
     49 N          23.5842  -31.2644  -39.2288 N.am      8 UNK        -0.4734 
     50 CA         22.7643  -32.3588  -38.6831 C.3       8 UNK         0.0238 
     51 CB         23.6504  -33.3755  -37.9351 C.3       8 UNK        -0.1912 
     52 C          21.8190  -33.0820  -39.6629 C.2       8 UNK         0.5038 
     53 O          20.8631  -33.6959  -39.1898 O.2       8 UNK        -0.5046 
     54 N          22.1005  -33.0167  -40.9704 N.am      9 UNK        -0.4200 
     55 CA         21.3811  -33.6349  -42.0990 C.3       9 UNK         0.0839 
     56 C          21.1653  -35.1789  -42.0375 C.2       9 UNK         0.5513 
     57 N          21.9169  -35.9176  -41.2302 N.am      9 UNK        -0.7519 
     58 O          20.3421  -35.7266  -42.7669 O.2       9 UNK        -0.4960 
     59 C59        20.1388  -32.8254  -42.5705 C.3       10 UNK        -0.0876 
     60 S60        18.7098  -32.7902  -41.4336 S.3       10 UNK        -0.2414 
     61 C61        17.3182  -32.9043  -42.5981 C.3       10 UNK         0.0169 
     62 H62        17.6163  -21.4561  -45.8676 H         1 UNK         0.0903 
     63 H63        16.1818  -22.2280  -46.5490 H         1 UNK         0.0903 
     64 H64        16.2980  -21.9620  -44.8084 H         1 UNK         0.0903 
     65 H65        16.8007  -23.8308  -43.6870 H         1 UNK         0.3096 
     66 H66        17.8267  -26.1974  -45.0023 H         1 UNK         0.1121 
     67 H67        17.5345  -27.2268  -42.7097 H         1 UNK         0.0849 
     68 H68        17.0171  -25.6793  -42.0944 H         1 UNK         0.0849 
     69 H69        15.2258  -28.3684  -41.8861 H         1 UNK         0.0865 
     70 H70        14.1069  -28.6697  -43.1917 H         1 UNK         0.0865 
     71 H71        15.7944  -30.7600  -41.9112 H         1 UNK         0.1346 
     72 H72        18.4014  -32.1818  -45.0003 H         1 UNK         0.1412 
     73 H73        16.5491  -28.3481  -45.3844 H         1 UNK         0.1426 
     74 H74        17.5002  -29.7428  -47.3949 H         1 UNK         0.0716 
     75 H75        18.6998  -30.9531  -47.0213 H         1 UNK         0.0716 
     76 H76        20.7174  -30.5672  -45.5589 H         1 UNK         0.0695 
     77 H77        21.6033  -29.8398  -46.8543 H         1 UNK         0.0695 
     78 H78        22.9449  -28.9416  -45.2668 H         1 UNK         0.0983 
     79 H79        20.8610  -27.1064  -45.6370 H         1 UNK         0.3095 
     80 H80        21.9467  -24.3794  -43.7150 H         1 UNK         0.0454 
     81 H81        23.3327  -24.1715  -45.7846 H         1 UNK         0.0851 
     82 H82        21.9860  -24.7478  -46.7577 H         1 UNK         0.0851 
     83 H83        21.8661  -23.2133  -45.8974 H         1 UNK         0.0851 
     84 H84        19.7809  -24.6248  -45.5181 H         1 UNK         0.2976 
     85 H85        20.3477  -27.9943  -43.0496 H         1 UNK         0.3116 
     86 H86        21.0303  -30.1613  -41.1432 H         1 UNK         0.0646 
     87 H87        19.1256  -29.3222  -39.8634 H         1 UNK         0.0847 
     88 H88        18.6236  -29.5506  -41.5296 H         1 UNK         0.0847 
     89 H89        18.9494  -27.9277  -40.9166 H         1 UNK         0.0847 
     90 H90        21.3302  -26.6229  -41.5689 H         1 UNK         0.3040 
     91 H91        22.4246  -26.0616  -39.0007 H         1 UNK         0.1015 
     92 H92        22.8208  -24.5058  -41.6102 H         1 UNK         0.0786 
     93 H93        23.0102  -23.8835  -39.9807 H         1 UNK         0.0786 
     94 H94        21.4152  -24.3479  -40.5553 H         1 UNK         0.0786 
     95 H95        23.9846  -26.9312  -42.1001 H         1 UNK         0.3172 
     96 H96        26.5247  -27.5439  -40.6693 H         1 UNK         0.0595 
     97 H97        27.7440  -26.6097  -42.6365 H         1 UNK         0.0839 
     98 H98        26.2288  -26.0046  -43.2965 H         1 UNK         0.0839 
     99 H99        26.8480  -25.3681  -41.7748 H         1 UNK         0.0839 
    100 H100       25.5260  -30.6824  -42.2680 H         1 UNK         0.2998 
    101 H101       24.8370  -29.2000  -39.8876 H         1 UNK         0.0822 
    102 H102       26.5666  -30.3450  -38.4814 H         1 UNK         0.0787 
    103 H103       27.3174  -31.0255  -39.9159 H         1 UNK         0.0787 
    104 H104       27.3669  -29.2929  -39.6302 H         1 UNK         0.0787 
    105 H105       23.3322  -30.3451  -38.8762 H         1 UNK         0.3055 
    106 H106       22.1125  -31.8879  -37.9449 H         1 UNK         0.1106 
    107 H107       24.3308  -33.8963  -38.6094 H         1 UNK         0.0828 
    108 H108       24.2487  -32.8891  -37.1647 H         1 UNK         0.0828 
    109 H109       23.0429  -34.1342  -37.4396 H         1 UNK         0.0828 
    110 H110       22.9696  -32.5553  -41.2158 H         1 UNK         0.2931 
    111 H111       22.0986  -33.5346  -42.9143 H         1 UNK         0.0412 
    112 H112       21.7837  -36.9165  -41.2066 H         1 UNK         0.3472 
    113 H113       22.6011  -35.4832  -40.6321 H         1 UNK         0.3472 
    114 H114       19.8165  -33.2187  -43.5344 H         1 UNK         0.0970 
    115 H115       20.4238  -31.7943  -42.7690 H         1 UNK         0.0970 
    116 H116       16.4130  -33.1396  -42.0365 H         1 UNK         0.0612 
    117 H117       17.4753  -33.7400  -43.2819 H         1 UNK         0.0612 
@<TRIPOS>BOND
     1    1    2 1    
     2    1   62 1    
     3    1   63 1    
     4    1   64 1    
     5    2    3 2    
     6    2    4 am   BACKBONE|DICT|INTERRES
     7    4    5 1    
     8    4   65 1    
     9    5    6 1    
    10    5   25 1    
    11    5   66 1    
    12    6    7 1    
    13    6   67 1    
    14    6   68 1    
    15    7    8 1    
    16    8    9 1    
    17    8   69 1    
    18    8   70 1    
    19    9   10 ar   
    20    9   14 ar   
    21   10   11 ar   
    22   10   71 1    
    23   11   12 ar   
    24   11   61 1    
    25   12   13 ar   
    26   12   72 1    
    27   13   14 ar   
    28   13   15 1    
    29   14   73 1    
    30   15   16 1    
    31   15   74 1    
    32   15   75 1    
    33   16   17 1    
    34   17   18 1    
    35   17   76 1    
    36   17   77 1    
    37   18   19 1    
    38   18   27 1    
    39   18   78 1    
    40   19   20 am   BACKBONE|DICT|INTERRES
    41   19   79 1    
    42   20   21 2    
    43   20   22 1    
    44   22   23 1    
    45   22   24 1    
    46   22   80 1    
    47   23   81 1    
    48   23   82 1    
    49   23   83 1    
    50   24   25 am   BACKBONE|DICT|INTERRES
    51   24   84 1    
    52   25   26 2    
    53   27   28 2    
    54   27   29 am   BACKBONE|DICT|INTERRES
    55   29   30 1    
    56   29   85 1    
    57   30   31 1    
    58   30   32 1    
    59   30   86 1    
    60   31   87 1    
    61   31   88 1    
    62   31   89 1    
    63   32   33 2    
    64   32   34 am   BACKBONE|DICT|INTERRES
    65   34   35 1    
    66   34   90 1    
    67   35   36 1    
    68   35   37 1    
    69   35   91 1    
    70   36   92 1    
    71   36   93 1    
    72   36   94 1    
    73   37   38 2    
    74   37   39 am   BACKBONE|DICT|INTERRES
    75   39   40 1    
    76   39   95 1    
    77   40   41 1    
    78   40   42 1    
    79   40   96 1    
    80   41   97 1    
    81   41   98 1    
    82   41   99 1    
    83   42   43 2    
    84   42   44 am   BACKBONE|DICT|INTERRES
    85   44   45 1    
    86   44  100 1    
    87   45   46 1    
    88   45   47 1    
    89   45  101 1    
    90   46  102 1    
    91   46  103 1    
    92   46  104 1    
    93   47   48 2    
    94   47   49 am   BACKBONE|DICT|INTERRES
    95   49   50 1    
    96   49  105 1    
    97   50   51 1    
    98   50   52 1    
    99   50  106 1    
   100   51  107 1    
   101   51  108 1    
   102   51  109 1    
   103   52   53 2    
   104   52   54 am   BACKBONE|DICT|INTERRES
   105   54   55 1    
   106   54  110 1    
   107   55   56 1    
   108   55   59 1    
   109   55  111 1    
   110   56   57 am   BACKBONE|DICT|INTERRES
   111   56   58 2    
   112   57  112 1    
   113   57  113 1    
   114   59   60 1    
   115   59  114 1    
   116   59  115 1    
   117   60   61 1    
   118   61  116 1    
   119   61  117 1    
@<TRIPOS>SUBSTRUCTURE
     1 UNK         1 GROUP             0       ****    0 ROOT    
