@<TRIPOS>MOLECULE
3R8
117   119    1
SMALL
USER_CHARGES


@<TRIPOS>ATOM
      1 CA         16.9323  -23.1382  -43.8795 C.3       0 UNK        -0.2013 
      2 C          16.8651  -23.5663  -45.3448 C.2       0 UNK         0.4866 
      3 O          16.5441  -22.7300  -46.1866 O.2       0 UNK        -0.5176 
      4 N          17.1613  -24.8196  -45.7274 N.am      1 UNK        -0.4884 
      5 CA         17.5536  -25.9919  -44.9263 C.3       1 UNK         0.0853 
      6 C6         16.3772  -26.6419  -44.1436 C.3       10 UNK        -0.0849 
      7 S7         15.1100  -27.3055  -45.2763 S.3       10 UNK        -0.2776 
      8 C8         14.9785  -29.0457  -44.7266 C.3       10 UNK         0.0316 
      9 C9         16.2531  -29.8829  -44.8642 C.ar      10 UNK        -0.0863 
     10 C10        16.4514  -30.9586  -43.9913 C.ar      10 UNK        -0.1009 
     11 C11        17.5769  -31.7826  -44.0971 C.ar      10 UNK        -0.0712 
     12 C12        18.5241  -31.5060  -45.0913 C.ar      10 UNK        -0.0894 
     13 C13        18.3497  -30.4312  -45.9649 C.ar      10 UNK        -0.0745 
     14 C14        17.2059  -29.6354  -45.8597 C.ar      10 UNK        -0.0972 
     15 C15        19.3845  -30.1458  -47.0419 C.3       10 UNK         0.0209 
     16 S16        20.4492  -28.7380  -46.6012 S.3       10 UNK        -0.2568 
     17 C17        21.5953  -29.4601  -45.3604 C.3       10 UNK        -0.0983 
     18 CA         22.0653  -28.4967  -44.2200 C.3       3 UNK         0.0876 
     19 N          21.6299  -27.1122  -44.4225 N.am      3 UNK        -0.4424 
     20 C          21.9017  -26.0356  -43.6751 C.2       2 UNK         0.4918 
     21 O          22.6753  -26.0398  -42.7184 O.2       2 UNK        -0.4875 
     22 CA         21.1061  -24.7594  -44.0096 C.3       2 UNK         0.0481 
     23 CB         21.9301  -23.8412  -44.9240 C.3       2 UNK        -0.1831 
     24 N          19.7974  -25.0269  -44.6277 N.am      2 UNK        -0.4498 
     25 C          18.8165  -25.7577  -44.0714 C.2       1 UNK         0.5027 
     26 O          18.9023  -26.2561  -42.9490 O.2       1 UNK        -0.4969 
     27 C          21.7292  -29.0515  -42.8162 C.2       3 UNK         0.5005 
     28 O          22.4643  -29.9109  -42.3270 O.2       3 UNK        -0.5279 
     29 N          20.6822  -28.5296  -42.1567 N.am      4 UNK        -0.4463 
     30 CA         20.3450  -28.8519  -40.7662 C.3       4 UNK         0.0283 
     31 CB         18.9818  -28.2437  -40.4059 C.3       4 UNK        -0.1875 
     32 C          21.4217  -28.4177  -39.7540 C.2       4 UNK         0.4949 
     33 O          21.5390  -29.0420  -38.7006 O.2       4 UNK        -0.5039 
     34 N          22.2004  -27.3831  -40.0968 N.am      5 UNK        -0.4663 
     35 CA         23.3595  -26.9279  -39.3322 C.3       5 UNK         0.0242 
     36 CB         23.3312  -25.3938  -39.2249 C.3       5 UNK        -0.1982 
     37 C          24.6621  -27.4046  -39.9891 C.2       5 UNK         0.5017 
     38 O          25.5058  -27.9809  -39.3039 O.2       5 UNK        -0.5012 
     39 N          24.8032  -27.1588  -41.3002 N.am      6 UNK        -0.4439 
     40 CA         26.0326  -27.3740  -42.0694 C.3       6 UNK         0.0297 
     41 CB         25.9074  -26.6871  -43.4390 C.3       6 UNK        -0.2006 
     42 C          26.4323  -28.8488  -42.2391 C.2       6 UNK         0.4892 
     43 O          27.6281  -29.1432  -42.2345 O.2       6 UNK        -0.5089 
     44 N          25.4426  -29.7402  -42.3801 N.am      7 UNK        -0.4243 
     45 CA         25.6362  -31.1902  -42.4865 C.3       7 UNK         0.0196 
     46 CB         24.9621  -31.6914  -43.7776 C.3       7 UNK        -0.2007 
     47 C          25.0889  -31.9292  -41.2523 C.2       7 UNK         0.5020 
     48 O          25.1417  -33.1589  -41.2230 O.2       7 UNK        -0.5147 
     49 N          24.5651  -31.1793  -40.2683 N.am      8 UNK        -0.4734 
     50 CA         23.9087  -31.6427  -39.0388 C.3       8 UNK         0.0238 
     51 CB         24.9343  -32.3046  -38.0935 C.3       8 UNK        -0.1912 
     52 C          22.6737  -32.5311  -39.3021 C.2       8 UNK         0.5038 
     53 O          22.4149  -33.4574  -38.5306 O.2       8 UNK        -0.5046 
     54 N          21.9523  -32.2525  -40.3976 N.am      9 UNK        -0.4200 
     55 CA         20.7621  -32.9955  -40.8328 C.3       9 UNK         0.0839 
     56 C          19.5863  -32.9172  -39.8167 C.2       9 UNK         0.5513 
     57 N          18.8768  -34.0162  -39.5996 N.am      9 UNK        -0.7519 
     58 O          19.2907  -31.8665  -39.2538 O.2       9 UNK        -0.4960 
     59 C59        20.3374  -32.5532  -42.2563 C.3       10 UNK        -0.0876 
     60 S60        19.3246  -33.8079  -43.1071 S.3       10 UNK        -0.2414 
     61 C61        17.6985  -32.9744  -43.1424 C.3       10 UNK         0.0169 
     62 H62        16.7885  -23.9548  -43.1778 H         1 UNK         0.0903 
     63 H63        17.8978  -22.6777  -43.6717 H         1 UNK         0.0903 
     64 H64        16.1596  -22.3981  -43.6730 H         1 UNK         0.0903 
     65 H65        17.0871  -25.0158  -46.7163 H         1 UNK         0.3096 
     66 H66        17.8843  -26.7330  -45.6556 H         1 UNK         0.1121 
     67 H67        15.8980  -25.9364  -43.4666 H         1 UNK         0.0849 
     68 H68        16.7352  -27.4587  -43.5140 H         1 UNK         0.0849 
     69 H69        14.6420  -29.0473  -43.6884 H         1 UNK         0.0865 
     70 H70        14.1892  -29.5293  -45.3034 H         1 UNK         0.0865 
     71 H71        15.7111  -31.1709  -43.2313 H         1 UNK         0.1346 
     72 H72        19.3988  -32.1291  -45.2056 H         1 UNK         0.1412 
     73 H73        17.0627  -28.8257  -46.5610 H         1 UNK         0.1426 
     74 H74        20.0024  -31.0238  -47.2373 H         1 UNK         0.0716 
     75 H75        18.8746  -29.9193  -47.9794 H         1 UNK         0.0716 
     76 H76        22.4708  -29.8106  -45.9091 H         1 UNK         0.0695 
     77 H77        21.1438  -30.3688  -44.9587 H         1 UNK         0.0695 
     78 H78        23.1553  -28.4656  -44.2584 H         1 UNK         0.0983 
     79 H79        20.9939  -26.9961  -45.1991 H         1 UNK         0.3095 
     80 H80        20.9247  -24.2341  -43.0698 H         1 UNK         0.0454 
     81 H81        21.4223  -22.8921  -45.0963 H         1 UNK         0.0851 
     82 H82        22.1225  -24.3016  -45.8939 H         1 UNK         0.0851 
     83 H83        22.8977  -23.6110  -44.4754 H         1 UNK         0.0851 
     84 H84        19.6424  -24.6435  -45.5500 H         1 UNK         0.2976 
     85 H85        20.1227  -27.8060  -42.5985 H         1 UNK         0.3116 
     86 H86        20.2571  -29.9340  -40.6935 H         1 UNK         0.0646 
     87 H87        18.2054  -28.5680  -41.0992 H         1 UNK         0.0847 
     88 H88        18.6731  -28.5528  -39.4063 H         1 UNK         0.0847 
     89 H89        19.0099  -27.1536  -40.4163 H         1 UNK         0.0847 
     90 H90        22.0485  -26.9382  -40.9947 H         1 UNK         0.3040 
     91 H91        23.3320  -27.3340  -38.3182 H         1 UNK         0.1015 
     92 H92        23.3410  -24.9130  -40.2039 H         1 UNK         0.0786 
     93 H93        24.1956  -25.0253  -38.6707 H         1 UNK         0.0786 
     94 H94        22.4401  -25.0536  -38.6970 H         1 UNK         0.0786 
     95 H95        24.0455  -26.6829  -41.7880 H         1 UNK         0.3172 
     96 H96        26.8422  -26.8824  -41.5256 H         1 UNK         0.0595 
     97 H97        25.1036  -27.1144  -44.0378 H         1 UNK         0.0839 
     98 H98        26.8297  -26.7897  -44.0127 H         1 UNK         0.0839 
     99 H99        25.7119  -25.6199  -43.3316 H         1 UNK         0.0839 
    100 H100       24.4780  -29.4290  -42.3604 H         1 UNK         0.2998 
    101 H101       26.6990  -31.4326  -42.5477 H         1 UNK         0.0822 
    102 H102       25.1557  -32.7538  -43.9313 H         1 UNK         0.0787 
    103 H103       23.8803  -31.5617  -43.7519 H         1 UNK         0.0787 
    104 H104       25.3423  -31.1650  -44.6531 H         1 UNK         0.0787 
    105 H105       24.5996  -30.1769  -40.3875 H         1 UNK         0.3055 
    106 H106       23.5335  -30.7508  -38.5357 H         1 UNK         0.1106 
    107 H107       25.7858  -31.6490  -37.9113 H         1 UNK         0.0828 
    108 H108       24.4868  -32.5274  -37.1241 H         1 UNK         0.0828 
    109 H109       25.3130  -33.2429  -38.4997 H         1 UNK         0.0828 
    110 H110       22.2315  -31.4673  -40.9756 H         1 UNK         0.2931 
    111 H111       21.0808  -34.0386  -40.8930 H         1 UNK         0.0412 
    112 H112       19.0976  -34.8774  -40.0752 H         1 UNK         0.3472 
    113 H113       18.1046  -33.9832  -38.9526 H         1 UNK         0.3472 
    114 H114       19.8189  -31.5936  -42.2383 H         1 UNK         0.0970 
    115 H115       21.2214  -32.3981  -42.8773 H         1 UNK         0.0970 
    116 H116       16.9490  -33.7142  -43.4262 H         1 UNK         0.0612 
    117 H117       17.4491  -32.6573  -42.1284 H         1 UNK         0.0612 
@<TRIPOS>BOND
     1    1    2 1    
     2    1   62 1    
     3    1   63 1    
     4    1   64 1    
     5    2    3 2    
     6    2    4 am   BACKBONE|DICT|INTERRES
     7    4    5 1    
     8    4   65 1    
     9    5    6 1    
    10    5   25 1    
    11    5   66 1    
    12    6    7 1    
    13    6   67 1    
    14    6   68 1    
    15    7    8 1    
    16    8    9 1    
    17    8   69 1    
    18    8   70 1    
    19    9   10 ar   
    20    9   14 ar   
    21   10   11 ar   
    22   10   71 1    
    23   11   12 ar   
    24   11   61 1    
    25   12   13 ar   
    26   12   72 1    
    27   13   14 ar   
    28   13   15 1    
    29   14   73 1    
    30   15   16 1    
    31   15   74 1    
    32   15   75 1    
    33   16   17 1    
    34   17   18 1    
    35   17   76 1    
    36   17   77 1    
    37   18   19 1    
    38   18   27 1    
    39   18   78 1    
    40   19   20 am   BACKBONE|DICT|INTERRES
    41   19   79 1    
    42   20   21 2    
    43   20   22 1    
    44   22   23 1    
    45   22   24 1    
    46   22   80 1    
    47   23   81 1    
    48   23   82 1    
    49   23   83 1    
    50   24   25 am   BACKBONE|DICT|INTERRES
    51   24   84 1    
    52   25   26 2    
    53   27   28 2    
    54   27   29 am   BACKBONE|DICT|INTERRES
    55   29   30 1    
    56   29   85 1    
    57   30   31 1    
    58   30   32 1    
    59   30   86 1    
    60   31   87 1    
    61   31   88 1    
    62   31   89 1    
    63   32   33 2    
    64   32   34 am   BACKBONE|DICT|INTERRES
    65   34   35 1    
    66   34   90 1    
    67   35   36 1    
    68   35   37 1    
    69   35   91 1    
    70   36   92 1    
    71   36   93 1    
    72   36   94 1    
    73   37   38 2    
    74   37   39 am   BACKBONE|DICT|INTERRES
    75   39   40 1    
    76   39   95 1    
    77   40   41 1    
    78   40   42 1    
    79   40   96 1    
    80   41   97 1    
    81   41   98 1    
    82   41   99 1    
    83   42   43 2    
    84   42   44 am   BACKBONE|DICT|INTERRES
    85   44   45 1    
    86   44  100 1    
    87   45   46 1    
    88   45   47 1    
    89   45  101 1    
    90   46  102 1    
    91   46  103 1    
    92   46  104 1    
    93   47   48 2    
    94   47   49 am   BACKBONE|DICT|INTERRES
    95   49   50 1    
    96   49  105 1    
    97   50   51 1    
    98   50   52 1    
    99   50  106 1    
   100   51  107 1    
   101   51  108 1    
   102   51  109 1    
   103   52   53 2    
   104   52   54 am   BACKBONE|DICT|INTERRES
   105   54   55 1    
   106   54  110 1    
   107   55   56 1    
   108   55   59 1    
   109   55  111 1    
   110   56   57 am   BACKBONE|DICT|INTERRES
   111   56   58 2    
   112   57  112 1    
   113   57  113 1    
   114   59   60 1    
   115   59  114 1    
   116   59  115 1    
   117   60   61 1    
   118   61  116 1    
   119   61  117 1    
@<TRIPOS>SUBSTRUCTURE
     1 UNK         1 GROUP             0       ****    0 ROOT    
