@<TRIPOS>MOLECULE
3R8
117   119    1
SMALL
USER_CHARGES


@<TRIPOS>ATOM
      1 CA         15.3420  -23.1331  -47.8648 C.3       0 UNK        -0.2013 
      2 C          16.7002  -23.4611  -47.2635 C.2       0 UNK         0.4866 
      3 O          17.5519  -22.5785  -47.1571 O.2       0 UNK        -0.5176 
      4 N          16.9102  -24.7253  -46.8740 N.am      1 UNK        -0.4884 
      5 CA         18.1374  -25.2210  -46.2377 C.3       1 UNK         0.0853 
      6 C6         18.1988  -26.7734  -46.2246 C.3       10 UNK        -0.0849 
      7 S7         16.7122  -27.5557  -45.5005 S.3       10 UNK        -0.2776 
      8 C8         17.1070  -29.3280  -45.6463 C.3       10 UNK         0.0316 
      9 C9         17.9402  -29.8555  -44.4832 C.ar      10 UNK        -0.0863 
     10 C10        19.0977  -30.6011  -44.7285 C.ar      10 UNK        -0.1009 
     11 C11        19.8075  -31.1793  -43.6711 C.ar      10 UNK        -0.0712 
     12 C12        19.3806  -30.9687  -42.3563 C.ar      10 UNK        -0.0894 
     13 C13        18.2290  -30.2207  -42.0941 C.ar      10 UNK        -0.0745 
     14 C14        17.5078  -29.6789  -43.1641 C.ar      10 UNK        -0.0972 
     15 C15        17.7322  -30.0623  -40.6605 C.3       10 UNK         0.0209 
     16 S16        17.3545  -28.3360  -40.2152 S.3       10 UNK        -0.2568 
     17 C17        19.0180  -27.5881  -40.1275 C.3       10 UNK        -0.0983 
     18 CA         19.4937  -26.9626  -41.4692 C.3       3 UNK         0.0876 
     19 N          18.4948  -26.0926  -42.1055 N.am      3 UNK        -0.4424 
     20 C          18.0361  -24.9104  -41.6667 C.2       2 UNK         0.4918 
     21 O          18.3062  -24.4390  -40.5614 O.2       2 UNK        -0.4875 
     22 CA         17.1659  -24.0929  -42.6508 C.3       2 UNK         0.0481 
     23 CB         17.4647  -22.5824  -42.5571 C.3       2 UNK        -0.1831 
     24 N          17.2460  -24.5341  -44.0539 N.am      2 UNK        -0.4498 
     25 C          18.3441  -24.6480  -44.8215 C.2       1 UNK         0.5027 
     26 O          19.4824  -24.3759  -44.4374 O.2       1 UNK        -0.4969 
     27 C          20.8832  -26.2859  -41.3349 C.2       3 UNK         0.5005 
     28 O          21.7069  -26.7452  -40.5406 O.2       3 UNK        -0.5279 
     29 N          21.1368  -25.2161  -42.1103 N.am      4 UNK        -0.4463 
     30 CA         22.2838  -24.3094  -41.9708 C.3       4 UNK         0.0283 
     31 CB         22.0777  -23.0893  -42.8824 C.3       4 UNK        -0.1875 
     32 C          23.6555  -24.9502  -42.2362 C.2       4 UNK         0.4949 
     33 O          24.6650  -24.4219  -41.7698 O.2       4 UNK        -0.5039 
     34 N          23.6724  -26.0769  -42.9602 N.am      5 UNK        -0.4663 
     35 CA         24.8640  -26.8944  -43.1926 C.3       5 UNK         0.0242 
     36 CB         24.5571  -27.9286  -44.2890 C.3       5 UNK        -0.1982 
     37 C          25.3750  -27.6007  -41.9232 C.2       5 UNK         0.5017 
     38 O          26.5648  -27.9106  -41.8593 O.2       5 UNK        -0.5012 
     39 N          24.4719  -27.8646  -40.9604 N.am      6 UNK        -0.4439 
     40 CA         24.6986  -28.5845  -39.6970 C.3       6 UNK         0.0297 
     41 CB         25.5489  -27.7274  -38.7362 C.3       6 UNK        -0.2006 
     42 C          25.2700  -30.0078  -39.8869 C.2       6 UNK         0.4892 
     43 O          26.0087  -30.4967  -39.0305 O.2       6 UNK        -0.5089 
     44 N          24.9332  -30.6363  -41.0218 N.am      7 UNK        -0.4243 
     45 CA         25.5074  -31.9021  -41.4802 C.3       7 UNK         0.0196 
     46 CB         25.2805  -32.0255  -42.9970 C.3       7 UNK        -0.2007 
     47 C          24.9567  -33.1419  -40.7589 C.2       7 UNK         0.5020 
     48 O          25.6223  -34.1773  -40.7797 O.2       7 UNK        -0.5147 
     49 N          23.7515  -33.0295  -40.1742 N.am      8 UNK        -0.4734 
     50 CA         22.9616  -34.1160  -39.5698 C.3       8 UNK         0.0238 
     51 CB         23.6266  -34.6236  -38.2721 C.3       8 UNK        -0.1912 
     52 C          22.6769  -35.2419  -40.5862 C.2       8 UNK         0.5038 
     53 O          22.9237  -36.4166  -40.3067 O.2       8 UNK        -0.5046 
     54 N          22.2104  -34.8316  -41.7727 N.am      9 UNK        -0.4200 
     55 CA         22.0258  -35.6699  -42.9662 C.3       9 UNK         0.0839 
     56 C          20.9190  -36.7641  -42.8762 C.2       9 UNK         0.5513 
     57 N          20.0498  -36.7545  -41.8727 N.am      9 UNK        -0.7519 
     58 O          20.8579  -37.6438  -43.7315 O.2       9 UNK        -0.4960 
     59 C59        21.8956  -34.7932  -44.2426 C.3       10 UNK        -0.0876 
     60 S60        20.3739  -33.7818  -44.2816 S.3       10 UNK        -0.2414 
     61 C61        20.9853  -32.0994  -43.9522 C.3       10 UNK         0.0169 
     62 H62        14.6910  -24.0063  -47.9038 H         1 UNK         0.0903 
     63 H63        14.8448  -22.3659  -47.2717 H         1 UNK         0.0903 
     64 H64        15.4625  -22.7547  -48.8795 H         1 UNK         0.0903 
     65 H65        16.1781  -25.4134  -46.9879 H         1 UNK         0.3096 
     66 H66        18.9797  -24.8640  -46.8353 H         1 UNK         0.1121 
     67 H67        18.3037  -27.1352  -47.2487 H         1 UNK         0.0849 
     68 H68        19.0864  -27.1275  -45.6955 H         1 UNK         0.0849 
     69 H69        17.5993  -29.5128  -46.6024 H         1 UNK         0.0865 
     70 H70        16.1713  -29.8879  -45.6753 H         1 UNK         0.0865 
     71 H71        19.4194  -30.7802  -45.7455 H         1 UNK         0.1346 
     72 H72        19.9217  -31.4254  -41.5390 H         1 UNK         0.1412 
     73 H73        16.5974  -29.1282  -42.9694 H         1 UNK         0.1426 
     74 H74        18.4534  -30.4635  -39.9468 H         1 UNK         0.0716 
     75 H75        16.8246  -30.6558  -40.5442 H         1 UNK         0.0716 
     76 H76        19.7244  -28.3469  -39.7859 H         1 UNK         0.0695 
     77 H77        18.9939  -26.8275  -39.3452 H         1 UNK         0.0695 
     78 H78        19.6518  -27.7823  -42.1709 H         1 UNK         0.0983 
     79 H79        18.1777  -26.3971  -43.0143 H         1 UNK         0.3095 
     80 H80        16.1317  -24.2490  -42.3415 H         1 UNK         0.0454 
     81 H81        16.8345  -22.0104  -43.2380 H         1 UNK         0.0851 
     82 H82        18.5047  -22.3608  -42.7983 H         1 UNK         0.0851 
     83 H83        17.2766  -22.2042  -41.5516 H         1 UNK         0.0851 
     84 H84        16.3702  -24.8203  -44.4701 H         1 UNK         0.2976 
     85 H85        20.4359  -24.9363  -42.7911 H         1 UNK         0.3116 
     86 H86        22.2922  -23.9597  -40.9364 H         1 UNK         0.0646 
     87 H87        22.8888  -22.3694  -42.7641 H         1 UNK         0.0847 
     88 H88        21.1486  -22.5697  -42.6479 H         1 UNK         0.0847 
     89 H89        22.0455  -23.3741  -43.9348 H         1 UNK         0.0847 
     90 H90        22.7949  -26.4233  -43.3195 H         1 UNK         0.3040 
     91 H91        25.6639  -26.2402  -43.5473 H         1 UNK         0.1015 
     92 H92        24.2726  -27.4437  -45.2231 H         1 UNK         0.0786 
     93 H93        23.7484  -28.6009  -43.9994 H         1 UNK         0.0786 
     94 H94        25.4326  -28.5445  -44.5006 H         1 UNK         0.0786 
     95 H95        23.5262  -27.5142  -41.0862 H         1 UNK         0.3172 
     96 H96        23.7152  -28.7119  -39.2422 H         1 UNK         0.0595 
     97 H97        26.5687  -27.6026  -39.1017 H         1 UNK         0.0839 
     98 H98        25.6108  -28.1871  -37.7490 H         1 UNK         0.0839 
     99 H99        25.1167  -26.7356  -38.6031 H         1 UNK         0.0839 
    100 H100       24.3216  -30.1542  -41.6635 H         1 UNK         0.2998 
    101 H101       26.5844  -31.8734  -41.2990 H         1 UNK         0.0822 
    102 H102       24.2199  -32.0402  -43.2495 H         1 UNK         0.0787 
    103 H103       25.7431  -31.1979  -43.5354 H         1 UNK         0.0787 
    104 H104       25.7197  -32.9461  -43.3844 H         1 UNK         0.0787 
    105 H105       23.3076  -32.1224  -40.2037 H         1 UNK         0.3055 
    106 H106       21.9923  -33.6942  -39.2984 H         1 UNK         0.1106 
    107 H107       22.9931  -35.3562  -37.7705 H         1 UNK         0.0828 
    108 H108       24.5857  -35.1046  -38.4662 H         1 UNK         0.0828 
    109 H109       23.7976  -33.8083  -37.5694 H         1 UNK         0.0828 
    110 H110       22.0149  -33.8512  -41.8961 H         1 UNK         0.2931 
    111 H111       22.9578  -36.2281  -43.0754 H         1 UNK         0.0412 
    112 H112       20.0953  -36.0384  -41.1663 H         1 UNK         0.3472 
    113 H113       19.3420  -37.4704  -41.8236 H         1 UNK         0.3472 
    114 H114       22.7680  -34.1455  -44.3432 H         1 UNK         0.0970 
    115 H115       21.9038  -35.4253  -45.1326 H         1 UNK         0.0970 
    116 H116       21.6681  -32.1100  -43.1020 H         1 UNK         0.0612 
    117 H117       21.5548  -31.7403  -44.8109 H         1 UNK         0.0612 
@<TRIPOS>BOND
     1    1    2 1    
     2    1   62 1    
     3    1   63 1    
     4    1   64 1    
     5    2    3 2    
     6    2    4 am   BACKBONE|DICT|INTERRES
     7    4    5 1    
     8    4   65 1    
     9    5    6 1    
    10    5   25 1    
    11    5   66 1    
    12    6    7 1    
    13    6   67 1    
    14    6   68 1    
    15    7    8 1    
    16    8    9 1    
    17    8   69 1    
    18    8   70 1    
    19    9   10 ar   
    20    9   14 ar   
    21   10   11 ar   
    22   10   71 1    
    23   11   12 ar   
    24   11   61 1    
    25   12   13 ar   
    26   12   72 1    
    27   13   14 ar   
    28   13   15 1    
    29   14   73 1    
    30   15   16 1    
    31   15   74 1    
    32   15   75 1    
    33   16   17 1    
    34   17   18 1    
    35   17   76 1    
    36   17   77 1    
    37   18   19 1    
    38   18   27 1    
    39   18   78 1    
    40   19   20 am   BACKBONE|DICT|INTERRES
    41   19   79 1    
    42   20   21 2    
    43   20   22 1    
    44   22   23 1    
    45   22   24 1    
    46   22   80 1    
    47   23   81 1    
    48   23   82 1    
    49   23   83 1    
    50   24   25 am   BACKBONE|DICT|INTERRES
    51   24   84 1    
    52   25   26 2    
    53   27   28 2    
    54   27   29 am   BACKBONE|DICT|INTERRES
    55   29   30 1    
    56   29   85 1    
    57   30   31 1    
    58   30   32 1    
    59   30   86 1    
    60   31   87 1    
    61   31   88 1    
    62   31   89 1    
    63   32   33 2    
    64   32   34 am   BACKBONE|DICT|INTERRES
    65   34   35 1    
    66   34   90 1    
    67   35   36 1    
    68   35   37 1    
    69   35   91 1    
    70   36   92 1    
    71   36   93 1    
    72   36   94 1    
    73   37   38 2    
    74   37   39 am   BACKBONE|DICT|INTERRES
    75   39   40 1    
    76   39   95 1    
    77   40   41 1    
    78   40   42 1    
    79   40   96 1    
    80   41   97 1    
    81   41   98 1    
    82   41   99 1    
    83   42   43 2    
    84   42   44 am   BACKBONE|DICT|INTERRES
    85   44   45 1    
    86   44  100 1    
    87   45   46 1    
    88   45   47 1    
    89   45  101 1    
    90   46  102 1    
    91   46  103 1    
    92   46  104 1    
    93   47   48 2    
    94   47   49 am   BACKBONE|DICT|INTERRES
    95   49   50 1    
    96   49  105 1    
    97   50   51 1    
    98   50   52 1    
    99   50  106 1    
   100   51  107 1    
   101   51  108 1    
   102   51  109 1    
   103   52   53 2    
   104   52   54 am   BACKBONE|DICT|INTERRES
   105   54   55 1    
   106   54  110 1    
   107   55   56 1    
   108   55   59 1    
   109   55  111 1    
   110   56   57 am   BACKBONE|DICT|INTERRES
   111   56   58 2    
   112   57  112 1    
   113   57  113 1    
   114   59   60 1    
   115   59  114 1    
   116   59  115 1    
   117   60   61 1    
   118   61  116 1    
   119   61  117 1    
@<TRIPOS>SUBSTRUCTURE
     1 UNK         1 GROUP             0       ****    0 ROOT    
