@<TRIPOS>MOLECULE
3R8
117   119    1
SMALL
USER_CHARGES


@<TRIPOS>ATOM
      1 CA         17.9277  -22.2517  -43.4008 C.3       0 UNK        -0.2013 
      2 C          17.1985  -23.3935  -42.6959 C.2       0 UNK         0.4866 
      3 O          16.5844  -23.1604  -41.6565 O.2       0 UNK        -0.5176 
      4 N          17.2116  -24.6304  -43.2138 N.am      1 UNK        -0.4884 
      5 CA         17.9318  -25.1072  -44.4027 C.3       1 UNK         0.0853 
      6 C6         17.5737  -26.5779  -44.7229 C.3       10 UNK        -0.0849 
      7 S7         15.7968  -26.8750  -45.0230 S.3       10 UNK        -0.2776 
      8 C8         15.4730  -28.3715  -44.0103 C.3       10 UNK         0.0316 
      9 C9         16.4559  -29.5307  -44.2090 C.ar      10 UNK        -0.0863 
     10 C10        16.6569  -30.4429  -43.1662 C.ar      10 UNK        -0.1009 
     11 C11        17.5931  -31.4753  -43.2898 C.ar      10 UNK        -0.0712 
     12 C12        18.3475  -31.5865  -44.4606 C.ar      10 UNK        -0.0894 
     13 C13        18.1484  -30.6927  -45.5140 C.ar      10 UNK        -0.0745 
     14 C14        17.1785  -29.6955  -45.3969 C.ar      10 UNK        -0.0972 
     15 C15        18.9865  -30.7805  -46.7777 C.3       10 UNK         0.0209 
     16 S16        20.1212  -29.3624  -46.9153 S.3       10 UNK        -0.2568 
     17 C17        21.4807  -29.8266  -45.7793 C.3       10 UNK        -0.0983 
     18 CA         22.0101  -28.6964  -44.8413 C.3       3 UNK         0.0876 
     19 N          21.6681  -27.3419  -45.2897 N.am      3 UNK        -0.4424 
     20 C          22.2629  -26.2176  -44.8701 C.2       2 UNK         0.4918 
     21 O          23.2046  -26.1977  -44.0796 O.2       2 UNK        -0.4875 
     22 CA         21.6628  -24.8918  -45.3719 C.3       2 UNK         0.0481 
     23 CB         22.1642  -24.5710  -46.7884 C.3       2 UNK        -0.1831 
     24 N          20.1943  -24.8856  -45.3478 N.am      2 UNK        -0.4498 
     25 C          19.4623  -25.0092  -44.2311 C.2       1 UNK         0.5027 
     26 O          19.9565  -25.1171  -43.1074 O.2       1 UNK        -0.4969 
     27 C          21.6692  -28.9324  -43.3532 C.2       3 UNK         0.5005 
     28 O          22.4064  -29.6555  -42.6816 O.2       3 UNK        -0.5279 
     29 N          20.6115  -28.2836  -42.8429 N.am      4 UNK        -0.4463 
     30 CA         20.2625  -28.2910  -41.4195 C.3       4 UNK         0.0283 
     31 CB         18.8171  -27.8141  -41.2098 C.3       4 UNK        -0.1875 
     32 C          21.2486  -27.4641  -40.5821 C.2       4 UNK         0.4949 
     33 O          21.6859  -27.9346  -39.5331 O.2       4 UNK        -0.5039 
     34 N          21.6233  -26.2757  -41.0779 N.am      5 UNK        -0.4663 
     35 CA         22.6351  -25.4001  -40.4757 C.3       5 UNK         0.0242 
     36 CB         22.6582  -24.0552  -41.2192 C.3       5 UNK        -0.1982 
     37 C          24.0372  -26.0356  -40.4433 C.2       5 UNK         0.5017 
     38 O          24.7548  -25.8704  -39.4567 O.2       5 UNK        -0.5012 
     39 N          24.3800  -26.7856  -41.5000 N.am      6 UNK        -0.4439 
     40 CA         25.5948  -27.5999  -41.6035 C.3       6 UNK         0.0297 
     41 CB         25.8321  -27.9545  -43.0807 C.3       6 UNK        -0.2006 
     42 C          25.5639  -28.8840  -40.7487 C.2       6 UNK         0.4892 
     43 O          26.6057  -29.5281  -40.6184 O.2       6 UNK        -0.5089 
     44 N          24.3906  -29.2389  -40.2009 N.am      7 UNK        -0.4243 
     45 CA         24.0971  -30.4352  -39.4041 C.3       7 UNK         0.0196 
     46 CB         24.8624  -30.4114  -38.0637 C.3       7 UNK        -0.2007 
     47 C          24.2898  -31.7459  -40.1913 C.2       7 UNK         0.5020 
     48 O          24.7595  -32.7397  -39.6345 O.2       7 UNK        -0.5147 
     49 N          23.8965  -31.7401  -41.4725 N.am      8 UNK        -0.4734 
     50 CA         23.9517  -32.9025  -42.3667 C.3       8 UNK         0.0238 
     51 CB         23.9252  -32.4124  -43.8241 C.3       8 UNK        -0.1912 
     52 C          22.8208  -33.9193  -42.1161 C.2       8 UNK         0.5038 
     53 O          22.8623  -35.0124  -42.6820 O.2       8 UNK        -0.5046 
     54 N          21.8336  -33.5427  -41.2929 N.am      9 UNK        -0.4200 
     55 CA         20.6557  -34.3437  -40.9238 C.3       9 UNK         0.0839 
     56 C          20.9603  -35.6206  -40.0871 C.2       9 UNK         0.5513 
     57 N          22.1384  -35.7615  -39.4909 N.am      9 UNK        -0.7519 
     58 O          20.1075  -36.4976  -39.9775 O.2       9 UNK        -0.4960 
     59 C59        19.5726  -33.4834  -40.2164 C.3       10 UNK        -0.0876 
     60 S60        19.1876  -31.9371  -41.1038 S.3       10 UNK        -0.2414 
     61 C61        17.8097  -32.4661  -42.1585 C.3       10 UNK         0.0169 
     62 H62        18.9899  -22.2709  -43.1580 H         1 UNK         0.0903 
     63 H63        17.8111  -22.2973  -44.4825 H         1 UNK         0.0903 
     64 H64        17.5301  -21.2913  -43.0731 H         1 UNK         0.0903 
     65 H65        16.6981  -25.3475  -42.7236 H         1 UNK         0.3096 
     66 H66        17.6347  -24.4877  -45.2511 H         1 UNK         0.1121 
     67 H67        17.9075  -27.2275  -43.9132 H         1 UNK         0.0849 
     68 H68        18.1063  -26.9131  -45.6154 H         1 UNK         0.0849 
     69 H69        14.4656  -28.7281  -44.2283 H         1 UNK         0.0865 
     70 H70        15.4720  -28.0713  -42.9612 H         1 UNK         0.0865 
     71 H71        16.0962  -30.3414  -42.2468 H         1 UNK         0.1346 
     72 H72        19.0928  -32.3656  -44.5455 H         1 UNK         0.1412 
     73 H73        17.0269  -29.0198  -46.2266 H         1 UNK         0.1426 
     74 H74        18.3240  -30.7868  -47.6445 H         1 UNK         0.0716 
     75 H75        19.5525  -31.7126  -46.8176 H         1 UNK         0.0716 
     76 H76        22.3010  -30.1671  -46.4131 H         1 UNK         0.0695 
     77 H77        21.1860  -30.7111  -45.2114 H         1 UNK         0.0695 
     78 H78        23.0998  -28.7557  -44.8844 H         1 UNK         0.0983 
     79 H79        20.9171  -27.2859  -45.9629 H         1 UNK         0.3095 
     80 H80        22.0087  -24.0995  -44.7046 H         1 UNK         0.0454 
     81 H81        21.8270  -25.3084  -47.5178 H         1 UNK         0.0851 
     82 H82        23.2546  -24.5565  -46.8210 H         1 UNK         0.0851 
     83 H83        21.8206  -23.5905  -47.1183 H         1 UNK         0.0851 
     84 H84        19.7278  -24.8074  -46.2409 H         1 UNK         0.2976 
     85 H85        20.0806  -27.6762  -43.4462 H         1 UNK         0.3116 
     86 H86        20.3258  -29.3200  -41.0645 H         1 UNK         0.0646 
     87 H87        18.1126  -28.4383  -41.7575 H         1 UNK         0.0847 
     88 H88        18.6735  -26.7805  -41.5228 H         1 UNK         0.0847 
     89 H89        18.5425  -27.8721  -40.1558 H         1 UNK         0.0847 
     90 H90        21.1632  -25.9315  -41.9176 H         1 UNK         0.3040 
     91 H91        22.3369  -25.2141  -39.4415 H         1 UNK         0.1015 
     92 H92        23.3741  -23.3697  -40.7639 H         1 UNK         0.0786 
     93 H93        21.6817  -23.5709  -41.1921 H         1 UNK         0.0786 
     94 H94        22.9409  -24.1755  -42.2652 H         1 UNK         0.0786 
     95 H95        23.7628  -26.7823  -42.3077 H         1 UNK         0.3172 
     96 H96        26.4377  -26.9980  -41.2580 H         1 UNK         0.0595 
     97 H97        25.0364  -28.5881  -43.4725 H         1 UNK         0.0839 
     98 H98        26.7702  -28.4965  -43.2074 H         1 UNK         0.0839 
     99 H99        25.8890  -27.0607  -43.7022 H         1 UNK         0.0839 
    100 H100       23.5933  -28.6382  -40.3717 H         1 UNK         0.2998 
    101 H101       23.0326  -30.3831  -39.1709 H         1 UNK         0.0822 
    102 H102       24.6905  -29.4784  -37.5269 H         1 UNK         0.0787 
    103 H103       24.5359  -31.2235  -37.4131 H         1 UNK         0.0787 
    104 H104       25.9374  -30.5237  -38.2074 H         1 UNK         0.0787 
    105 H105       23.4714  -30.8951  -41.8559 H         1 UNK         0.3055 
    106 H106       24.8968  -33.4239  -42.1988 H         1 UNK         0.1106 
    107 H107       24.0603  -33.2427  -44.5184 H         1 UNK         0.0828 
    108 H108       24.7220  -31.6942  -44.0182 H         1 UNK         0.0828 
    109 H109       22.9760  -31.9363  -44.0690 H         1 UNK         0.0828 
    110 H110       21.8754  -32.6139  -40.9023 H         1 UNK         0.2931 
    111 H111       20.2243  -34.6978  -41.8621 H         1 UNK         0.0412 
    112 H112       22.8440  -35.0460  -39.5761 H         1 UNK         0.3472 
    113 H113       22.3247  -36.5935  -38.9531 H         1 UNK         0.3472 
    114 H114       18.6525  -34.0557  -40.0813 H         1 UNK         0.0970 
    115 H115       19.9049  -33.2109  -39.2129 H         1 UNK         0.0970 
    116 H116       16.9069  -32.5669  -41.5543 H         1 UNK         0.0612 
    117 H117       18.0216  -33.4535  -42.5717 H         1 UNK         0.0612 
@<TRIPOS>BOND
     1    1    2 1    
     2    1   62 1    
     3    1   63 1    
     4    1   64 1    
     5    2    3 2    
     6    2    4 am   BACKBONE|DICT|INTERRES
     7    4    5 1    
     8    4   65 1    
     9    5    6 1    
    10    5   25 1    
    11    5   66 1    
    12    6    7 1    
    13    6   67 1    
    14    6   68 1    
    15    7    8 1    
    16    8    9 1    
    17    8   69 1    
    18    8   70 1    
    19    9   10 ar   
    20    9   14 ar   
    21   10   11 ar   
    22   10   71 1    
    23   11   12 ar   
    24   11   61 1    
    25   12   13 ar   
    26   12   72 1    
    27   13   14 ar   
    28   13   15 1    
    29   14   73 1    
    30   15   16 1    
    31   15   74 1    
    32   15   75 1    
    33   16   17 1    
    34   17   18 1    
    35   17   76 1    
    36   17   77 1    
    37   18   19 1    
    38   18   27 1    
    39   18   78 1    
    40   19   20 am   BACKBONE|DICT|INTERRES
    41   19   79 1    
    42   20   21 2    
    43   20   22 1    
    44   22   23 1    
    45   22   24 1    
    46   22   80 1    
    47   23   81 1    
    48   23   82 1    
    49   23   83 1    
    50   24   25 am   BACKBONE|DICT|INTERRES
    51   24   84 1    
    52   25   26 2    
    53   27   28 2    
    54   27   29 am   BACKBONE|DICT|INTERRES
    55   29   30 1    
    56   29   85 1    
    57   30   31 1    
    58   30   32 1    
    59   30   86 1    
    60   31   87 1    
    61   31   88 1    
    62   31   89 1    
    63   32   33 2    
    64   32   34 am   BACKBONE|DICT|INTERRES
    65   34   35 1    
    66   34   90 1    
    67   35   36 1    
    68   35   37 1    
    69   35   91 1    
    70   36   92 1    
    71   36   93 1    
    72   36   94 1    
    73   37   38 2    
    74   37   39 am   BACKBONE|DICT|INTERRES
    75   39   40 1    
    76   39   95 1    
    77   40   41 1    
    78   40   42 1    
    79   40   96 1    
    80   41   97 1    
    81   41   98 1    
    82   41   99 1    
    83   42   43 2    
    84   42   44 am   BACKBONE|DICT|INTERRES
    85   44   45 1    
    86   44  100 1    
    87   45   46 1    
    88   45   47 1    
    89   45  101 1    
    90   46  102 1    
    91   46  103 1    
    92   46  104 1    
    93   47   48 2    
    94   47   49 am   BACKBONE|DICT|INTERRES
    95   49   50 1    
    96   49  105 1    
    97   50   51 1    
    98   50   52 1    
    99   50  106 1    
   100   51  107 1    
   101   51  108 1    
   102   51  109 1    
   103   52   53 2    
   104   52   54 am   BACKBONE|DICT|INTERRES
   105   54   55 1    
   106   54  110 1    
   107   55   56 1    
   108   55   59 1    
   109   55  111 1    
   110   56   57 am   BACKBONE|DICT|INTERRES
   111   56   58 2    
   112   57  112 1    
   113   57  113 1    
   114   59   60 1    
   115   59  114 1    
   116   59  115 1    
   117   60   61 1    
   118   61  116 1    
   119   61  117 1    
@<TRIPOS>SUBSTRUCTURE
     1 UNK         1 GROUP             0       ****    0 ROOT    
