@<TRIPOS>MOLECULE
3R8
117   119    1
SMALL
USER_CHARGES


@<TRIPOS>ATOM
      1 CA         20.0305  -29.1506  -38.4883 C.3       0 UNK        -0.2013 
      2 C          19.7760  -29.1073  -39.9867 C.2       0 UNK         0.4866 
      3 O          18.6239  -29.1633  -40.4175 O.2       0 UNK        -0.5176 
      4 N          20.8436  -28.9885  -40.7845 N.am      1 UNK        -0.4884 
      5 CA         20.8337  -28.8364  -42.2425 C.3       1 UNK         0.0853 
      6 C6         22.2453  -29.1527  -42.8019 C.3       10 UNK        -0.0849 
      7 S7         22.4620  -29.0444  -44.6102 S.3       10 UNK        -0.2776 
      8 C8         22.1562  -30.7583  -45.1415 C.3       10 UNK         0.0316 
      9 C9         20.6728  -30.9893  -45.3726 C.ar      10 UNK        -0.0863 
     10 C10        19.9482  -31.8780  -44.5749 C.ar      10 UNK        -0.1009 
     11 C11        18.5791  -32.0641  -44.7918 C.ar      10 UNK        -0.0712 
     12 C12        17.9336  -31.3340  -45.7975 C.ar      10 UNK        -0.0894 
     13 C13        18.6545  -30.4547  -46.6130 C.ar      10 UNK        -0.0745 
     14 C14        20.0274  -30.3084  -46.4067 C.ar      10 UNK        -0.0972 
     15 C15        17.9637  -29.6984  -47.7417 C.3       10 UNK         0.0209 
     16 S16        17.4127  -28.0341  -47.2390 S.3       10 UNK        -0.2568 
     17 C17        18.9417  -27.0465  -47.4198 C.3       10 UNK        -0.0983 
     18 CA         19.0106  -25.8283  -46.4648 C.3       3 UNK         0.0876 
     19 N          18.7462  -26.2084  -45.0759 N.am      3 UNK        -0.4424 
     20 C          18.4152  -25.3629  -44.0929 C.2       2 UNK         0.4918 
     21 O          18.2213  -24.1588  -44.2610 O.2       2 UNK        -0.4875 
     22 CA         18.2909  -25.9562  -42.6780 C.3       2 UNK         0.0481 
     23 CB         16.8120  -26.1499  -42.3085 C.3       2 UNK        -0.1831 
     24 N          18.9997  -27.2263  -42.4818 N.am      2 UNK        -0.4498 
     25 C          20.3196  -27.4253  -42.6035 C.2       1 UNK         0.5027 
     26 O          21.1080  -26.5434  -42.9432 O.2       1 UNK        -0.4969 
     27 C          20.3630  -25.0923  -46.6283 C.2       3 UNK         0.5005 
     28 O          20.5643  -24.4392  -47.6541 O.2       3 UNK        -0.5279 
     29 N          21.2644  -25.2104  -45.6422 N.am      4 UNK        -0.4463 
     30 CA         22.5790  -24.5762  -45.6057 C.3       4 UNK         0.0283 
     31 CB         23.6292  -25.5163  -46.2357 C.3       4 UNK        -0.1875 
     32 C          22.8673  -24.1651  -44.1524 C.2       4 UNK         0.4949 
     33 O          22.0796  -23.4084  -43.5819 O.2       4 UNK        -0.5039 
     34 N          23.9672  -24.6600  -43.5734 N.am      5 UNK        -0.4663 
     35 CA         24.3530  -24.4545  -42.1801 C.3       5 UNK         0.0242 
     36 CB         24.9817  -23.0578  -41.9943 C.3       5 UNK        -0.1982 
     37 C          25.3140  -25.5823  -41.7866 C.2       5 UNK         0.5017 
     38 O          26.5187  -25.4593  -42.0154 O.2       5 UNK        -0.5012 
     39 N          24.7662  -26.6745  -41.2446 N.am      6 UNK        -0.4439 
     40 CA         25.4901  -27.8642  -40.7959 C.3       6 UNK         0.0297 
     41 CB         25.9886  -28.6891  -42.0037 C.3       6 UNK        -0.2006 
     42 C          24.5782  -28.6933  -39.8781 C.2       6 UNK         0.4892 
     43 O          23.4010  -28.3584  -39.7144 O.2       6 UNK        -0.5089 
     44 N          25.1411  -29.7601  -39.3002 N.am      7 UNK        -0.4243 
     45 CA         24.4458  -30.7349  -38.4555 C.3       7 UNK         0.0196 
     46 CB         25.4949  -31.4296  -37.5645 C.3       7 UNK        -0.2007 
     47 C          23.6273  -31.7538  -39.2791 C.2       7 UNK         0.5020 
     48 O          23.5113  -31.6203  -40.4986 O.2       7 UNK        -0.5147 
     49 N          23.0936  -32.7688  -38.5844 N.am      8 UNK        -0.4734 
     50 CA         22.2272  -33.8448  -39.0880 C.3       8 UNK         0.0238 
     51 CB         22.9045  -34.6446  -40.2268 C.3       8 UNK        -0.1912 
     52 C          20.8108  -33.3369  -39.4239 C.2       8 UNK         0.5038 
     53 O          20.3648  -32.3608  -38.8182 O.2       8 UNK        -0.5046 
     54 N          20.1119  -34.0307  -40.3335 N.am      9 UNK        -0.4200 
     55 CA         18.6921  -33.8255  -40.6660 C.3       9 UNK         0.0839 
     56 C          17.7331  -34.1944  -39.4901 C.2       9 UNK         0.5513 
     57 N          16.4815  -33.7591  -39.5284 N.am      9 UNK        -0.7519 
     58 O          18.0972  -34.9177  -38.5643 O.2       9 UNK        -0.4960 
     59 C59        18.4341  -32.4235  -41.2987 C.3       10 UNK        -0.0876 
     60 S60        17.0472  -32.3929  -42.4863 S.3       10 UNK        -0.2414 
     61 C61        17.8066  -33.0954  -43.9825 C.3       10 UNK         0.0169 
     62 H62        19.7635  -28.1974  -38.0334 H         1 UNK         0.0903 
     63 H63        19.4262  -29.9312  -38.0268 H         1 UNK         0.0903 
     64 H64        21.0767  -29.3595  -38.2644 H         1 UNK         0.0903 
     65 H65        21.7617  -28.8901  -40.3528 H         1 UNK         0.3096 
     66 H66        20.1353  -29.5636  -42.6624 H         1 UNK         0.1121 
     67 H67        22.5614  -30.1421  -42.4701 H         1 UNK         0.0849 
     68 H68        22.9604  -28.4560  -42.3702 H         1 UNK         0.0849 
     69 H69        22.5650  -31.4625  -44.4151 H         1 UNK         0.0865 
     70 H70        22.6919  -30.9382  -46.0747 H         1 UNK         0.0865 
     71 H71        20.4527  -32.4364  -43.7985 H         1 UNK         0.1346 
     72 H72        16.8736  -31.4716  -45.9629 H         1 UNK         0.1412 
     73 H73        20.6075  -29.6588  -47.0455 H         1 UNK         0.1426 
     74 H74        17.0931  -30.2619  -48.0807 H         1 UNK         0.0716 
     75 H75        18.6245  -29.6204  -48.6066 H         1 UNK         0.0716 
     76 H76        19.0021  -26.7154  -48.4583 H         1 UNK         0.0695 
     77 H77        19.8079  -27.6840  -47.2593 H         1 UNK         0.0695 
     78 H78        18.2318  -25.1245  -46.7667 H         1 UNK         0.0983 
     79 H79        18.8474  -27.1880  -44.8553 H         1 UNK         0.3095 
     80 H80        18.7251  -25.2325  -41.9855 H         1 UNK         0.0454 
     81 H81        16.3285  -26.8843  -42.9541 H         1 UNK         0.0851 
     82 H82        16.2581  -25.2151  -42.4059 H         1 UNK         0.0851 
     83 H83        16.7004  -26.4843  -41.2769 H         1 UNK         0.0851 
     84 H84        18.4619  -27.9870  -42.0781 H         1 UNK         0.2976 
     85 H85        21.0133  -25.7149  -44.7957 H         1 UNK         0.3116 
     86 H86        22.5543  -23.6507  -46.1848 H         1 UNK         0.0646 
     87 H87        24.6186  -25.0573  -46.2460 H         1 UNK         0.0847 
     88 H88        23.3768  -25.7439  -47.2714 H         1 UNK         0.0847 
     89 H89        23.7008  -26.4646  -45.7019 H         1 UNK         0.0847 
     90 H90        24.5562  -25.2917  -44.0993 H         1 UNK         0.3040 
     91 H91        23.4645  -24.5224  -41.5475 H         1 UNK         0.1015 
     92 H92        24.2596  -22.2660  -42.1931 H         1 UNK         0.0786 
     93 H93        25.8338  -22.9059  -42.6581 H         1 UNK         0.0786 
     94 H94        25.3348  -22.9227  -40.9712 H         1 UNK         0.0786 
     95 H95        23.7718  -26.7029  -41.0509 H         1 UNK         0.3172 
     96 H96        26.3479  -27.5422  -40.2018 H         1 UNK         0.0595 
     97 H97        25.1676  -29.0483  -42.6231 H         1 UNK         0.0839 
     98 H98        26.5546  -29.5639  -41.6828 H         1 UNK         0.0839 
     99 H99        26.6519  -28.1061  -42.6423 H         1 UNK         0.0839 
    100 H100       26.1026  -29.9731  -39.5217 H         1 UNK         0.2998 
    101 H101       23.7457  -30.1976  -37.8118 H         1 UNK         0.0822 
    102 H102       26.0998  -30.7009  -37.0241 H         1 UNK         0.0787 
    103 H103       25.0288  -32.0670  -36.8126 H         1 UNK         0.0787 
    104 H104       26.1703  -32.0545  -38.1507 H         1 UNK         0.0787 
    105 H105       23.2241  -32.7658  -37.5824 H         1 UNK         0.3055 
    106 H106       22.0953  -34.5303  -38.2491 H         1 UNK         0.1106 
    107 H107       22.3877  -35.5863  -40.4138 H         1 UNK         0.0828 
    108 H108       22.9231  -34.0880  -41.1646 H         1 UNK         0.0828 
    109 H109       23.9337  -34.8974  -39.9720 H         1 UNK         0.0828 
    110 H110       20.5443  -34.8400  -40.7536 H         1 UNK         0.2931 
    111 H111       18.4951  -34.5806  -41.4270 H         1 UNK         0.0412 
    112 H112       16.1673  -33.1894  -40.3007 H         1 UNK         0.3472 
    113 H113       15.8454  -34.0057  -38.7862 H         1 UNK         0.3472 
    114 H114       19.3254  -32.0553  -41.8056 H         1 UNK         0.0970 
    115 H115       18.2325  -31.6945  -40.5138 H         1 UNK         0.0970 
    116 H116       17.0145  -33.5217  -44.5999 H         1 UNK         0.0612 
    117 H117       18.4561  -33.9300  -43.7154 H         1 UNK         0.0612 
@<TRIPOS>BOND
     1    1    2 1    
     2    1   62 1    
     3    1   63 1    
     4    1   64 1    
     5    2    3 2    
     6    2    4 am   BACKBONE|DICT|INTERRES
     7    4    5 1    
     8    4   65 1    
     9    5    6 1    
    10    5   25 1    
    11    5   66 1    
    12    6    7 1    
    13    6   67 1    
    14    6   68 1    
    15    7    8 1    
    16    8    9 1    
    17    8   69 1    
    18    8   70 1    
    19    9   10 ar   
    20    9   14 ar   
    21   10   11 ar   
    22   10   71 1    
    23   11   12 ar   
    24   11   61 1    
    25   12   13 ar   
    26   12   72 1    
    27   13   14 ar   
    28   13   15 1    
    29   14   73 1    
    30   15   16 1    
    31   15   74 1    
    32   15   75 1    
    33   16   17 1    
    34   17   18 1    
    35   17   76 1    
    36   17   77 1    
    37   18   19 1    
    38   18   27 1    
    39   18   78 1    
    40   19   20 am   BACKBONE|DICT|INTERRES
    41   19   79 1    
    42   20   21 2    
    43   20   22 1    
    44   22   23 1    
    45   22   24 1    
    46   22   80 1    
    47   23   81 1    
    48   23   82 1    
    49   23   83 1    
    50   24   25 am   BACKBONE|DICT|INTERRES
    51   24   84 1    
    52   25   26 2    
    53   27   28 2    
    54   27   29 am   BACKBONE|DICT|INTERRES
    55   29   30 1    
    56   29   85 1    
    57   30   31 1    
    58   30   32 1    
    59   30   86 1    
    60   31   87 1    
    61   31   88 1    
    62   31   89 1    
    63   32   33 2    
    64   32   34 am   BACKBONE|DICT|INTERRES
    65   34   35 1    
    66   34   90 1    
    67   35   36 1    
    68   35   37 1    
    69   35   91 1    
    70   36   92 1    
    71   36   93 1    
    72   36   94 1    
    73   37   38 2    
    74   37   39 am   BACKBONE|DICT|INTERRES
    75   39   40 1    
    76   39   95 1    
    77   40   41 1    
    78   40   42 1    
    79   40   96 1    
    80   41   97 1    
    81   41   98 1    
    82   41   99 1    
    83   42   43 2    
    84   42   44 am   BACKBONE|DICT|INTERRES
    85   44   45 1    
    86   44  100 1    
    87   45   46 1    
    88   45   47 1    
    89   45  101 1    
    90   46  102 1    
    91   46  103 1    
    92   46  104 1    
    93   47   48 2    
    94   47   49 am   BACKBONE|DICT|INTERRES
    95   49   50 1    
    96   49  105 1    
    97   50   51 1    
    98   50   52 1    
    99   50  106 1    
   100   51  107 1    
   101   51  108 1    
   102   51  109 1    
   103   52   53 2    
   104   52   54 am   BACKBONE|DICT|INTERRES
   105   54   55 1    
   106   54  110 1    
   107   55   56 1    
   108   55   59 1    
   109   55  111 1    
   110   56   57 am   BACKBONE|DICT|INTERRES
   111   56   58 2    
   112   57  112 1    
   113   57  113 1    
   114   59   60 1    
   115   59  114 1    
   116   59  115 1    
   117   60   61 1    
   118   61  116 1    
   119   61  117 1    
@<TRIPOS>SUBSTRUCTURE
     1 UNK         1 GROUP             0       ****    0 ROOT    
