@<TRIPOS>MOLECULE
3R8
117   119    1
SMALL
USER_CHARGES


@<TRIPOS>ATOM
      1 CA         14.1994  -29.8147  -47.9025 C.3       0 UNK        -0.2013 
      2 C          15.3338  -29.5476  -46.9245 C.2       0 UNK         0.4866 
      3 O          16.2586  -30.3542  -46.8256 O.2       0 UNK        -0.5176 
      4 N          15.2649  -28.4265  -46.1960 N.am      1 UNK        -0.4884 
      5 CA         16.2831  -27.9845  -45.2375 C.3       1 UNK         0.0853 
      6 C6         15.7597  -26.8447  -44.3281 C.3       10 UNK        -0.0849 
      7 S7         14.3834  -27.4102  -43.2694 S.3       10 UNK        -0.2776 
      8 C8         15.0102  -27.0676  -41.5861 C.3       10 UNK         0.0316 
      9 C9         16.3467  -27.7300  -41.2515 C.ar      10 UNK        -0.0863 
     10 C10        16.6583  -29.0195  -41.6956 C.ar      10 UNK        -0.1009 
     11 C11        17.8922  -29.5989  -41.3895 C.ar      10 UNK        -0.0712 
     12 C12        18.8065  -28.9011  -40.5960 C.ar      10 UNK        -0.0894 
     13 C13        18.5038  -27.6178  -40.1291 C.ar      10 UNK        -0.0745 
     14 C14        17.2749  -27.0401  -40.4650 C.ar      10 UNK        -0.0972 
     15 C15        19.4839  -26.8471  -39.2482 C.3       10 UNK         0.0209 
     16 S16        21.1958  -26.8187  -39.8801 S.3       10 UNK        -0.2568 
     17 C17        20.9880  -26.1597  -41.5694 C.3       10 UNK        -0.0983 
     18 CA         21.5986  -27.1163  -42.6275 C.3       3 UNK         0.0876 
     19 N          20.8618  -27.0747  -43.8939 N.am      3 UNK        -0.4424 
     20 C          21.0478  -27.9183  -44.9188 C.2       2 UNK         0.4918 
     21 O          21.9146  -28.7924  -44.9489 O.2       2 UNK        -0.4875 
     22 CA         20.0391  -27.7910  -46.0663 C.3       2 UNK         0.0481 
     23 CB         20.3332  -28.7397  -47.2449 C.3       2 UNK        -0.1831 
     24 N          18.7112  -28.0659  -45.5259 N.am      2 UNK        -0.4498 
     25 C          17.5639  -27.5487  -45.9748 C.2       1 UNK         0.5027 
     26 O          17.4867  -26.7490  -46.9111 O.2       1 UNK        -0.4969 
     27 C          23.1102  -26.8608  -42.7901 C.2       3 UNK         0.5005 
     28 O          23.9014  -27.5039  -42.1028 O.2       3 UNK        -0.5279 
     29 N          23.4878  -25.9345  -43.6869 N.am      4 UNK        -0.4463 
     30 CA         24.8620  -25.4745  -43.9274 C.3       4 UNK         0.0283 
     31 CB         25.6907  -26.5763  -44.6287 C.3       4 UNK        -0.1875 
     32 C          25.4905  -24.9346  -42.6254 C.2       4 UNK         0.4949 
     33 O          25.0218  -23.9116  -42.1241 O.2       4 UNK        -0.5039 
     34 N          26.5031  -25.6302  -42.0899 N.am      5 UNK        -0.4663 
     35 CA         27.0609  -25.3783  -40.7606 C.3       5 UNK         0.0242 
     36 CB         28.4713  -25.9871  -40.6610 C.3       5 UNK        -0.1982 
     37 C          26.1272  -25.9104  -39.6584 C.2       5 UNK         0.5017 
     38 O          25.6134  -25.1173  -38.8687 O.2       5 UNK        -0.5012 
     39 N          25.9234  -27.2349  -39.6377 N.am      6 UNK        -0.4439 
     40 CA         25.0613  -27.9650  -38.7033 C.3       6 UNK         0.0297 
     41 CB         25.6105  -27.8862  -37.2597 C.3       6 UNK        -0.2006 
     42 C          24.8880  -29.4177  -39.1844 C.2       6 UNK         0.4892 
     43 O          25.0951  -30.3543  -38.4097 O.2       6 UNK        -0.5089 
     44 N          24.5599  -29.5883  -40.4706 N.am      7 UNK        -0.4243 
     45 CA         24.3392  -30.8838  -41.1131 C.3       7 UNK         0.0196 
     46 CB         24.4347  -30.7105  -42.6388 C.3       7 UNK        -0.2007 
     47 C          22.9777  -31.4863  -40.7322 C.2       7 UNK         0.5020 
     48 O          22.0292  -30.7554  -40.4423 O.2       7 UNK        -0.5147 
     49 N          22.8983  -32.8207  -40.7946 N.am      8 UNK        -0.4734 
     50 CA         21.6860  -33.6017  -40.5213 C.3       8 UNK         0.0238 
     51 CB         22.1028  -34.9903  -40.0045 C.3       8 UNK        -0.1912 
     52 C          20.7452  -33.7316  -41.7364 C.2       8 UNK         0.5038 
     53 O          19.7015  -34.3728  -41.6101 O.2       8 UNK        -0.5046 
     54 N          21.1279  -33.1480  -42.8817 N.am      9 UNK        -0.4200 
     55 CA         20.4194  -33.1953  -44.1750 C.3       9 UNK         0.0839 
     56 C          20.4297  -34.5950  -44.8640 C.2       9 UNK         0.5513 
     57 N          21.2878  -35.5253  -44.4618 N.am      9 UNK        -0.7519 
     58 O          19.6727  -34.8365  -45.8009 O.2       9 UNK        -0.4960 
     59 C59        18.9958  -32.5657  -44.1307 C.3       10 UNK        -0.0876 
     60 S60        18.9942  -30.8273  -43.5793 S.3       10 UNK        -0.2414 
     61 C61        18.2386  -30.9727  -41.9331 C.3       10 UNK         0.0169 
     62 H62        13.7127  -30.7598  -47.6631 H         1 UNK         0.0903 
     63 H63        13.4447  -29.0288  -47.8770 H         1 UNK         0.0903 
     64 H64        14.5879  -29.8790  -48.9185 H         1 UNK         0.0903 
     65 H65        14.4854  -27.7967  -46.3220 H         1 UNK         0.3096 
     66 H66        16.5312  -28.8408  -44.6062 H         1 UNK         0.1121 
     67 H67        16.5622  -26.4556  -43.6984 H         1 UNK         0.0849 
     68 H68        15.4136  -25.9999  -44.9268 H         1 UNK         0.0849 
     69 H69        15.0838  -25.9853  -41.4675 H         1 UNK         0.0865 
     70 H70        14.2668  -27.4044  -40.8626 H         1 UNK         0.0865 
     71 H71        15.9478  -29.5705  -42.2962 H         1 UNK         0.1346 
     72 H72        19.7595  -29.3516  -40.3526 H         1 UNK         0.1412 
     73 H73        17.0363  -26.0481  -40.1054 H         1 UNK         0.1426 
     74 H74        19.4870  -27.2966  -38.2545 H         1 UNK         0.0716 
     75 H75        19.1542  -25.8153  -39.1172 H         1 UNK         0.0716 
     76 H76        21.4260  -25.1605  -41.6191 H         1 UNK         0.0695 
     77 H77        19.9240  -26.0145  -41.7582 H         1 UNK         0.0695 
     78 H78        21.4937  -28.1434  -42.2667 H         1 UNK         0.0983 
     79 H79        20.1143  -26.3994  -43.9579 H         1 UNK         0.3095 
     80 H80        20.0875  -26.7611  -46.4261 H         1 UNK         0.0454 
     81 H81        21.3311  -28.5647  -47.6484 H         1 UNK         0.0851 
     82 H82        19.6237  -28.5932  -48.0592 H         1 UNK         0.0851 
     83 H83        20.2804  -29.7859  -46.9404 H         1 UNK         0.0851 
     84 H84        18.6903  -28.7228  -44.7540 H         1 UNK         0.2976 
     85 H85        22.7631  -25.4411  -44.1888 H         1 UNK         0.3116 
     86 H86        24.7950  -24.6268  -44.6110 H         1 UNK         0.0646 
     87 H87        26.7014  -26.2298  -44.8486 H         1 UNK         0.0847 
     88 H88        25.2371  -26.8548  -45.5799 H         1 UNK         0.0847 
     89 H89        25.7710  -27.4850  -44.0314 H         1 UNK         0.0847 
     90 H90        26.8058  -26.4675  -42.5652 H         1 UNK         0.3040 
     91 H91        27.1550  -24.2988  -40.6190 H         1 UNK         0.1015 
     92 H92        28.8906  -25.8359  -39.6652 H         1 UNK         0.0786 
     93 H93        29.1523  -25.5171  -41.3709 H         1 UNK         0.0786 
     94 H94        28.4755  -27.0595  -40.8578 H         1 UNK         0.0786 
     95 H95        26.3605  -27.8004  -40.3521 H         1 UNK         0.3172 
     96 H96        24.0712  -27.5056  -38.7246 H         1 UNK         0.0595 
     97 H97        26.6182  -28.2973  -37.1923 H         1 UNK         0.0839 
     98 H98        24.9802  -28.4489  -36.5697 H         1 UNK         0.0839 
     99 H99        25.6413  -26.8621  -36.8894 H         1 UNK         0.0839 
    100 H100       24.3351  -28.7661  -41.0355 H         1 UNK         0.2998 
    101 H101       25.1298  -31.5646  -40.7894 H         1 UNK         0.0822 
    102 H102       25.3787  -30.2486  -42.9283 H         1 UNK         0.0787 
    103 H103       23.6273  -30.0860  -43.0247 H         1 UNK         0.0787 
    104 H104       24.3753  -31.6718  -43.1501 H         1 UNK         0.0787 
    105 H105       23.7229  -33.3458  -41.0519 H         1 UNK         0.3055 
    106 H106       21.1143  -33.1045  -39.7340 H         1 UNK         0.1106 
    107 H107       22.6614  -35.5514  -40.7544 H         1 UNK         0.0828 
    108 H108       22.7235  -34.9114  -39.1117 H         1 UNK         0.0828 
    109 H109       21.2307  -35.5877  -39.7346 H         1 UNK         0.0828 
    110 H110       21.9987  -32.6398  -42.8803 H         1 UNK         0.2931 
    111 H111       21.0161  -32.5686  -44.8389 H         1 UNK         0.0412 
    112 H112       21.9257  -35.3417  -43.7047 H         1 UNK         0.3472 
    113 H113       21.2937  -36.4225  -44.9216 H         1 UNK         0.3472 
    114 H114       18.5496  -32.5721  -45.1269 H         1 UNK         0.0970 
    115 H115       18.3271  -33.1613  -43.5081 H         1 UNK         0.0970 
    116 H116       17.3385  -31.5867  -41.9909 H         1 UNK         0.0612 
    117 H117       18.9259  -31.4838  -41.2584 H         1 UNK         0.0612 
@<TRIPOS>BOND
     1    1    2 1    
     2    1   62 1    
     3    1   63 1    
     4    1   64 1    
     5    2    3 2    
     6    2    4 am   BACKBONE|DICT|INTERRES
     7    4    5 1    
     8    4   65 1    
     9    5    6 1    
    10    5   25 1    
    11    5   66 1    
    12    6    7 1    
    13    6   67 1    
    14    6   68 1    
    15    7    8 1    
    16    8    9 1    
    17    8   69 1    
    18    8   70 1    
    19    9   10 ar   
    20    9   14 ar   
    21   10   11 ar   
    22   10   71 1    
    23   11   12 ar   
    24   11   61 1    
    25   12   13 ar   
    26   12   72 1    
    27   13   14 ar   
    28   13   15 1    
    29   14   73 1    
    30   15   16 1    
    31   15   74 1    
    32   15   75 1    
    33   16   17 1    
    34   17   18 1    
    35   17   76 1    
    36   17   77 1    
    37   18   19 1    
    38   18   27 1    
    39   18   78 1    
    40   19   20 am   BACKBONE|DICT|INTERRES
    41   19   79 1    
    42   20   21 2    
    43   20   22 1    
    44   22   23 1    
    45   22   24 1    
    46   22   80 1    
    47   23   81 1    
    48   23   82 1    
    49   23   83 1    
    50   24   25 am   BACKBONE|DICT|INTERRES
    51   24   84 1    
    52   25   26 2    
    53   27   28 2    
    54   27   29 am   BACKBONE|DICT|INTERRES
    55   29   30 1    
    56   29   85 1    
    57   30   31 1    
    58   30   32 1    
    59   30   86 1    
    60   31   87 1    
    61   31   88 1    
    62   31   89 1    
    63   32   33 2    
    64   32   34 am   BACKBONE|DICT|INTERRES
    65   34   35 1    
    66   34   90 1    
    67   35   36 1    
    68   35   37 1    
    69   35   91 1    
    70   36   92 1    
    71   36   93 1    
    72   36   94 1    
    73   37   38 2    
    74   37   39 am   BACKBONE|DICT|INTERRES
    75   39   40 1    
    76   39   95 1    
    77   40   41 1    
    78   40   42 1    
    79   40   96 1    
    80   41   97 1    
    81   41   98 1    
    82   41   99 1    
    83   42   43 2    
    84   42   44 am   BACKBONE|DICT|INTERRES
    85   44   45 1    
    86   44  100 1    
    87   45   46 1    
    88   45   47 1    
    89   45  101 1    
    90   46  102 1    
    91   46  103 1    
    92   46  104 1    
    93   47   48 2    
    94   47   49 am   BACKBONE|DICT|INTERRES
    95   49   50 1    
    96   49  105 1    
    97   50   51 1    
    98   50   52 1    
    99   50  106 1    
   100   51  107 1    
   101   51  108 1    
   102   51  109 1    
   103   52   53 2    
   104   52   54 am   BACKBONE|DICT|INTERRES
   105   54   55 1    
   106   54  110 1    
   107   55   56 1    
   108   55   59 1    
   109   55  111 1    
   110   56   57 am   BACKBONE|DICT|INTERRES
   111   56   58 2    
   112   57  112 1    
   113   57  113 1    
   114   59   60 1    
   115   59  114 1    
   116   59  115 1    
   117   60   61 1    
   118   61  116 1    
   119   61  117 1    
@<TRIPOS>SUBSTRUCTURE
     1 UNK         1 GROUP             0       ****    0 ROOT    
