@<TRIPOS>MOLECULE
3R8
117   119    1
SMALL
USER_CHARGES


@<TRIPOS>ATOM
      1 CA         14.8114  -21.9129  -43.2775 C.3       0 UNK        -0.2013 
      2 C          15.7763  -22.7492  -44.1045 C.2       0 UNK         0.4866 
      3 O          16.0973  -22.3775  -45.2345 O.2       0 UNK        -0.5176 
      4 N          16.2416  -23.8781  -43.5550 N.am      1 UNK        -0.4884 
      5 CA         17.1974  -24.7873  -44.1927 C.3       1 UNK         0.0853 
      6 C6         17.1131  -26.2250  -43.6131 C.3       10 UNK        -0.0849 
      7 S7         15.7199  -27.1439  -44.3448 S.3       10 UNK        -0.2776 
      8 C8         15.7724  -28.7142  -43.4119 C.3       10 UNK         0.0316 
      9 C9         17.0216  -29.5805  -43.6043 C.ar      10 UNK        -0.0863 
     10 C10        17.3028  -30.5462  -42.6326 C.ar      10 UNK        -0.1009 
     11 C11        18.4185  -31.3783  -42.7457 C.ar      10 UNK        -0.0712 
     12 C12        19.2661  -31.2347  -43.8464 C.ar      10 UNK        -0.0894 
     13 C13        19.0125  -30.2770  -44.8332 C.ar      10 UNK        -0.0745 
     14 C14        17.8713  -29.4691  -44.7162 C.ar      10 UNK        -0.0972 
     15 C15        19.9969  -30.1843  -46.0038 C.3       10 UNK         0.0209 
     16 S16        19.9386  -28.6664  -47.0260 S.3       10 UNK        -0.2568 
     17 C17        20.2500  -27.3324  -45.8241 C.3       10 UNK        -0.0983 
     18 CA         21.5716  -26.5401  -46.0619 C.3       3 UNK         0.0876 
     19 N          21.4125  -25.1597  -45.6172 N.am      3 UNK        -0.4424 
     20 C          20.8256  -24.1869  -46.3157 C.2       2 UNK         0.4918 
     21 O          20.5608  -24.2600  -47.5168 O.2       2 UNK        -0.4875 
     22 CA         20.3127  -22.9961  -45.4872 C.3       2 UNK         0.0481 
     23 CB         20.3082  -21.6831  -46.2890 C.3       2 UNK        -0.1831 
     24 N          18.9463  -23.3151  -45.0680 N.am      2 UNK        -0.4498 
     25 C          18.6271  -24.2151  -44.1269 C.2       1 UNK         0.5027 
     26 O          19.4190  -24.6227  -43.2743 O.2       1 UNK        -0.4969 
     27 C          22.7530  -27.1595  -45.2954 C.2       3 UNK         0.5005 
     28 O          23.3066  -26.5287  -44.3900 O.2       3 UNK        -0.5279 
     29 N          23.0638  -28.4237  -45.6080 N.am      4 UNK        -0.4463 
     30 CA         24.0126  -29.2781  -44.8795 C.3       4 UNK         0.0283 
     31 CB         24.3490  -30.5014  -45.7498 C.3       4 UNK        -0.1875 
     32 C          23.5260  -29.7245  -43.4818 C.2       4 UNK         0.4949 
     33 O          24.2149  -30.5130  -42.8336 O.2       4 UNK        -0.5039 
     34 N          22.3612  -29.2245  -43.0396 N.am      5 UNK        -0.4663 
     35 CA         21.6653  -29.5113  -41.7804 C.3       5 UNK         0.0242 
     36 CB         20.4896  -28.5326  -41.6237 C.3       5 UNK        -0.1982 
     37 C          22.5510  -29.4766  -40.5275 C.2       5 UNK         0.5017 
     38 O          22.3846  -30.3284  -39.6573 O.2       5 UNK        -0.5012 
     39 N          23.5127  -28.5436  -40.4870 N.am      6 UNK        -0.4439 
     40 CA         24.5080  -28.3971  -39.4191 C.3       6 UNK         0.0297 
     41 CB         25.3994  -27.1827  -39.7244 C.3       6 UNK        -0.2006 
     42 C          25.3738  -29.6499  -39.1729 C.2       6 UNK         0.4892 
     43 O          25.8334  -29.8413  -38.0465 O.2       6 UNK        -0.5089 
     44 N          25.5661  -30.4755  -40.2105 N.am      7 UNK        -0.4243 
     45 CA         26.2298  -31.7760  -40.1300 C.3       7 UNK         0.0196 
     46 CB         27.2762  -31.8762  -41.2524 C.3       7 UNK        -0.2007 
     47 C          25.2179  -32.9268  -40.2436 C.2       7 UNK         0.5020 
     48 O          25.3806  -33.9396  -39.5631 O.2       7 UNK        -0.5147 
     49 N          24.2131  -32.7727  -41.1173 N.am      8 UNK        -0.4734 
     50 CA         23.2616  -33.8244  -41.4816 C.3       8 UNK         0.0238 
     51 CB         22.5756  -33.4453  -42.8036 C.3       8 UNK        -0.1912 
     52 C          22.2126  -34.1591  -40.4073 C.2       8 UNK         0.5038 
     53 O          21.7334  -35.2944  -40.3985 O.2       8 UNK        -0.5046 
     54 N          21.8535  -33.1994  -39.5452 N.am      9 UNK        -0.4200 
     55 CA         20.8096  -33.3742  -38.5198 C.3       9 UNK         0.0839 
     56 C          20.9980  -32.5307  -37.2295 C.2       9 UNK         0.5513 
     57 N          21.8107  -31.4840  -37.2166 N.am      9 UNK        -0.7519 
     58 O          20.4138  -32.8577  -36.1992 O.2       9 UNK        -0.4960 
     59 C59        19.3692  -33.2728  -39.0979 C.3       10 UNK        -0.0876 
     60 S60        19.0547  -31.7489  -40.0603 S.3       10 UNK        -0.2414 
     61 C61        18.6866  -32.4525  -41.6990 C.3       10 UNK         0.0169 
     62 H62        15.2242  -20.9181  -43.1124 H         1 UNK         0.0903 
     63 H63        13.8632  -21.8055  -43.8035 H         1 UNK         0.0903 
     64 H64        14.6107  -22.3629  -42.3054 H         1 UNK         0.0903 
     65 H65        15.9552  -24.1297  -42.6194 H         1 UNK         0.3096 
     66 H66        16.9511  -24.8537  -45.2559 H         1 UNK         0.1121 
     67 H67        18.0194  -26.7926  -43.8288 H         1 UNK         0.0849 
     68 H68        17.0218  -26.2092  -42.5256 H         1 UNK         0.0849 
     69 H69        15.6488  -28.4809  -42.3530 H         1 UNK         0.0865 
     70 H70        14.9022  -29.3070  -43.6965 H         1 UNK         0.0865 
     71 H71        16.6470  -30.6581  -41.7795 H         1 UNK         0.1346 
     72 H72        20.1282  -31.8791  -43.9428 H         1 UNK         0.1412 
     73 H73        17.6476  -28.7479  -45.4882 H         1 UNK         0.1426 
     74 H74        19.8178  -31.0357  -46.6618 H         1 UNK         0.0716 
     75 H75        21.0116  -30.3052  -45.6255 H         1 UNK         0.0716 
     76 H76        19.3919  -26.6672  -45.9290 H         1 UNK         0.0695 
     77 H77        20.1853  -27.7091  -44.8021 H         1 UNK         0.0695 
     78 H78        21.8278  -26.5366  -47.1240 H         1 UNK         0.0983 
     79 H79        21.6438  -25.0093  -44.6428 H         1 UNK         0.3095 
     80 H80        20.9475  -22.8631  -44.6085 H         1 UNK         0.0454 
     81 H81        19.6663  -21.7423  -47.1690 H         1 UNK         0.0851 
     82 H82        19.9606  -20.8494  -45.6790 H         1 UNK         0.0851 
     83 H83        21.3128  -21.4359  -46.6343 H         1 UNK         0.0851 
     84 H84        18.2015  -22.9910  -45.6737 H         1 UNK         0.2976 
     85 H85        22.5554  -28.8624  -46.3638 H         1 UNK         0.3116 
     86 H86        24.9313  -28.7085  -44.7256 H         1 UNK         0.0646 
     87 H87        23.4745  -31.1302  -45.9207 H         1 UNK         0.0847 
     88 H88        25.1078  -31.1252  -45.2747 H         1 UNK         0.0847 
     89 H89        24.7452  -30.2031  -46.7206 H         1 UNK         0.0847 
     90 H90        21.9015  -28.5635  -43.6453 H         1 UNK         0.3040 
     91 H91        21.2584  -30.5196  -41.8533 H         1 UNK         0.1015 
     92 H92        19.7801  -28.6239  -42.4453 H         1 UNK         0.0786 
     93 H93        20.8252  -27.4954  -41.5857 H         1 UNK         0.0786 
     94 H94        19.9363  -28.7323  -40.7048 H         1 UNK         0.0786 
     95 H95        23.5793  -27.9038  -41.2660 H         1 UNK         0.3172 
     96 H96        23.9617  -28.1966  -38.4952 H         1 UNK         0.0595 
     97 H97        24.8134  -26.2664  -39.7988 H         1 UNK         0.0839 
     98 H98        25.9480  -27.3093  -40.6587 H         1 UNK         0.0839 
     99 H99        26.1352  -27.0298  -38.9334 H         1 UNK         0.0839 
    100 H100       25.1293  -30.2480  -41.0979 H         1 UNK         0.2998 
    101 H101       26.7474  -31.8843  -39.1743 H         1 UNK         0.0822 
    102 H102       28.0367  -31.1015  -41.1528 H         1 UNK         0.0787 
    103 H103       27.7882  -32.8391  -41.2247 H         1 UNK         0.0787 
    104 H104       26.8227  -31.7744  -42.2396 H         1 UNK         0.0787 
    105 H105       24.1761  -31.9212  -41.6728 H         1 UNK         0.3055 
    106 H106       23.8327  -34.7396  -41.6551 H         1 UNK         0.1106 
    107 H107       22.0193  -32.5149  -42.7103 H         1 UNK         0.0828 
    108 H108       23.3024  -33.3203  -43.6065 H         1 UNK         0.0828 
    109 H109       21.8732  -34.2181  -43.1192 H         1 UNK         0.0828 
    110 H110       22.2622  -32.2737  -39.6162 H         1 UNK         0.2931 
    111 H111       20.9162  -34.3966  -38.1508 H         1 UNK         0.0412 
    112 H112       22.1842  -31.1067  -38.0840 H         1 UNK         0.3472 
    113 H113       21.9277  -30.9690  -36.3590 H         1 UNK         0.3472 
    114 H114       18.6258  -33.3382  -38.3013 H         1 UNK         0.0970 
    115 H115       19.1797  -34.1411  -39.7303 H         1 UNK         0.0970 
    116 H116       19.5189  -33.0884  -42.0047 H         1 UNK         0.0612 
    117 H117       17.8120  -33.1000  -41.6225 H         1 UNK         0.0612 
@<TRIPOS>BOND
     1    1    2 1    
     2    1   62 1    
     3    1   63 1    
     4    1   64 1    
     5    2    3 2    
     6    2    4 am   BACKBONE|DICT|INTERRES
     7    4    5 1    
     8    4   65 1    
     9    5    6 1    
    10    5   25 1    
    11    5   66 1    
    12    6    7 1    
    13    6   67 1    
    14    6   68 1    
    15    7    8 1    
    16    8    9 1    
    17    8   69 1    
    18    8   70 1    
    19    9   10 ar   
    20    9   14 ar   
    21   10   11 ar   
    22   10   71 1    
    23   11   12 ar   
    24   11   61 1    
    25   12   13 ar   
    26   12   72 1    
    27   13   14 ar   
    28   13   15 1    
    29   14   73 1    
    30   15   16 1    
    31   15   74 1    
    32   15   75 1    
    33   16   17 1    
    34   17   18 1    
    35   17   76 1    
    36   17   77 1    
    37   18   19 1    
    38   18   27 1    
    39   18   78 1    
    40   19   20 am   BACKBONE|DICT|INTERRES
    41   19   79 1    
    42   20   21 2    
    43   20   22 1    
    44   22   23 1    
    45   22   24 1    
    46   22   80 1    
    47   23   81 1    
    48   23   82 1    
    49   23   83 1    
    50   24   25 am   BACKBONE|DICT|INTERRES
    51   24   84 1    
    52   25   26 2    
    53   27   28 2    
    54   27   29 am   BACKBONE|DICT|INTERRES
    55   29   30 1    
    56   29   85 1    
    57   30   31 1    
    58   30   32 1    
    59   30   86 1    
    60   31   87 1    
    61   31   88 1    
    62   31   89 1    
    63   32   33 2    
    64   32   34 am   BACKBONE|DICT|INTERRES
    65   34   35 1    
    66   34   90 1    
    67   35   36 1    
    68   35   37 1    
    69   35   91 1    
    70   36   92 1    
    71   36   93 1    
    72   36   94 1    
    73   37   38 2    
    74   37   39 am   BACKBONE|DICT|INTERRES
    75   39   40 1    
    76   39   95 1    
    77   40   41 1    
    78   40   42 1    
    79   40   96 1    
    80   41   97 1    
    81   41   98 1    
    82   41   99 1    
    83   42   43 2    
    84   42   44 am   BACKBONE|DICT|INTERRES
    85   44   45 1    
    86   44  100 1    
    87   45   46 1    
    88   45   47 1    
    89   45  101 1    
    90   46  102 1    
    91   46  103 1    
    92   46  104 1    
    93   47   48 2    
    94   47   49 am   BACKBONE|DICT|INTERRES
    95   49   50 1    
    96   49  105 1    
    97   50   51 1    
    98   50   52 1    
    99   50  106 1    
   100   51  107 1    
   101   51  108 1    
   102   51  109 1    
   103   52   53 2    
   104   52   54 am   BACKBONE|DICT|INTERRES
   105   54   55 1    
   106   54  110 1    
   107   55   56 1    
   108   55   59 1    
   109   55  111 1    
   110   56   57 am   BACKBONE|DICT|INTERRES
   111   56   58 2    
   112   57  112 1    
   113   57  113 1    
   114   59   60 1    
   115   59  114 1    
   116   59  115 1    
   117   60   61 1    
   118   61  116 1    
   119   61  117 1    
@<TRIPOS>SUBSTRUCTURE
     1 UNK         1 GROUP             0       ****    0 ROOT    
