@<TRIPOS>MOLECULE
3R8
117   119    1
SMALL
USER_CHARGES


@<TRIPOS>ATOM
      1 CA         15.9576  -22.4032  -44.5240 C.3       0 UNK        -0.2013 
      2 C          16.5881  -23.5567  -43.7581 C.2       0 UNK         0.4866 
      3 O          16.8914  -23.4066  -42.5745 O.2       0 UNK        -0.5176 
      4 N          16.7897  -24.6995  -44.4308 N.am      1 UNK        -0.4884 
      5 CA         17.3620  -25.9454  -43.8913 C.3       1 UNK         0.0853 
      6 C6         16.4675  -26.6316  -42.8221 C.3       10 UNK        -0.0849 
      7 S7         14.8480  -27.1090  -43.5158 S.3       10 UNK        -0.2776 
      8 C8         14.8690  -28.9265  -43.3250 C.3       10 UNK         0.0316 
      9 C9         15.9862  -29.6472  -44.0821 C.ar      10 UNK        -0.0863 
     10 C10        16.5788  -30.7774  -43.5049 C.ar      10 UNK        -0.1009 
     11 C11        17.5610  -31.5007  -44.1885 C.ar      10 UNK        -0.0712 
     12 C12        17.9490  -31.0817  -45.4638 C.ar      10 UNK        -0.0894 
     13 C13        17.4022  -29.9328  -46.0381 C.ar      10 UNK        -0.0745 
     14 C14        16.4029  -29.2332  -45.3549 C.ar      10 UNK        -0.0972 
     15 C15        17.9045  -29.4577  -47.3951 C.3       10 UNK         0.0209 
     16 S16        19.2024  -28.1824  -47.2470 S.3       10 UNK        -0.2568 
     17 C17        20.5087  -29.0517  -46.3028 C.3       10 UNK        -0.0983 
     18 CA         21.6831  -28.1378  -45.8654 C.3       3 UNK         0.0876 
     19 N          21.1810  -26.9079  -45.2504 N.am      3 UNK        -0.4424 
     20 C          21.8666  -25.9302  -44.6437 C.2       2 UNK         0.4918 
     21 O          23.0951  -25.9011  -44.5614 O.2       2 UNK        -0.4875 
     22 CA         21.0396  -24.7738  -44.0416 C.3       2 UNK         0.0481 
     23 CB         21.4356  -23.4323  -44.6801 C.3       2 UNK        -0.1831 
     24 N          19.5894  -24.9585  -44.1866 N.am      2 UNK        -0.4498 
     25 C          18.8318  -25.7810  -43.4440 C.2       1 UNK         0.5027 
     26 O          19.2649  -26.4196  -42.4858 O.2       1 UNK        -0.4969 
     27 C          22.6074  -28.9029  -44.8957 C.2       3 UNK         0.5005 
     28 O          22.2127  -29.1277  -43.7499 O.2       3 UNK        -0.5279 
     29 N          23.8224  -29.2534  -45.3452 N.am      4 UNK        -0.4463 
     30 CA         24.8774  -29.9216  -44.5628 C.3       4 UNK         0.0283 
     31 CB         24.4819  -31.3844  -44.2634 C.3       4 UNK        -0.1875 
     32 C          25.2786  -29.1477  -43.2856 C.2       4 UNK         0.4949 
     33 O          25.5888  -29.7618  -42.2649 O.2       4 UNK        -0.5039 
     34 N          25.2205  -27.8084  -43.3572 N.am      5 UNK        -0.4663 
     35 CA         25.4022  -26.8500  -42.2579 C.3       5 UNK         0.0242 
     36 CB         26.8456  -26.8957  -41.7113 C.3       5 UNK        -0.1982 
     37 C          24.3393  -26.9807  -41.1460 C.2       5 UNK         0.5017 
     38 O          24.6052  -26.5971  -40.0052 O.2       5 UNK        -0.5012 
     39 N          23.1597  -27.5205  -41.4918 N.am      6 UNK        -0.4439 
     40 CA         21.9824  -27.7934  -40.6607 C.3       6 UNK         0.0297 
     41 CB         21.4392  -26.5145  -39.9915 C.3       6 UNK        -0.2006 
     42 C          22.2003  -28.9130  -39.6314 C.2       6 UNK         0.4892 
     43 O          21.4432  -29.8832  -39.6254 O.2       6 UNK        -0.5089 
     44 N          23.2216  -28.7553  -38.7802 N.am      7 UNK        -0.4243 
     45 CA         23.5182  -29.5946  -37.6170 C.3       7 UNK         0.0196 
     46 CB         24.6996  -28.9823  -36.8475 C.3       7 UNK        -0.2007 
     47 C          23.7959  -31.0728  -37.9354 C.2       7 UNK         0.5020 
     48 O          23.4822  -31.9289  -37.1078 O.2       7 UNK        -0.5147 
     49 N          24.3774  -31.3541  -39.1091 N.am      8 UNK        -0.4734 
     50 CA         24.6752  -32.7182  -39.5542 C.3       8 UNK         0.0238 
     51 CB         25.8965  -32.6957  -40.4870 C.3       8 UNK        -0.1912 
     52 C          23.4839  -33.4065  -40.2433 C.2       8 UNK         0.5038 
     53 O          23.5356  -34.6251  -40.4190 O.2       8 UNK        -0.5046 
     54 N          22.4561  -32.6426  -40.6419 N.am      9 UNK        -0.4200 
     55 CA         21.2551  -33.1670  -41.3056 C.3       9 UNK         0.0839 
     56 C          20.2512  -33.7964  -40.3021 C.2       9 UNK         0.5513 
     57 N          19.4433  -34.7468  -40.7517 N.am      9 UNK        -0.7519 
     58 O          20.1767  -33.4191  -39.1346 O.2       9 UNK        -0.4960 
     59 C59        20.5890  -32.0996  -42.2193 C.3       10 UNK        -0.0876 
     60 S60        19.9761  -32.8564  -43.7628 S.3       10 UNK        -0.2414 
     61 C61        18.1628  -32.7604  -43.5731 C.3       10 UNK         0.0169 
     62 H62        15.0238  -22.1045  -44.0484 H         1 UNK         0.0903 
     63 H63        15.7405  -22.6685  -45.5585 H         1 UNK         0.0903 
     64 H64        16.6281  -21.5442  -44.5276 H         1 UNK         0.0903 
     65 H65        16.5016  -24.7481  -45.3989 H         1 UNK         0.3096 
     66 H66        17.4225  -26.6304  -44.7381 H         1 UNK         0.1121 
     67 H67        16.3074  -25.9736  -41.9669 H         1 UNK         0.0849 
     68 H68        16.9524  -27.5254  -42.4249 H         1 UNK         0.0849 
     69 H69        14.9242  -29.1547  -42.2593 H         1 UNK         0.0865 
     70 H70        13.9126  -29.3207  -43.6709 H         1 UNK         0.0865 
     71 H71        16.2583  -31.1102  -42.5269 H         1 UNK         0.1346 
     72 H72        18.7031  -31.6377  -46.0036 H         1 UNK         0.1412 
     73 H73        15.9549  -28.3636  -45.8155 H         1 UNK         0.1426 
     74 H74        18.2928  -30.2972  -47.9741 H         1 UNK         0.0716 
     75 H75        17.0734  -29.0499  -47.9723 H         1 UNK         0.0716 
     76 H76        20.8745  -29.8887  -46.9003 H         1 UNK         0.0695 
     77 H77        20.0471  -29.4834  -45.4141 H         1 UNK         0.0695 
     78 H78        22.2522  -27.8458  -46.7499 H         1 UNK         0.0983 
     79 H79        20.1776  -26.8197  -45.2689 H         1 UNK         0.3095 
     80 H80        21.2799  -24.7260  -42.9779 H         1 UNK         0.0454 
     81 H81        20.8943  -22.6017  -44.2268 H         1 UNK         0.0851 
     82 H82        21.2362  -23.4199  -45.7522 H         1 UNK         0.0851 
     83 H83        22.4996  -23.2329  -44.5450 H         1 UNK         0.0851 
     84 H84        19.1433  -24.4595  -44.9436 H         1 UNK         0.2976 
     85 H85        24.0724  -29.0141  -46.2956 H         1 UNK         0.3116 
     86 H86        25.7651  -29.9419  -45.1966 H         1 UNK         0.0646 
     87 H87        24.1796  -31.9095  -45.1692 H         1 UNK         0.0847 
     88 H88        25.3202  -31.9359  -43.8371 H         1 UNK         0.0847 
     89 H89        23.6580  -31.4442  -43.5511 H         1 UNK         0.0847 
     90 H90        24.9005  -27.3987  -44.2264 H         1 UNK         0.3040 
     91 H91        25.2482  -25.8614  -42.6935 H         1 UNK         0.1015 
     92 H92        27.5773  -26.8011  -42.5136 H         1 UNK         0.0786 
     93 H93        27.0494  -27.8245  -41.1778 H         1 UNK         0.0786 
     94 H94        27.0255  -26.0769  -41.0135 H         1 UNK         0.0786 
     95 H95        23.0718  -27.8771  -42.4396 H         1 UNK         0.3172 
     96 H96        21.2162  -28.1457  -41.3534 H         1 UNK         0.0595 
     97 H97        21.2588  -25.7299  -40.7254 H         1 UNK         0.0839 
     98 H98        22.1190  -26.1165  -39.2380 H         1 UNK         0.0839 
     99 H99        20.4887  -26.7150  -39.4959 H         1 UNK         0.0839 
    100 H100       23.8087  -27.9370  -38.9219 H         1 UNK         0.2998 
    101 H101       22.6388  -29.5671  -36.9703 H         1 UNK         0.0822 
    102 H102       24.4742  -27.9689  -36.5145 H         1 UNK         0.0787 
    103 H103       24.9349  -29.5693  -35.9584 H         1 UNK         0.0787 
    104 H104       25.6009  -28.9413  -37.4607 H         1 UNK         0.0787 
    105 H105       24.6081  -30.5986  -39.7411 H         1 UNK         0.3055 
    106 H106       24.9363  -33.3270  -38.6851 H         1 UNK         0.1106 
    107 H107       26.7475  -32.1975  -40.0225 H         1 UNK         0.0828 
    108 H108       26.2121  -33.7092  -40.7384 H         1 UNK         0.0828 
    109 H109       25.6773  -32.1867  -41.4241 H         1 UNK         0.0828 
    110 H110       22.4274  -31.6683  -40.3681 H         1 UNK         0.2931 
    111 H111       21.6050  -33.9797  -41.9464 H         1 UNK         0.0412 
    112 H112       19.4910  -35.0528  -41.7112 H         1 UNK         0.3472 
    113 H113       18.7772  -35.1662  -40.1218 H         1 UNK         0.3472 
    114 H114       19.7973  -31.5493  -41.7065 H         1 UNK         0.0970 
    115 H115       21.3171  -31.3432  -42.5158 H         1 UNK         0.0970 
    116 H116       17.8998  -32.8482  -42.5179 H         1 UNK         0.0612 
    117 H117       17.7211  -33.6243  -44.0712 H         1 UNK         0.0612 
@<TRIPOS>BOND
     1    1    2 1    
     2    1   62 1    
     3    1   63 1    
     4    1   64 1    
     5    2    3 2    
     6    2    4 am   BACKBONE|DICT|INTERRES
     7    4    5 1    
     8    4   65 1    
     9    5    6 1    
    10    5   25 1    
    11    5   66 1    
    12    6    7 1    
    13    6   67 1    
    14    6   68 1    
    15    7    8 1    
    16    8    9 1    
    17    8   69 1    
    18    8   70 1    
    19    9   10 ar   
    20    9   14 ar   
    21   10   11 ar   
    22   10   71 1    
    23   11   12 ar   
    24   11   61 1    
    25   12   13 ar   
    26   12   72 1    
    27   13   14 ar   
    28   13   15 1    
    29   14   73 1    
    30   15   16 1    
    31   15   74 1    
    32   15   75 1    
    33   16   17 1    
    34   17   18 1    
    35   17   76 1    
    36   17   77 1    
    37   18   19 1    
    38   18   27 1    
    39   18   78 1    
    40   19   20 am   BACKBONE|DICT|INTERRES
    41   19   79 1    
    42   20   21 2    
    43   20   22 1    
    44   22   23 1    
    45   22   24 1    
    46   22   80 1    
    47   23   81 1    
    48   23   82 1    
    49   23   83 1    
    50   24   25 am   BACKBONE|DICT|INTERRES
    51   24   84 1    
    52   25   26 2    
    53   27   28 2    
    54   27   29 am   BACKBONE|DICT|INTERRES
    55   29   30 1    
    56   29   85 1    
    57   30   31 1    
    58   30   32 1    
    59   30   86 1    
    60   31   87 1    
    61   31   88 1    
    62   31   89 1    
    63   32   33 2    
    64   32   34 am   BACKBONE|DICT|INTERRES
    65   34   35 1    
    66   34   90 1    
    67   35   36 1    
    68   35   37 1    
    69   35   91 1    
    70   36   92 1    
    71   36   93 1    
    72   36   94 1    
    73   37   38 2    
    74   37   39 am   BACKBONE|DICT|INTERRES
    75   39   40 1    
    76   39   95 1    
    77   40   41 1    
    78   40   42 1    
    79   40   96 1    
    80   41   97 1    
    81   41   98 1    
    82   41   99 1    
    83   42   43 2    
    84   42   44 am   BACKBONE|DICT|INTERRES
    85   44   45 1    
    86   44  100 1    
    87   45   46 1    
    88   45   47 1    
    89   45  101 1    
    90   46  102 1    
    91   46  103 1    
    92   46  104 1    
    93   47   48 2    
    94   47   49 am   BACKBONE|DICT|INTERRES
    95   49   50 1    
    96   49  105 1    
    97   50   51 1    
    98   50   52 1    
    99   50  106 1    
   100   51  107 1    
   101   51  108 1    
   102   51  109 1    
   103   52   53 2    
   104   52   54 am   BACKBONE|DICT|INTERRES
   105   54   55 1    
   106   54  110 1    
   107   55   56 1    
   108   55   59 1    
   109   55  111 1    
   110   56   57 am   BACKBONE|DICT|INTERRES
   111   56   58 2    
   112   57  112 1    
   113   57  113 1    
   114   59   60 1    
   115   59  114 1    
   116   59  115 1    
   117   60   61 1    
   118   61  116 1    
   119   61  117 1    
@<TRIPOS>SUBSTRUCTURE
     1 UNK         1 GROUP             0       ****    0 ROOT    
