@<TRIPOS>MOLECULE
3R8
117   119    1
SMALL
USER_CHARGES


@<TRIPOS>ATOM
      1 CA         15.3690  -25.3512  -48.5954 C.3       0 UNK        -0.2013 
      2 C          16.1757  -25.9838  -47.4716 C.2       0 UNK         0.4866 
      3 O          17.1926  -26.6235  -47.7342 O.2       0 UNK        -0.5176 
      4 N          15.7381  -25.7963  -46.2200 N.am      1 UNK        -0.4884 
      5 CA         16.3559  -26.3583  -45.0081 C.3       1 UNK         0.0853 
      6 C6         15.2960  -26.6440  -43.9119 C.3       10 UNK        -0.0849 
      7 S7         14.2257  -28.0403  -44.4060 S.3       10 UNK        -0.2776 
      8 C8         14.6425  -29.3376  -43.1854 C.3       10 UNK         0.0316 
      9 C9         16.1417  -29.5474  -42.9858 C.ar      10 UNK        -0.0863 
     10 C10        16.6857  -29.4818  -41.6990 C.ar      10 UNK        -0.1009 
     11 C11        18.0574  -29.6551  -41.4932 C.ar      10 UNK        -0.0712 
     12 C12        18.8916  -29.8881  -42.5896 C.ar      10 UNK        -0.0894 
     13 C13        18.3623  -29.9588  -43.8822 C.ar      10 UNK        -0.0745 
     14 C14        16.9850  -29.8056  -44.0715 C.ar      10 UNK        -0.0972 
     15 C15        19.2723  -30.2024  -45.0774 C.3       10 UNK         0.0209 
     16 S16        19.8131  -28.6407  -45.8439 S.3       10 UNK        -0.2568 
     17 C17        21.1722  -28.1597  -44.7295 C.3       10 UNK        -0.0983 
     18 CA         21.6845  -26.7157  -44.9627 C.3       3 UNK         0.0876 
     19 N          20.6067  -25.7475  -44.7736 N.am      3 UNK        -0.4424 
     20 C          20.5015  -24.5508  -45.3558 C.2       2 UNK         0.4918 
     21 O          21.3318  -24.1009  -46.1478 O.2       2 UNK        -0.4875 
     22 CA         19.2260  -23.7463  -45.0147 C.3       2 UNK         0.0481 
     23 CB         19.1325  -22.4238  -45.7977 C.3       2 UNK        -0.1831 
     24 N          18.0080  -24.5292  -45.2572 N.am      2 UNK        -0.4498 
     25 C          17.5403  -25.5179  -44.4802 C.2       1 UNK         0.5027 
     26 O          18.0498  -25.8041  -43.3953 O.2       1 UNK        -0.4969 
     27 C          22.8553  -26.4121  -44.0059 C.2       3 UNK         0.5005 
     28 O          22.7144  -25.6098  -43.0768 O.2       3 UNK        -0.5279 
     29 N          23.9793  -27.1167  -44.2023 N.am      4 UNK        -0.4463 
     30 CA         25.1316  -27.1467  -43.2947 C.3       4 UNK         0.0283 
     31 CB         26.3614  -27.6711  -44.0586 C.3       4 UNK        -0.1875 
     32 C          24.8289  -27.9783  -42.0306 C.2       4 UNK         0.4949 
     33 O          25.4099  -29.0460  -41.8274 O.2       4 UNK        -0.5039 
     34 N          23.8759  -27.4994  -41.2253 N.am      5 UNK        -0.4663 
     35 CA         23.4585  -28.1059  -39.9629 C.3       5 UNK         0.0242 
     36 CB         22.1650  -27.4177  -39.4969 C.3       5 UNK        -0.1982 
     37 C          24.5624  -27.9823  -38.8885 C.2       5 UNK         0.5017 
     38 O          25.2975  -26.9943  -38.9010 O.2       5 UNK        -0.5012 
     39 N          24.6844  -28.9237  -37.9417 N.am      6 UNK        -0.4439 
     40 CA         23.8937  -30.1490  -37.7839 C.3       6 UNK         0.0297 
     41 CB         23.9381  -30.5754  -36.3075 C.3       6 UNK        -0.2006 
     42 C          24.3603  -31.3111  -38.6809 C.2       6 UNK         0.4892 
     43 O          23.6273  -32.2917  -38.7929 O.2       6 UNK        -0.5089 
     44 N          25.5453  -31.1943  -39.2989 N.am      7 UNK        -0.4243 
     45 CA         26.1992  -32.2425  -40.0933 C.3       7 UNK         0.0196 
     46 CB         27.5674  -31.7369  -40.5795 C.3       7 UNK        -0.2007 
     47 C          25.3637  -32.7623  -41.2763 C.2       7 UNK         0.5020 
     48 O          25.3034  -33.9734  -41.4883 O.2       7 UNK        -0.5147 
     49 N          24.7226  -31.8451  -42.0102 N.am      8 UNK        -0.4734 
     50 CA         23.8345  -32.1607  -43.1344 C.3       8 UNK         0.0238 
     51 CB         23.8653  -30.9885  -44.1268 C.3       8 UNK        -0.1912 
     52 C          22.3849  -32.4690  -42.7109 C.2       8 UNK         0.5038 
     53 O          21.5858  -32.8457  -43.5689 O.2       8 UNK        -0.5046 
     54 N          22.0558  -32.2785  -41.4272 N.am      9 UNK        -0.4200 
     55 CA         20.7300  -32.5379  -40.8506 C.3       9 UNK         0.0839 
     56 C          20.4796  -34.0489  -40.5805 C.2       9 UNK         0.5513 
     57 N          19.2313  -34.4365  -40.3601 N.am      9 UNK        -0.7519 
     58 O          21.3944  -34.8699  -40.5530 O.2       9 UNK        -0.4960 
     59 C59        20.5061  -31.6522  -39.5945 C.3       10 UNK        -0.0876 
     60 S60        18.7573  -31.2107  -39.3076 S.3       10 UNK        -0.2414 
     61 C61        18.6307  -29.5685  -40.0864 C.3       10 UNK         0.0169 
     62 H62        15.0134  -26.1211  -49.2797 H         1 UNK         0.0903 
     63 H63        14.5031  -24.8058  -48.2204 H         1 UNK         0.0903 
     64 H64        15.9904  -24.6556  -49.1589 H         1 UNK         0.0903 
     65 H65        14.8972  -25.2567  -46.0667 H         1 UNK         0.3096 
     66 H66        16.8130  -27.3127  -45.2774 H         1 UNK         0.1121 
     67 H67        15.7583  -26.8750  -42.9508 H         1 UNK         0.0849 
     68 H68        14.6756  -25.7639  -43.7353 H         1 UNK         0.0849 
     69 H69        14.1623  -29.0808  -42.2398 H         1 UNK         0.0865 
     70 H70        14.1949  -30.2792  -43.5062 H         1 UNK         0.0865 
     71 H71        16.0415  -29.2919  -40.8512 H         1 UNK         0.1346 
     72 H72        19.9539  -30.0150  -42.4353 H         1 UNK         0.1412 
     73 H73        16.5709  -29.8608  -45.0693 H         1 UNK         0.1426 
     74 H74        18.7433  -30.7944  -45.8256 H         1 UNK         0.0716 
     75 H75        20.1425  -30.7924  -44.7853 H         1 UNK         0.0716 
     76 H76        21.9714  -28.8831  -44.8857 H         1 UNK         0.0695 
     77 H77        20.8434  -28.2744  -43.6962 H         1 UNK         0.0695 
     78 H78        22.0568  -26.6333  -45.9864 H         1 UNK         0.0983 
     79 H79        19.8782  -26.0124  -44.1194 H         1 UNK         0.3095 
     80 H80        19.2765  -23.4987  -43.9524 H         1 UNK         0.0454 
     81 H81        20.0010  -21.7928  -45.6042 H         1 UNK         0.0851 
     82 H82        18.2503  -21.8525  -45.5087 H         1 UNK         0.0851 
     83 H83        19.0858  -22.5934  -46.8741 H         1 UNK         0.0851 
     84 H84        17.5574  -24.3956  -46.1510 H         1 UNK         0.2976 
     85 H85        24.0154  -27.7584  -44.9814 H         1 UNK         0.3116 
     86 H86        25.3517  -26.1273  -42.9703 H         1 UNK         0.0646 
     87 H87        26.2100  -28.6858  -44.4278 H         1 UNK         0.0847 
     88 H88        27.2408  -27.6895  -43.4133 H         1 UNK         0.0847 
     89 H89        26.6010  -27.0353  -44.9110 H         1 UNK         0.0847 
     90 H90        23.4273  -26.6300  -41.4970 H         1 UNK         0.3040 
     91 H91        23.2462  -29.1537  -40.1742 H         1 UNK         0.1015 
     92 H92        21.7651  -27.8883  -38.5982 H         1 UNK         0.0786 
     93 H93        21.3909  -27.4679  -40.2628 H         1 UNK         0.0786 
     94 H94        22.3325  -26.3650  -39.2648 H         1 UNK         0.0786 
     95 H95        25.4077  -28.7873  -37.2497 H         1 UNK         0.3172 
     96 H96        22.8506  -29.9425  -38.0260 H         1 UNK         0.0595 
     97 H97        24.9523  -30.8121  -35.9831 H         1 UNK         0.0839 
     98 H98        23.3278  -31.4639  -36.1378 H         1 UNK         0.0839 
     99 H99        23.5504  -29.7924  -35.6553 H         1 UNK         0.0839 
    100 H100       26.0623  -30.3354  -39.1780 H         1 UNK         0.2998 
    101 H101       26.3703  -33.0891  -39.4250 H         1 UNK         0.0822 
    102 H102       28.2159  -31.4774  -39.7426 H         1 UNK         0.0787 
    103 H103       28.0828  -32.5026  -41.1613 H         1 UNK         0.0787 
    104 H104       27.4696  -30.8556  -41.2151 H         1 UNK         0.0787 
    105 H105       24.8879  -30.8600  -41.8111 H         1 UNK         0.3055 
    106 H106       24.2094  -33.0482  -43.6495 H         1 UNK         0.1106 
    107 H107       24.8760  -30.8053  -44.4911 H         1 UNK         0.0828 
    108 H108       23.2387  -31.1891  -44.9971 H         1 UNK         0.0828 
    109 H109       23.5026  -30.0731  -43.6624 H         1 UNK         0.0828 
    110 H110       22.7976  -32.0974  -40.7632 H         1 UNK         0.2931 
    111 H111       20.0005  -32.2427  -41.6058 H         1 UNK         0.0412 
    112 H112       18.4808  -33.7623  -40.3486 H         1 UNK         0.3472 
    113 H113       19.0398  -35.4091  -40.1768 H         1 UNK         0.3472 
    114 H114       20.8916  -32.1443  -38.6994 H         1 UNK         0.0970 
    115 H115       21.0772  -30.7270  -39.6746 H         1 UNK         0.0970 
    116 H116       17.9877  -28.9435  -39.4648 H         1 UNK         0.0612 
    117 H117       19.5993  -29.0698  -40.1035 H         1 UNK         0.0612 
@<TRIPOS>BOND
     1    1    2 1    
     2    1   62 1    
     3    1   63 1    
     4    1   64 1    
     5    2    3 2    
     6    2    4 am   BACKBONE|DICT|INTERRES
     7    4    5 1    
     8    4   65 1    
     9    5    6 1    
    10    5   25 1    
    11    5   66 1    
    12    6    7 1    
    13    6   67 1    
    14    6   68 1    
    15    7    8 1    
    16    8    9 1    
    17    8   69 1    
    18    8   70 1    
    19    9   10 ar   
    20    9   14 ar   
    21   10   11 ar   
    22   10   71 1    
    23   11   12 ar   
    24   11   61 1    
    25   12   13 ar   
    26   12   72 1    
    27   13   14 ar   
    28   13   15 1    
    29   14   73 1    
    30   15   16 1    
    31   15   74 1    
    32   15   75 1    
    33   16   17 1    
    34   17   18 1    
    35   17   76 1    
    36   17   77 1    
    37   18   19 1    
    38   18   27 1    
    39   18   78 1    
    40   19   20 am   BACKBONE|DICT|INTERRES
    41   19   79 1    
    42   20   21 2    
    43   20   22 1    
    44   22   23 1    
    45   22   24 1    
    46   22   80 1    
    47   23   81 1    
    48   23   82 1    
    49   23   83 1    
    50   24   25 am   BACKBONE|DICT|INTERRES
    51   24   84 1    
    52   25   26 2    
    53   27   28 2    
    54   27   29 am   BACKBONE|DICT|INTERRES
    55   29   30 1    
    56   29   85 1    
    57   30   31 1    
    58   30   32 1    
    59   30   86 1    
    60   31   87 1    
    61   31   88 1    
    62   31   89 1    
    63   32   33 2    
    64   32   34 am   BACKBONE|DICT|INTERRES
    65   34   35 1    
    66   34   90 1    
    67   35   36 1    
    68   35   37 1    
    69   35   91 1    
    70   36   92 1    
    71   36   93 1    
    72   36   94 1    
    73   37   38 2    
    74   37   39 am   BACKBONE|DICT|INTERRES
    75   39   40 1    
    76   39   95 1    
    77   40   41 1    
    78   40   42 1    
    79   40   96 1    
    80   41   97 1    
    81   41   98 1    
    82   41   99 1    
    83   42   43 2    
    84   42   44 am   BACKBONE|DICT|INTERRES
    85   44   45 1    
    86   44  100 1    
    87   45   46 1    
    88   45   47 1    
    89   45  101 1    
    90   46  102 1    
    91   46  103 1    
    92   46  104 1    
    93   47   48 2    
    94   47   49 am   BACKBONE|DICT|INTERRES
    95   49   50 1    
    96   49  105 1    
    97   50   51 1    
    98   50   52 1    
    99   50  106 1    
   100   51  107 1    
   101   51  108 1    
   102   51  109 1    
   103   52   53 2    
   104   52   54 am   BACKBONE|DICT|INTERRES
   105   54   55 1    
   106   54  110 1    
   107   55   56 1    
   108   55   59 1    
   109   55  111 1    
   110   56   57 am   BACKBONE|DICT|INTERRES
   111   56   58 2    
   112   57  112 1    
   113   57  113 1    
   114   59   60 1    
   115   59  114 1    
   116   59  115 1    
   117   60   61 1    
   118   61  116 1    
   119   61  117 1    
@<TRIPOS>SUBSTRUCTURE
     1 UNK         1 GROUP             0       ****    0 ROOT    
