@<TRIPOS>MOLECULE
3R8
117   119    1
SMALL
USER_CHARGES


@<TRIPOS>ATOM
      1 CA         16.6391  -25.3738  -40.3054 C.3       0 UNK        -0.2013 
      2 C          18.1393  -25.1058  -40.3831 C.2       0 UNK         0.4866 
      3 O          18.7132  -24.6097  -39.4153 O.2       0 UNK        -0.5176 
      4 N          18.8182  -25.4023  -41.4972 N.am      1 UNK        -0.4884 
      5 CA         18.2925  -25.9148  -42.7656 C.3       1 UNK         0.0853 
      6 C6         18.7078  -27.3875  -43.0134 C.3       10 UNK        -0.0849 
      7 S7         17.9295  -28.5610  -41.8541 S.3       10 UNK        -0.2776 
      8 C8         17.2859  -29.8447  -42.9786 C.3       10 UNK         0.0316 
      9 C9         18.3786  -30.4479  -43.8527 C.ar      10 UNK        -0.0863 
     10 C10        19.4594  -31.1168  -43.2708 C.ar      10 UNK        -0.1009 
     11 C11        20.4732  -31.6592  -44.0668 C.ar      10 UNK        -0.0712 
     12 C12        20.4073  -31.5146  -45.4550 C.ar      10 UNK        -0.0894 
     13 C13        19.3378  -30.8369  -46.0488 C.ar      10 UNK        -0.0745 
     14 C14        18.3179  -30.3208  -45.2439 C.ar      10 UNK        -0.0972 
     15 C15        19.3099  -30.6242  -47.5569 C.3       10 UNK         0.0209 
     16 S16        19.4670  -28.8638  -48.0152 S.3       10 UNK        -0.2568 
     17 C17        20.9812  -28.3750  -47.1170 C.3       10 UNK        -0.0983 
     18 CA         21.2402  -26.8465  -47.1111 C.3       3 UNK         0.0876 
     19 N          20.0549  -26.1022  -46.6739 N.am      3 UNK        -0.4424 
     20 C          19.8225  -24.8006  -46.8844 C.2       2 UNK         0.4918 
     21 O          20.5650  -24.0669  -47.5364 O.2       2 UNK        -0.4875 
     22 CA         18.5609  -24.2121  -46.2211 C.3       2 UNK         0.0481 
     23 CB         17.3981  -24.1770  -47.2256 C.3       2 UNK        -0.1831 
     24 N          18.1370  -24.9305  -45.0096 N.am      2 UNK        -0.4498 
     25 C          18.8654  -25.0333  -43.8874 C.2       1 UNK         0.5027 
     26 O          19.9800  -24.5212  -43.7499 O.2       1 UNK        -0.4969 
     27 C          22.4870  -26.5475  -46.2445 C.2       3 UNK         0.5005 
     28 O          23.5756  -26.9998  -46.6030 O.2       3 UNK        -0.5279 
     29 N          22.3108  -25.8413  -45.1138 N.am      4 UNK        -0.4463 
     30 CA         23.2739  -25.6392  -44.0297 C.3       4 UNK         0.0283 
     31 CB         24.5227  -24.8588  -44.5030 C.3       4 UNK        -0.1875 
     32 C          23.5654  -26.9768  -43.3253 C.2       4 UNK         0.4949 
     33 O          22.6356  -27.5681  -42.7723 O.2       4 UNK        -0.5039 
     34 N          24.8342  -27.4162  -43.3248 N.am      5 UNK        -0.4663 
     35 CA         25.3352  -28.6782  -42.7528 C.3       5 UNK         0.0242 
     36 CB         24.8045  -29.8767  -43.5694 C.3       5 UNK        -0.1982 
     37 C          25.0544  -28.8360  -41.2434 C.2       5 UNK         0.5017 
     38 O          24.9151  -29.9606  -40.7603 O.2       5 UNK        -0.5012 
     39 N          24.9184  -27.7012  -40.5375 N.am      6 UNK        -0.4439 
     40 CA         24.5402  -27.5578  -39.1238 C.3       6 UNK         0.0297 
     41 CB         25.6834  -28.0603  -38.2164 C.3       6 UNK        -0.2006 
     42 C          23.1849  -28.2034  -38.7523 C.2       6 UNK         0.4892 
     43 O          22.9454  -28.4452  -37.5683 O.2       6 UNK        -0.5089 
     44 N          22.3417  -28.4967  -39.7587 N.am      7 UNK        -0.4243 
     45 CA         21.1089  -29.2922  -39.6787 C.3       7 UNK         0.0196 
     46 CB         20.0172  -28.5301  -38.8982 C.3       7 UNK        -0.2007 
     47 C          21.3367  -30.7239  -39.1396 C.2       7 UNK         0.5020 
     48 O          20.4275  -31.3057  -38.5446 O.2       7 UNK        -0.5147 
     49 N          22.5418  -31.2789  -39.3565 N.am      8 UNK        -0.4734 
     50 CA         23.0136  -32.5483  -38.7819 C.3       8 UNK         0.0238 
     51 CB         24.5056  -32.7219  -39.1083 C.3       8 UNK        -0.1912 
     52 C          22.2244  -33.8007  -39.2055 C.2       8 UNK         0.5038 
     53 O          22.3231  -34.8286  -38.5336 O.2       8 UNK        -0.5046 
     54 N          21.4584  -33.6927  -40.2959 N.am      9 UNK        -0.4200 
     55 CA         20.5301  -34.7182  -40.7902 C.3       9 UNK         0.0839 
     56 C          19.2865  -34.9374  -39.8785 C.2       9 UNK         0.5513 
     57 N          18.9631  -34.0321  -38.9604 N.am      9 UNK        -0.7519 
     58 O          18.6038  -35.9498  -40.0100 O.2       9 UNK        -0.4960 
     59 C59        20.0826  -34.4381  -42.2492 C.3       10 UNK        -0.0876 
     60 S60        21.4669  -34.1833  -43.4159 S.3       10 UNK        -0.2414 
     61 C61        21.6589  -32.3690  -43.4300 C.3       10 UNK         0.0169 
     62 H62        16.2792  -25.2315  -39.2864 H         1 UNK         0.0903 
     63 H63        16.4023  -26.3965  -40.5957 H         1 UNK         0.0903 
     64 H64        16.0920  -24.6871  -40.9511 H         1 UNK         0.0903 
     65 H65        19.7972  -25.1519  -41.5472 H         1 UNK         0.3096 
     66 H66        17.2052  -25.8312  -42.8049 H         1 UNK         0.1121 
     67 H67        19.7916  -27.5055  -42.9345 H         1 UNK         0.0849 
     68 H68        18.4482  -27.6841  -44.0314 H         1 UNK         0.0849 
     69 H69        16.8259  -30.6367  -42.3859 H         1 UNK         0.0865 
     70 H70        16.4888  -29.4158  -43.5879 H         1 UNK         0.0865 
     71 H71        19.5110  -31.2039  -42.1944 H         1 UNK         0.1346 
     72 H72        21.2011  -31.9155  -46.0705 H         1 UNK         0.1412 
     73 H73        17.4939  -29.7931  -45.7048 H         1 UNK         0.1426 
     74 H74        20.1094  -31.1860  -48.0426 H         1 UNK         0.0716 
     75 H75        18.3733  -31.0136  -47.9581 H         1 UNK         0.0716 
     76 H76        21.8233  -28.9059  -47.5652 H         1 UNK         0.0695 
     77 H77        20.9090  -28.7304  -46.0878 H         1 UNK         0.0695 
     78 H78        21.4773  -26.5360  -48.1311 H         1 UNK         0.0983 
     79 H79        19.3637  -26.6371  -46.1711 H         1 UNK         0.3095 
     80 H80        18.7927  -23.1848  -45.9326 H         1 UNK         0.0454 
     81 H81        16.5216  -23.6851  -46.8034 H         1 UNK         0.0851 
     82 H82        17.1041  -25.1791  -47.5405 H         1 UNK         0.0851 
     83 H83        17.6751  -23.6229  -48.1236 H         1 UNK         0.0851 
     84 H84        17.2333  -25.3812  -45.0516 H         1 UNK         0.2976 
     85 H85        21.3768  -25.5084  -44.9019 H         1 UNK         0.3116 
     86 H86        22.7666  -25.0170  -43.2909 H         1 UNK         0.0646 
     87 H87        24.2366  -23.9109  -44.9589 H         1 UNK         0.0847 
     88 H88        25.1778  -24.6204  -43.6642 H         1 UNK         0.0847 
     89 H89        25.1118  -25.4081  -45.2374 H         1 UNK         0.0847 
     90 H90        25.5222  -26.8518  -43.8049 H         1 UNK         0.3040 
     91 H91        26.4213  -28.6600  -42.8552 H         1 UNK         0.1015 
     92 H92        25.0241  -29.7615  -44.6309 H         1 UNK         0.0786 
     93 H93        23.7251  -29.9887  -43.4625 H         1 UNK         0.0786 
     94 H94        25.2632  -30.8115  -43.2443 H         1 UNK         0.0786 
     95 H95        25.0336  -26.8354  -41.0458 H         1 UNK         0.3172 
     96 H96        24.4214  -26.4877  -38.9481 H         1 UNK         0.0595 
     97 H97        26.6325  -27.5907  -38.4746 H         1 UNK         0.0839 
     98 H98        25.8122  -29.1408  -38.2913 H         1 UNK         0.0839 
     99 H99        25.4861  -27.8293  -37.1688 H         1 UNK         0.0839 
    100 H100       22.6213  -28.2337  -40.6982 H         1 UNK         0.2998 
    101 H101       20.7595  -29.4080  -40.7058 H         1 UNK         0.0822 
    102 H102       19.8613  -27.5330  -39.3098 H         1 UNK         0.0787 
    103 H103       19.0611  -29.0521  -38.9523 H         1 UNK         0.0787 
    104 H104       20.2696  -28.4240  -37.8430 H         1 UNK         0.0787 
    105 H105       23.2402  -30.7355  -39.8564 H         1 UNK         0.3055 
    106 H106       22.9096  -32.4691  -37.6976 H         1 UNK         0.1106 
    107 H107       25.0975  -31.8982  -38.7084 H         1 UNK         0.0828 
    108 H108       24.9004  -33.6418  -38.6748 H         1 UNK         0.0828 
    109 H109       24.6787  -32.7665  -40.1844 H         1 UNK         0.0828 
    110 H110       21.4422  -32.8053  -40.7711 H         1 UNK         0.2931 
    111 H111       21.0772  -35.6629  -40.7939 H         1 UNK         0.0412 
    112 H112       19.5118  -33.1879  -38.8432 H         1 UNK         0.3472 
    113 H113       18.1568  -34.1898  -38.3770 H         1 UNK         0.3472 
    114 H114       19.5056  -35.2860  -42.6234 H         1 UNK         0.0970 
    115 H115       19.3999  -33.5909  -42.2865 H         1 UNK         0.0970 
    116 H116       21.8281  -31.9980  -42.4194 H         1 UNK         0.0612 
    117 H117       22.5643  -32.1280  -43.9886 H         1 UNK         0.0612 
@<TRIPOS>BOND
     1    1    2 1    
     2    1   62 1    
     3    1   63 1    
     4    1   64 1    
     5    2    3 2    
     6    2    4 am   BACKBONE|DICT|INTERRES
     7    4    5 1    
     8    4   65 1    
     9    5    6 1    
    10    5   25 1    
    11    5   66 1    
    12    6    7 1    
    13    6   67 1    
    14    6   68 1    
    15    7    8 1    
    16    8    9 1    
    17    8   69 1    
    18    8   70 1    
    19    9   10 ar   
    20    9   14 ar   
    21   10   11 ar   
    22   10   71 1    
    23   11   12 ar   
    24   11   61 1    
    25   12   13 ar   
    26   12   72 1    
    27   13   14 ar   
    28   13   15 1    
    29   14   73 1    
    30   15   16 1    
    31   15   74 1    
    32   15   75 1    
    33   16   17 1    
    34   17   18 1    
    35   17   76 1    
    36   17   77 1    
    37   18   19 1    
    38   18   27 1    
    39   18   78 1    
    40   19   20 am   BACKBONE|DICT|INTERRES
    41   19   79 1    
    42   20   21 2    
    43   20   22 1    
    44   22   23 1    
    45   22   24 1    
    46   22   80 1    
    47   23   81 1    
    48   23   82 1    
    49   23   83 1    
    50   24   25 am   BACKBONE|DICT|INTERRES
    51   24   84 1    
    52   25   26 2    
    53   27   28 2    
    54   27   29 am   BACKBONE|DICT|INTERRES
    55   29   30 1    
    56   29   85 1    
    57   30   31 1    
    58   30   32 1    
    59   30   86 1    
    60   31   87 1    
    61   31   88 1    
    62   31   89 1    
    63   32   33 2    
    64   32   34 am   BACKBONE|DICT|INTERRES
    65   34   35 1    
    66   34   90 1    
    67   35   36 1    
    68   35   37 1    
    69   35   91 1    
    70   36   92 1    
    71   36   93 1    
    72   36   94 1    
    73   37   38 2    
    74   37   39 am   BACKBONE|DICT|INTERRES
    75   39   40 1    
    76   39   95 1    
    77   40   41 1    
    78   40   42 1    
    79   40   96 1    
    80   41   97 1    
    81   41   98 1    
    82   41   99 1    
    83   42   43 2    
    84   42   44 am   BACKBONE|DICT|INTERRES
    85   44   45 1    
    86   44  100 1    
    87   45   46 1    
    88   45   47 1    
    89   45  101 1    
    90   46  102 1    
    91   46  103 1    
    92   46  104 1    
    93   47   48 2    
    94   47   49 am   BACKBONE|DICT|INTERRES
    95   49   50 1    
    96   49  105 1    
    97   50   51 1    
    98   50   52 1    
    99   50  106 1    
   100   51  107 1    
   101   51  108 1    
   102   51  109 1    
   103   52   53 2    
   104   52   54 am   BACKBONE|DICT|INTERRES
   105   54   55 1    
   106   54  110 1    
   107   55   56 1    
   108   55   59 1    
   109   55  111 1    
   110   56   57 am   BACKBONE|DICT|INTERRES
   111   56   58 2    
   112   57  112 1    
   113   57  113 1    
   114   59   60 1    
   115   59  114 1    
   116   59  115 1    
   117   60   61 1    
   118   61  116 1    
   119   61  117 1    
@<TRIPOS>SUBSTRUCTURE
     1 UNK         1 GROUP             0       ****    0 ROOT    
