@<TRIPOS>MOLECULE
3R8
117   119    1
SMALL
USER_CHARGES


@<TRIPOS>ATOM
      1 CA         18.2779  -28.6647  -51.1980 C.3       0 UNK        -0.2013 
      2 C          18.9168  -28.9385  -49.8445 C.2       0 UNK         0.4866 
      3 O          20.0605  -29.3918  -49.7879 O.2       0 UNK        -0.5176 
      4 N          18.1852  -28.6758  -48.7547 N.am      1 UNK        -0.4884 
      5 CA         18.6576  -28.8286  -47.3759 C.3       1 UNK         0.0853 
      6 C6         17.4915  -28.7163  -46.3558 C.3       10 UNK        -0.0849 
      7 S7         16.6692  -30.3084  -46.0445 S.3       10 UNK        -0.2776 
      8 C8         15.3918  -29.8129  -44.8374 C.3       10 UNK         0.0316 
      9 C9         15.9746  -29.2056  -43.5640 C.ar      10 UNK        -0.0863 
     10 C10        16.5815  -30.0218  -42.6046 C.ar      10 UNK        -0.1009 
     11 C11        17.1053  -29.4696  -41.4305 C.ar      10 UNK        -0.0712 
     12 C12        16.9872  -28.0962  -41.2056 C.ar      10 UNK        -0.0894 
     13 C13        16.3964  -27.2608  -42.1612 C.ar      10 UNK        -0.0745 
     14 C14        15.8906  -27.8270  -43.3367 C.ar      10 UNK        -0.0972 
     15 C15        16.2440  -25.7574  -41.9278 C.3       10 UNK         0.0209 
     16 S16        17.6009  -24.9868  -40.9758 S.3       10 UNK        -0.2568 
     17 C17        18.9712  -24.9567  -42.1832 C.3       10 UNK        -0.0983 
     18 CA         20.0135  -26.0893  -41.9788 C.3       3 UNK         0.0876 
     19 N          20.7780  -26.3127  -43.2075 N.am      3 UNK        -0.4424 
     20 C          20.6227  -27.3672  -44.0091 C.2       2 UNK         0.4918 
     21 O          19.8539  -28.3005  -43.7701 O.2       2 UNK        -0.4875 
     22 CA         21.4561  -27.3935  -45.3042 C.3       2 UNK         0.0481 
     23 CB         22.8517  -27.9840  -45.0513 C.3       2 UNK        -0.1831 
     24 N          20.7501  -28.2262  -46.2771 N.am      2 UNK        -0.4498 
     25 C          19.7326  -27.7811  -47.0250 C.2       1 UNK         0.5027 
     26 O          19.5610  -26.5979  -47.3304 O.2       1 UNK        -0.4969 
     27 C          20.9853  -25.8370  -40.8091 C.2       3 UNK         0.5005 
     28 O          22.2036  -25.8375  -41.0042 O.2       3 UNK        -0.5279 
     29 N          20.4300  -25.6664  -39.5999 N.am      4 UNK        -0.4463 
     30 CA         21.1254  -25.4487  -38.3215 C.3       4 UNK         0.0283 
     31 CB         21.8135  -24.0671  -38.3084 C.3       4 UNK        -0.1875 
     32 C          22.0892  -26.5933  -37.9429 C.2       4 UNK         0.4949 
     33 O          23.1043  -26.3509  -37.2892 O.2       4 UNK        -0.5039 
     34 N          21.7565  -27.8159  -38.3860 N.am      5 UNK        -0.4663 
     35 CA         22.5242  -29.0614  -38.2588 C.3       5 UNK         0.0242 
     36 CB         22.6810  -29.4701  -36.7787 C.3       5 UNK        -0.1982 
     37 C          23.8702  -29.0672  -39.0126 C.2       5 UNK         0.5017 
     38 O          24.6695  -29.9792  -38.7884 O.2       5 UNK        -0.5012 
     39 N          24.1022  -28.0971  -39.9133 N.am      6 UNK        -0.4439 
     40 CA         25.2935  -28.0243  -40.7634 C.3       6 UNK         0.0297 
     41 CB         25.2933  -26.7076  -41.5547 C.3       6 UNK        -0.2006 
     42 C          25.3467  -29.2329  -41.7077 C.2       6 UNK         0.4892 
     43 O          24.3828  -29.4648  -42.4389 O.2       6 UNK        -0.5089 
     44 N          26.4321  -30.0143  -41.6101 N.am      7 UNK        -0.4243 
     45 CA         26.6519  -31.3025  -42.2858 C.3       7 UNK         0.0196 
     46 CB         26.8278  -31.0904  -43.8052 C.3       7 UNK        -0.2007 
     47 C          25.5785  -32.3674  -41.9604 C.2       7 UNK         0.5020 
     48 O          25.3609  -33.2718  -42.7670 O.2       7 UNK        -0.5147 
     49 N          24.9256  -32.2353  -40.7929 N.am      8 UNK        -0.4734 
     50 CA         23.7536  -32.9948  -40.3359 C.3       8 UNK         0.0238 
     51 CB         24.0901  -34.4890  -40.1375 C.3       8 UNK        -0.1912 
     52 C          22.5039  -32.7620  -41.2131 C.2       8 UNK         0.5038 
     53 O          21.6902  -33.6750  -41.3667 O.2       8 UNK        -0.5046 
     54 N          22.3728  -31.5391  -41.7472 N.am      9 UNK        -0.4200 
     55 CA         21.3153  -31.0709  -42.6558 C.3       9 UNK         0.0839 
     56 C          21.4260  -31.6565  -44.0952 C.2       9 UNK         0.5513 
     57 N          20.5073  -31.2980  -44.9850 N.am      9 UNK        -0.7519 
     58 O          22.3379  -32.4067  -44.4339 O.2       9 UNK        -0.4960 
     59 C59        19.8765  -31.1953  -42.0728 C.3       10 UNK        -0.0876 
     60 S60        19.6161  -30.2541  -40.5340 S.3       10 UNK        -0.2414 
     61 C61        17.7998  -30.3477  -40.3975 C.3       10 UNK         0.0169 
     62 H62        18.8675  -27.9330  -51.7497 H         1 UNK         0.0903 
     63 H63        18.2360  -29.5815  -51.7855 H         1 UNK         0.0903 
     64 H64        17.2635  -28.2784  -51.1002 H         1 UNK         0.0903 
     65 H65        17.2569  -28.2923  -48.8605 H         1 UNK         0.3096 
     66 H66        19.1142  -29.8175  -47.2910 H         1 UNK         0.1121 
     67 H67        17.8452  -28.3666  -45.3847 H         1 UNK         0.0849 
     68 H68        16.7543  -27.9784  -46.6772 H         1 UNK         0.0849 
     69 H69        14.7026  -29.1149  -45.3153 H         1 UNK         0.0865 
     70 H70        14.7970  -30.6895  -44.5765 H         1 UNK         0.0865 
     71 H71        16.6564  -31.0863  -42.7799 H         1 UNK         0.1346 
     72 H72        17.3702  -27.6815  -40.2843 H         1 UNK         0.1412 
     73 H73        15.4188  -27.1927  -44.0748 H         1 UNK         0.1426 
     74 H74        15.3124  -25.5944  -41.3847 H         1 UNK         0.0716 
     75 H75        16.1394  -25.2305  -42.8776 H         1 UNK         0.0716 
     76 H76        19.4502  -23.9764  -42.1483 H         1 UNK         0.0695 
     77 H77        18.5347  -25.0322  -43.1807 H         1 UNK         0.0695 
     78 H78        19.4818  -27.0068  -41.7206 H         1 UNK         0.0983 
     79 H79        21.4965  -25.6300  -43.4034 H         1 UNK         0.3095 
     80 H80        21.5642  -26.3759  -45.6854 H         1 UNK         0.0454 
     81 H81        22.8008  -29.0019  -44.6652 H         1 UNK         0.0851 
     82 H82        23.4031  -27.3905  -44.3218 H         1 UNK         0.0851 
     83 H83        23.4446  -28.0047  -45.9655 H         1 UNK         0.0851 
     84 H84        20.7880  -29.2163  -46.0783 H         1 UNK         0.2976 
     85 H85        19.4180  -25.6561  -39.5542 H         1 UNK         0.3116 
     86 H86        20.3527  -25.4392  -37.5514 H         1 UNK         0.0646 
     87 H87        22.6461  -24.0234  -39.0113 H         1 UNK         0.0847 
     88 H88        22.2118  -23.8363  -37.3196 H         1 UNK         0.0847 
     89 H89        21.1141  -23.2723  -38.5668 H         1 UNK         0.0847 
     90 H90        20.9003  -27.8936  -38.9176 H         1 UNK         0.3040 
     91 H91        21.9245  -29.8336  -38.7416 H         1 UNK         0.1015 
     92 H92        23.3420  -28.7928  -36.2375 H         1 UNK         0.0786 
     93 H93        23.1041  -30.4716  -36.6911 H         1 UNK         0.0786 
     94 H94        21.7190  -29.4825  -36.2664 H         1 UNK         0.0786 
     95 H95        23.3882  -27.3956  -40.0769 H         1 UNK         0.3172 
     96 H96        26.1702  -28.0313  -40.1124 H         1 UNK         0.0595 
     97 H97        26.1993  -26.6125  -42.1544 H         1 UNK         0.0839 
     98 H98        25.2488  -25.8440  -40.8907 H         1 UNK         0.0839 
     99 H99        24.4445  -26.6474  -42.2362 H         1 UNK         0.0839 
    100 H100       27.1505  -29.7442  -40.9516 H         1 UNK         0.2998 
    101 H101       27.5916  -31.6963  -41.8958 H         1 UNK         0.0822 
    102 H102       27.1406  -32.0124  -44.2970 H         1 UNK         0.0787 
    103 H103       25.8984  -30.7703  -44.2781 H         1 UNK         0.0787 
    104 H104       27.5884  -30.3389  -44.0165 H         1 UNK         0.0787 
    105 H105       25.1793  -31.4537  -40.1961 H         1 UNK         0.3055 
    106 H106       23.4997  -32.5891  -39.3550 H         1 UNK         0.1106 
    107 H107       23.2694  -35.0107  -39.6438 H         1 UNK         0.0828 
    108 H108       24.2688  -34.9957  -41.0861 H         1 UNK         0.0828 
    109 H109       24.9750  -34.6180  -39.5146 H         1 UNK         0.0828 
    110 H110       23.1498  -30.8944  -41.6581 H         1 UNK         0.2931 
    111 H111       21.5331  -30.0100  -42.7690 H         1 UNK         0.0412 
    112 H112       19.7399  -30.7015  -44.7133 H         1 UNK         0.3472 
    113 H113       20.5456  -31.7040  -45.9067 H         1 UNK         0.3472 
    114 H114       19.6065  -32.2383  -41.9048 H         1 UNK         0.0970 
    115 H115       19.1570  -30.8153  -42.7959 H         1 UNK         0.0970 
    116 H116       17.4802  -31.3864  -40.4954 H         1 UNK         0.0612 
    117 H117       17.5068  -30.0317  -39.3953 H         1 UNK         0.0612 
@<TRIPOS>BOND
     1    1    2 1    
     2    1   62 1    
     3    1   63 1    
     4    1   64 1    
     5    2    3 2    
     6    2    4 am   BACKBONE|DICT|INTERRES
     7    4    5 1    
     8    4   65 1    
     9    5    6 1    
    10    5   25 1    
    11    5   66 1    
    12    6    7 1    
    13    6   67 1    
    14    6   68 1    
    15    7    8 1    
    16    8    9 1    
    17    8   69 1    
    18    8   70 1    
    19    9   10 ar   
    20    9   14 ar   
    21   10   11 ar   
    22   10   71 1    
    23   11   12 ar   
    24   11   61 1    
    25   12   13 ar   
    26   12   72 1    
    27   13   14 ar   
    28   13   15 1    
    29   14   73 1    
    30   15   16 1    
    31   15   74 1    
    32   15   75 1    
    33   16   17 1    
    34   17   18 1    
    35   17   76 1    
    36   17   77 1    
    37   18   19 1    
    38   18   27 1    
    39   18   78 1    
    40   19   20 am   BACKBONE|DICT|INTERRES
    41   19   79 1    
    42   20   21 2    
    43   20   22 1    
    44   22   23 1    
    45   22   24 1    
    46   22   80 1    
    47   23   81 1    
    48   23   82 1    
    49   23   83 1    
    50   24   25 am   BACKBONE|DICT|INTERRES
    51   24   84 1    
    52   25   26 2    
    53   27   28 2    
    54   27   29 am   BACKBONE|DICT|INTERRES
    55   29   30 1    
    56   29   85 1    
    57   30   31 1    
    58   30   32 1    
    59   30   86 1    
    60   31   87 1    
    61   31   88 1    
    62   31   89 1    
    63   32   33 2    
    64   32   34 am   BACKBONE|DICT|INTERRES
    65   34   35 1    
    66   34   90 1    
    67   35   36 1    
    68   35   37 1    
    69   35   91 1    
    70   36   92 1    
    71   36   93 1    
    72   36   94 1    
    73   37   38 2    
    74   37   39 am   BACKBONE|DICT|INTERRES
    75   39   40 1    
    76   39   95 1    
    77   40   41 1    
    78   40   42 1    
    79   40   96 1    
    80   41   97 1    
    81   41   98 1    
    82   41   99 1    
    83   42   43 2    
    84   42   44 am   BACKBONE|DICT|INTERRES
    85   44   45 1    
    86   44  100 1    
    87   45   46 1    
    88   45   47 1    
    89   45  101 1    
    90   46  102 1    
    91   46  103 1    
    92   46  104 1    
    93   47   48 2    
    94   47   49 am   BACKBONE|DICT|INTERRES
    95   49   50 1    
    96   49  105 1    
    97   50   51 1    
    98   50   52 1    
    99   50  106 1    
   100   51  107 1    
   101   51  108 1    
   102   51  109 1    
   103   52   53 2    
   104   52   54 am   BACKBONE|DICT|INTERRES
   105   54   55 1    
   106   54  110 1    
   107   55   56 1    
   108   55   59 1    
   109   55  111 1    
   110   56   57 am   BACKBONE|DICT|INTERRES
   111   56   58 2    
   112   57  112 1    
   113   57  113 1    
   114   59   60 1    
   115   59  114 1    
   116   59  115 1    
   117   60   61 1    
   118   61  116 1    
   119   61  117 1    
@<TRIPOS>SUBSTRUCTURE
     1 UNK         1 GROUP             0       ****    0 ROOT    
