@<TRIPOS>MOLECULE
3R8
117   119    1
SMALL
USER_CHARGES


@<TRIPOS>ATOM
      1 CA         14.2239  -26.7447  -47.0745 C.3       0 UNK        -0.2013 
      2 C          15.1685  -26.1538  -46.0385 C.2       0 UNK         0.4866 
      3 O          14.9469  -25.0307  -45.5854 O.2       0 UNK        -0.5176 
      4 N          16.2171  -26.9041  -45.6701 N.am      1 UNK        -0.4884 
      5 CA         17.2489  -26.5493  -44.6818 C.3       1 UNK         0.0853 
      6 C6         16.7139  -26.4421  -43.2256 C.3       10 UNK        -0.0849 
      7 S7         15.9362  -27.9814  -42.6278 S.3       10 UNK        -0.2776 
      8 C8         17.2516  -28.6799  -41.5769 C.3       10 UNK         0.0316 
      9 C9         18.3196  -29.3783  -42.4054 C.ar      10 UNK        -0.0863 
     10 C10        18.1358  -30.7073  -42.7964 C.ar      10 UNK        -0.1009 
     11 C11        19.1065  -31.3660  -43.5561 C.ar      10 UNK        -0.0712 
     12 C12        20.2687  -30.6844  -43.9290 C.ar      10 UNK        -0.0894 
     13 C13        20.4667  -29.3570  -43.5382 C.ar      10 UNK        -0.0745 
     14 C14        19.4899  -28.7085  -42.7751 C.ar      10 UNK        -0.0972 
     15 C15        21.7344  -28.6194  -43.9348 C.3       10 UNK         0.0209 
     16 S16        21.4725  -27.6869  -45.4680 S.3       10 UNK        -0.2568 
     17 C17        22.8091  -26.4363  -45.3890 C.3       10 UNK        -0.0983 
     18 CA         22.3665  -25.0145  -44.9232 C.3       3 UNK         0.0876 
     19 N          21.0616  -24.6065  -45.4280 N.am      3 UNK        -0.4424 
     20 C          20.7354  -24.3554  -46.6975 C.2       2 UNK         0.4918 
     21 O          21.5557  -24.3168  -47.6163 O.2       2 UNK        -0.4875 
     22 CA         19.2311  -24.1452  -46.9831 C.3       2 UNK         0.0481 
     23 CB         18.9221  -24.0494  -48.4885 C.3       2 UNK        -0.1831 
     24 N          18.4020  -25.2062  -46.3952 N.am      2 UNK        -0.4498 
     25 C          18.0628  -25.3034  -45.1008 C.2       1 UNK         0.5027 
     26 O          18.3939  -24.4646  -44.2599 O.2       1 UNK        -0.4969 
     27 C          22.3117  -24.8725  -43.3932 C.2       3 UNK         0.5005 
     28 O          21.3994  -25.4127  -42.7637 O.2       3 UNK        -0.5279 
     29 N          23.2680  -24.1307  -42.8188 N.am      4 UNK        -0.4463 
     30 CA         23.3168  -23.8176  -41.3852 C.3       4 UNK         0.0283 
     31 CB         24.1038  -22.5118  -41.1843 C.3       4 UNK        -0.1875 
     32 C          23.9272  -24.9401  -40.5278 C.2       4 UNK         0.4949 
     33 O          23.6994  -24.9633  -39.3186 O.2       4 UNK        -0.5039 
     34 N          24.7057  -25.8344  -41.1527 N.am      5 UNK        -0.4663 
     35 CA         25.4505  -26.9064  -40.4829 C.3       5 UNK         0.0242 
     36 CB         26.5430  -27.4168  -41.4383 C.3       5 UNK        -0.1982 
     37 C          24.5811  -28.0802  -39.9961 C.2       5 UNK         0.5017 
     38 O          25.0586  -28.8737  -39.1861 O.2       5 UNK        -0.5012 
     39 N          23.3548  -28.1966  -40.5291 N.am      6 UNK        -0.4439 
     40 CA         22.3678  -29.2675  -40.3058 C.3       6 UNK         0.0297 
     41 CB         21.9447  -29.3421  -38.8240 C.3       6 UNK        -0.2006 
     42 C          22.7730  -30.6531  -40.8581 C.2       6 UNK         0.4892 
     43 O          22.0451  -31.6211  -40.6303 O.2       6 UNK        -0.5089 
     44 N          23.9033  -30.7267  -41.5823 N.am      7 UNK        -0.4243 
     45 CA         24.5182  -31.9263  -42.1628 C.3       7 UNK         0.0196 
     46 CB         23.7122  -32.3909  -43.3980 C.3       7 UNK        -0.2007 
     47 C          24.7282  -33.0148  -41.0906 C.2       7 UNK         0.5020 
     48 O          25.4992  -32.7971  -40.1550 O.2       7 UNK        -0.5147 
     49 N          24.0132  -34.1353  -41.2213 N.am      8 UNK        -0.4734 
     50 CA         23.8515  -35.1626  -40.1914 C.3       8 UNK         0.0238 
     51 CB         24.6921  -36.3978  -40.5668 C.3       8 UNK        -0.1912 
     52 C          22.3579  -35.4953  -40.0105 C.2       8 UNK         0.5038 
     53 O          22.0274  -36.6134  -39.6108 O.2       8 UNK        -0.5046 
     54 N          21.4810  -34.5402  -40.3473 N.am      9 UNK        -0.4200 
     55 CA         20.0214  -34.6911  -40.3376 C.3       9 UNK         0.0839 
     56 C          19.4243  -34.5428  -38.9132 C.2       9 UNK         0.5513 
     57 N          18.2525  -35.1165  -38.6755 N.am      9 UNK        -0.7519 
     58 O          19.9886  -33.8952  -38.0333 O.2       9 UNK        -0.4960 
     59 C59        19.3546  -33.7097  -41.3356 C.3       10 UNK        -0.0876 
     60 S60        19.9487  -33.9630  -43.0447 S.3       10 UNK        -0.2414 
     61 C61        18.8933  -32.8122  -43.9785 C.3       10 UNK         0.0169 
     62 H62        13.2171  -26.8183  -46.6642 H         1 UNK         0.0903 
     63 H63        14.1867  -26.1054  -47.9563 H         1 UNK         0.0903 
     64 H64        14.5340  -27.7406  -47.3906 H         1 UNK         0.0903 
     65 H65        16.3233  -27.8218  -46.0809 H         1 UNK         0.3096 
     66 H66        17.9686  -27.3688  -44.7012 H         1 UNK         0.1121 
     67 H67        15.9799  -25.6383  -43.1486 H         1 UNK         0.0849 
     68 H68        17.5177  -26.1717  -42.5386 H         1 UNK         0.0849 
     69 H69        17.6918  -27.9019  -40.9512 H         1 UNK         0.0865 
     70 H70        16.8025  -29.3961  -40.8870 H         1 UNK         0.0865 
     71 H71        17.2324  -31.2285  -42.5099 H         1 UNK         0.1346 
     72 H72        21.0199  -31.1908  -44.5191 H         1 UNK         0.1412 
     73 H73        19.6424  -27.6794  -42.4768 H         1 UNK         0.1426 
     74 H74        22.5626  -29.3164  -44.0697 H         1 UNK         0.0716 
     75 H75        22.0282  -27.9414  -43.1351 H         1 UNK         0.0716 
     76 H76        23.6359  -26.8128  -44.7837 H         1 UNK         0.0695 
     77 H77        23.2122  -26.3578  -46.3997 H         1 UNK         0.0695 
     78 H78        23.0965  -24.2946  -45.2998 H         1 UNK         0.0983 
     79 H79        20.3219  -24.6027  -44.7304 H         1 UNK         0.3095 
     80 H80        18.9506  -23.1925  -46.5295 H         1 UNK         0.0454 
     81 H81        19.4749  -23.2303  -48.9505 H         1 UNK         0.0851 
     82 H82        19.1940  -24.9646  -49.0157 H         1 UNK         0.0851 
     83 H83        17.8631  -23.8610  -48.6655 H         1 UNK         0.0851 
     84 H84        18.1096  -25.9455  -47.0181 H         1 UNK         0.2976 
     85 H85        23.9801  -23.7076  -43.3982 H         1 UNK         0.3116 
     86 H86        22.2981  -23.6528  -41.0267 H         1 UNK         0.0646 
     87 H87        24.1312  -22.2306  -40.1305 H         1 UNK         0.0847 
     88 H88        23.6450  -21.6837  -41.7247 H         1 UNK         0.0847 
     89 H89        25.1368  -22.6040  -41.5221 H         1 UNK         0.0847 
     90 H90        24.8495  -25.7287  -42.1463 H         1 UNK         0.3040 
     91 H91        25.9377  -26.4846  -39.6005 H         1 UNK         0.1015 
     92 H92        27.2294  -26.6173  -41.7184 H         1 UNK         0.0786 
     93 H93        26.1205  -27.8330  -42.3537 H         1 UNK         0.0786 
     94 H94        27.1403  -28.2002  -40.9690 H         1 UNK         0.0786 
     95 H95        23.0695  -27.4667  -41.1672 H         1 UNK         0.3172 
     96 H96        21.4838  -28.9720  -40.8681 H         1 UNK         0.0595 
     97 H97        21.6397  -28.3658  -38.4476 H         1 UNK         0.0839 
     98 H98        22.7495  -29.7128  -38.1888 H         1 UNK         0.0839 
     99 H99        21.0975  -30.0170  -38.6947 H         1 UNK         0.0839 
    100 H100       24.4469  -29.8808  -41.6622 H         1 UNK         0.2998 
    101 H101       25.5137  -31.6381  -42.5038 H         1 UNK         0.0822 
    102 H102       24.1661  -33.2673  -43.8625 H         1 UNK         0.0787 
    103 H103       22.6802  -32.6383  -43.1484 H         1 UNK         0.0787 
    104 H104       23.6841  -31.6107  -44.1584 H         1 UNK         0.0787 
    105 H105       23.3998  -34.2157  -42.0213 H         1 UNK         0.3055 
    106 H106       24.1974  -34.7866  -39.2257 H         1 UNK         0.1106 
    107 H107       25.7443  -36.1386  -40.6853 H         1 UNK         0.0828 
    108 H108       24.6353  -37.1633  -39.7919 H         1 UNK         0.0828 
    109 H109       24.3502  -36.8485  -41.4991 H         1 UNK         0.0828 
    110 H110       21.8192  -33.6088  -40.5714 H         1 UNK         0.2931 
    111 H111       19.7943  -35.7046  -40.6758 H         1 UNK         0.0412 
    112 H112       17.8388  -35.0253  -37.7604 H         1 UNK         0.3472 
    113 H113       17.7780  -35.6498  -39.3880 H         1 UNK         0.3472 
    114 H114       19.5521  -32.6769  -41.0418 H         1 UNK         0.0970 
    115 H115       18.2699  -33.8311  -41.3292 H         1 UNK         0.0970 
    116 H116       19.1166  -32.9138  -45.0413 H         1 UNK         0.0612 
    117 H117       17.8492  -33.1042  -43.8556 H         1 UNK         0.0612 
@<TRIPOS>BOND
     1    1    2 1    
     2    1   62 1    
     3    1   63 1    
     4    1   64 1    
     5    2    3 2    
     6    2    4 am   BACKBONE|DICT|INTERRES
     7    4    5 1    
     8    4   65 1    
     9    5    6 1    
    10    5   25 1    
    11    5   66 1    
    12    6    7 1    
    13    6   67 1    
    14    6   68 1    
    15    7    8 1    
    16    8    9 1    
    17    8   69 1    
    18    8   70 1    
    19    9   10 ar   
    20    9   14 ar   
    21   10   11 ar   
    22   10   71 1    
    23   11   12 ar   
    24   11   61 1    
    25   12   13 ar   
    26   12   72 1    
    27   13   14 ar   
    28   13   15 1    
    29   14   73 1    
    30   15   16 1    
    31   15   74 1    
    32   15   75 1    
    33   16   17 1    
    34   17   18 1    
    35   17   76 1    
    36   17   77 1    
    37   18   19 1    
    38   18   27 1    
    39   18   78 1    
    40   19   20 am   BACKBONE|DICT|INTERRES
    41   19   79 1    
    42   20   21 2    
    43   20   22 1    
    44   22   23 1    
    45   22   24 1    
    46   22   80 1    
    47   23   81 1    
    48   23   82 1    
    49   23   83 1    
    50   24   25 am   BACKBONE|DICT|INTERRES
    51   24   84 1    
    52   25   26 2    
    53   27   28 2    
    54   27   29 am   BACKBONE|DICT|INTERRES
    55   29   30 1    
    56   29   85 1    
    57   30   31 1    
    58   30   32 1    
    59   30   86 1    
    60   31   87 1    
    61   31   88 1    
    62   31   89 1    
    63   32   33 2    
    64   32   34 am   BACKBONE|DICT|INTERRES
    65   34   35 1    
    66   34   90 1    
    67   35   36 1    
    68   35   37 1    
    69   35   91 1    
    70   36   92 1    
    71   36   93 1    
    72   36   94 1    
    73   37   38 2    
    74   37   39 am   BACKBONE|DICT|INTERRES
    75   39   40 1    
    76   39   95 1    
    77   40   41 1    
    78   40   42 1    
    79   40   96 1    
    80   41   97 1    
    81   41   98 1    
    82   41   99 1    
    83   42   43 2    
    84   42   44 am   BACKBONE|DICT|INTERRES
    85   44   45 1    
    86   44  100 1    
    87   45   46 1    
    88   45   47 1    
    89   45  101 1    
    90   46  102 1    
    91   46  103 1    
    92   46  104 1    
    93   47   48 2    
    94   47   49 am   BACKBONE|DICT|INTERRES
    95   49   50 1    
    96   49  105 1    
    97   50   51 1    
    98   50   52 1    
    99   50  106 1    
   100   51  107 1    
   101   51  108 1    
   102   51  109 1    
   103   52   53 2    
   104   52   54 am   BACKBONE|DICT|INTERRES
   105   54   55 1    
   106   54  110 1    
   107   55   56 1    
   108   55   59 1    
   109   55  111 1    
   110   56   57 am   BACKBONE|DICT|INTERRES
   111   56   58 2    
   112   57  112 1    
   113   57  113 1    
   114   59   60 1    
   115   59  114 1    
   116   59  115 1    
   117   60   61 1    
   118   61  116 1    
   119   61  117 1    
@<TRIPOS>SUBSTRUCTURE
     1 UNK         1 GROUP             0       ****    0 ROOT    
