@<TRIPOS>MOLECULE
3R8
117   119    1
SMALL
USER_CHARGES


@<TRIPOS>ATOM
      1 CA         13.6495  -23.9118  -45.0481 C.3       0 UNK        -0.2013 
      2 C          14.6111  -24.6051  -44.0938 C.2       0 UNK         0.4866 
      3 O          14.7111  -24.1995  -42.9352 O.2       0 UNK        -0.5176 
      4 N          15.3061  -25.6439  -44.5797 N.am      1 UNK        -0.4884 
      5 CA         16.3129  -26.4545  -43.8746 C.3       1 UNK         0.0853 
      6 C6         15.7435  -27.2011  -42.6296 C.3       10 UNK        -0.0849 
      7 S7         14.6367  -28.5588  -43.1434 S.3       10 UNK        -0.2776 
      8 C8         15.6471  -30.0410  -42.7914 C.3       10 UNK         0.0316 
      9 C9         17.0585  -29.9534  -43.3638 C.ar      10 UNK        -0.0863 
     10 C10        18.1652  -30.0085  -42.5123 C.ar      10 UNK        -0.1009 
     11 C11        19.4643  -29.9179  -43.0204 C.ar      10 UNK        -0.0712 
     12 C12        19.6519  -29.7555  -44.3985 C.ar      10 UNK        -0.0894 
     13 C13        18.5516  -29.7011  -45.2618 C.ar      10 UNK        -0.0745 
     14 C14        17.2603  -29.8167  -44.7392 C.ar      10 UNK        -0.0972 
     15 C15        18.7414  -29.5351  -46.7621 C.3       10 UNK         0.0209 
     16 S16        18.9527  -27.7856  -47.2286 S.3       10 UNK        -0.2568 
     17 C17        20.7706  -27.6157  -47.2008 C.3       10 UNK        -0.0983 
     18 CA         21.2843  -26.4494  -46.3140 C.3       3 UNK         0.0876 
     19 N          20.7559  -26.5493  -44.9472 N.am      3 UNK        -0.4424 
     20 C          20.7281  -25.5865  -44.0165 C.2       2 UNK         0.4918 
     21 O          21.2284  -24.4699  -44.1668 O.2       2 UNK        -0.4875 
     22 CA         19.9730  -25.9390  -42.7209 C.3       2 UNK         0.0481 
     23 CB         19.9950  -24.8047  -41.6753 C.3       2 UNK        -0.1831 
     24 N          18.6012  -26.3865  -42.9971 N.am      2 UNK        -0.4498 
     25 C          17.6214  -25.6813  -43.5879 C.2       1 UNK         0.5027 
     26 O          17.7456  -24.5069  -43.9455 O.2       1 UNK        -0.4969 
     27 C          22.8304  -26.3523  -46.3537 C.2       3 UNK         0.5005 
     28 O          23.4845  -27.2241  -46.9303 O.2       3 UNK        -0.5279 
     29 N          23.3910  -25.3128  -45.7165 N.am      4 UNK        -0.4463 
     30 CA         24.8256  -25.0632  -45.5026 C.3       4 UNK         0.0283 
     31 CB         25.5425  -24.7613  -46.8359 C.3       4 UNK        -0.1875 
     32 C          25.5106  -26.1849  -44.6921 C.2       4 UNK         0.4949 
     33 O          26.6878  -26.4802  -44.9044 O.2       4 UNK        -0.5039 
     34 N          24.7475  -26.7894  -43.7772 N.am      5 UNK        -0.4663 
     35 CA         25.1147  -27.9093  -42.9211 C.3       5 UNK         0.0242 
     36 CB         25.0560  -29.2229  -43.7253 C.3       5 UNK        -0.1982 
     37 C          24.1356  -27.9364  -41.7415 C.2       5 UNK         0.5017 
     38 O          23.1090  -27.2510  -41.7822 O.2       5 UNK        -0.5012 
     39 N          24.4644  -28.7302  -40.7205 N.am      6 UNK        -0.4439 
     40 CA         23.6745  -28.9398  -39.5124 C.3       6 UNK         0.0297 
     41 CB         23.8314  -27.7363  -38.5611 C.3       6 UNK        -0.2006 
     42 C          24.1408  -30.2417  -38.8494 C.2       6 UNK         0.4892 
     43 O          25.1630  -30.8036  -39.2564 O.2       6 UNK        -0.5089 
     44 N          23.3844  -30.6848  -37.8359 N.am      7 UNK        -0.4243 
     45 CA         23.5910  -31.8650  -36.9844 C.3       7 UNK         0.0196 
     46 CB         24.9284  -31.7967  -36.2190 C.3       7 UNK        -0.2007 
     47 C          23.4272  -33.2033  -37.7224 C.2       7 UNK         0.5020 
     48 O          22.5499  -33.9849  -37.3565 O.2       7 UNK        -0.5147 
     49 N          24.2410  -33.4381  -38.7596 N.am      8 UNK        -0.4734 
     50 CA         24.2281  -34.6515  -39.5873 C.3       8 UNK         0.0238 
     51 CB         25.4269  -34.6244  -40.5492 C.3       8 UNK        -0.1912 
     52 C          22.9137  -34.8413  -40.3642 C.2       8 UNK         0.5038 
     53 O          22.4522  -35.9735  -40.5122 O.2       8 UNK        -0.5046 
     54 N          22.3351  -33.7232  -40.8131 N.am      9 UNK        -0.4200 
     55 CA         21.0070  -33.6220  -41.4330 C.3       9 UNK         0.0839 
     56 C          19.8829  -33.2157  -40.4336 C.2       9 UNK         0.5513 
     57 N          20.1327  -33.1541  -39.1303 N.am      9 UNK        -0.7519 
     58 O          18.7504  -32.9749  -40.8411 O.2       9 UNK        -0.4960 
     59 C59        21.0368  -32.7430  -42.7155 C.3       10 UNK        -0.0876 
     60 S60        21.9472  -31.1623  -42.5603 S.3       10 UNK        -0.2414 
     61 C61        20.6480  -29.9869  -42.0603 C.3       10 UNK         0.0169 
     62 H62        13.6667  -24.3582  -46.0435 H         1 UNK         0.0903 
     63 H63        12.6300  -23.9755  -44.6650 H         1 UNK         0.0903 
     64 H64        13.9127  -22.8575  -45.1448 H         1 UNK         0.0903 
     65 H65        15.1748  -25.8952  -45.5497 H         1 UNK         0.3096 
     66 H66        16.6172  -27.2031  -44.6058 H         1 UNK         0.1121 
     67 H67        16.5263  -27.6173  -41.9957 H         1 UNK         0.0849 
     68 H68        15.1895  -26.5253  -41.9782 H         1 UNK         0.0849 
     69 H69        15.6770  -30.1934  -41.7113 H         1 UNK         0.0865 
     70 H70        15.1480  -30.9172  -43.2074 H         1 UNK         0.0865 
     71 H71        18.0153  -30.1321  -41.4480 H         1 UNK         0.1346 
     72 H72        20.6548  -29.6899  -44.7976 H         1 UNK         0.1412 
     73 H73        16.4053  -29.7790  -45.4010 H         1 UNK         0.1426 
     74 H74        17.8695  -29.9247  -47.2900 H         1 UNK         0.0716 
     75 H75        19.5844  -30.1346  -47.1085 H         1 UNK         0.0716 
     76 H76        21.0955  -27.4724  -48.2332 H         1 UNK         0.0695 
     77 H77        21.2171  -28.5572  -46.8770 H         1 UNK         0.0695 
     78 H78        20.9045  -25.5197  -46.7435 H         1 UNK         0.0983 
     79 H79        20.2917  -27.4196  -44.7346 H         1 UNK         0.3095 
     80 H80        20.4903  -26.7907  -42.2816 H         1 UNK         0.0454 
     81 H81        21.0203  -24.5567  -41.3983 H         1 UNK         0.0851 
     82 H82        19.4751  -25.0961  -40.7630 H         1 UNK         0.0851 
     83 H83        19.5311  -23.8919  -42.0499 H         1 UNK         0.0851 
     84 H84        18.4151  -27.3555  -42.7764 H         1 UNK         0.2976 
     85 H85        22.7531  -24.6916  -45.2216 H         1 UNK         0.3116 
     86 H86        24.8880  -24.1654  -44.8859 H         1 UNK         0.0646 
     87 H87        25.5835  -25.6385  -47.4824 H         1 UNK         0.0847 
     88 H88        25.0429  -23.9627  -47.3841 H         1 UNK         0.0847 
     89 H89        26.5701  -24.4394  -46.6626 H         1 UNK         0.0847 
     90 H90        23.8073  -26.4501  -43.6130 H         1 UNK         0.3040 
     91 H91        26.1234  -27.7508  -42.5330 H         1 UNK         0.1015 
     92 H92        25.7651  -29.2149  -44.5531 H         1 UNK         0.0786 
     93 H93        25.2994  -30.0838  -43.1014 H         1 UNK         0.0786 
     94 H94        24.0618  -29.3917  -44.1418 H         1 UNK         0.0786 
     95 H95        25.2903  -29.3165  -40.7697 H         1 UNK         0.3172 
     96 H96        22.6248  -29.0574  -39.7899 H         1 UNK         0.0595 
     97 H97        24.8710  -27.5940  -38.2633 H         1 UNK         0.0839 
     98 H98        23.2461  -27.8680  -37.6505 H         1 UNK         0.0839 
     99 H99        23.4889  -26.8120  -39.0266 H         1 UNK         0.0839 
    100 H100       22.5540  -30.1521  -37.6145 H         1 UNK         0.2998 
    101 H101       22.7958  -31.8264  -36.2374 H         1 UNK         0.0822 
    102 H102       25.0221  -32.6354  -35.5278 H         1 UNK         0.0787 
    103 H103       24.9994  -30.8825  -35.6294 H         1 UNK         0.0787 
    104 H104       25.7908  -31.8313  -36.8853 H         1 UNK         0.0787 
    105 H105       24.8866  -32.6956  -39.0183 H         1 UNK         0.3055 
    106 H106       24.3385  -35.5104  -38.9216 H         1 UNK         0.1106 
    107 H107       25.3882  -33.7651  -41.2200 H         1 UNK         0.0828 
    108 H108       26.3707  -34.5826  -40.0054 H         1 UNK         0.0828 
    109 H109       25.4510  -35.5221  -41.1689 H         1 UNK         0.0828 
    110 H110       22.7977  -32.8428  -40.6407 H         1 UNK         0.2931 
    111 H111       20.7113  -34.6195  -41.7638 H         1 UNK         0.0412 
    112 H112       21.0298  -33.4290  -38.7536 H         1 UNK         0.3472 
    113 H113       19.3844  -32.9016  -38.5040 H         1 UNK         0.3472 
    114 H114       21.5390  -33.3066  -43.5032 H         1 UNK         0.0970 
    115 H115       20.0318  -32.5674  -43.1024 H         1 UNK         0.0970 
    116 H116       20.3174  -30.2504  -41.0542 H         1 UNK         0.0612 
    117 H117       21.0951  -28.9971  -41.9835 H         1 UNK         0.0612 
@<TRIPOS>BOND
     1    1    2 1    
     2    1   62 1    
     3    1   63 1    
     4    1   64 1    
     5    2    3 2    
     6    2    4 am   BACKBONE|DICT|INTERRES
     7    4    5 1    
     8    4   65 1    
     9    5    6 1    
    10    5   25 1    
    11    5   66 1    
    12    6    7 1    
    13    6   67 1    
    14    6   68 1    
    15    7    8 1    
    16    8    9 1    
    17    8   69 1    
    18    8   70 1    
    19    9   10 ar   
    20    9   14 ar   
    21   10   11 ar   
    22   10   71 1    
    23   11   12 ar   
    24   11   61 1    
    25   12   13 ar   
    26   12   72 1    
    27   13   14 ar   
    28   13   15 1    
    29   14   73 1    
    30   15   16 1    
    31   15   74 1    
    32   15   75 1    
    33   16   17 1    
    34   17   18 1    
    35   17   76 1    
    36   17   77 1    
    37   18   19 1    
    38   18   27 1    
    39   18   78 1    
    40   19   20 am   BACKBONE|DICT|INTERRES
    41   19   79 1    
    42   20   21 2    
    43   20   22 1    
    44   22   23 1    
    45   22   24 1    
    46   22   80 1    
    47   23   81 1    
    48   23   82 1    
    49   23   83 1    
    50   24   25 am   BACKBONE|DICT|INTERRES
    51   24   84 1    
    52   25   26 2    
    53   27   28 2    
    54   27   29 am   BACKBONE|DICT|INTERRES
    55   29   30 1    
    56   29   85 1    
    57   30   31 1    
    58   30   32 1    
    59   30   86 1    
    60   31   87 1    
    61   31   88 1    
    62   31   89 1    
    63   32   33 2    
    64   32   34 am   BACKBONE|DICT|INTERRES
    65   34   35 1    
    66   34   90 1    
    67   35   36 1    
    68   35   37 1    
    69   35   91 1    
    70   36   92 1    
    71   36   93 1    
    72   36   94 1    
    73   37   38 2    
    74   37   39 am   BACKBONE|DICT|INTERRES
    75   39   40 1    
    76   39   95 1    
    77   40   41 1    
    78   40   42 1    
    79   40   96 1    
    80   41   97 1    
    81   41   98 1    
    82   41   99 1    
    83   42   43 2    
    84   42   44 am   BACKBONE|DICT|INTERRES
    85   44   45 1    
    86   44  100 1    
    87   45   46 1    
    88   45   47 1    
    89   45  101 1    
    90   46  102 1    
    91   46  103 1    
    92   46  104 1    
    93   47   48 2    
    94   47   49 am   BACKBONE|DICT|INTERRES
    95   49   50 1    
    96   49  105 1    
    97   50   51 1    
    98   50   52 1    
    99   50  106 1    
   100   51  107 1    
   101   51  108 1    
   102   51  109 1    
   103   52   53 2    
   104   52   54 am   BACKBONE|DICT|INTERRES
   105   54   55 1    
   106   54  110 1    
   107   55   56 1    
   108   55   59 1    
   109   55  111 1    
   110   56   57 am   BACKBONE|DICT|INTERRES
   111   56   58 2    
   112   57  112 1    
   113   57  113 1    
   114   59   60 1    
   115   59  114 1    
   116   59  115 1    
   117   60   61 1    
   118   61  116 1    
   119   61  117 1    
@<TRIPOS>SUBSTRUCTURE
     1 UNK         1 GROUP             0       ****    0 ROOT    
