@<TRIPOS>MOLECULE
3R8
117   119    1
SMALL
USER_CHARGES


@<TRIPOS>ATOM
      1 CA         15.4971  -23.7460  -44.2164 C.3       0 UNK        -0.2013 
      2 C          16.3345  -25.0073  -44.0714 C.2       0 UNK         0.4866 
      3 O          17.3083  -25.1845  -44.8044 O.2       0 UNK        -0.5176 
      4 N          15.9722  -25.8836  -43.1254 N.am      1 UNK        -0.4884 
      5 CA         16.6452  -27.1561  -42.8338 C.3       1 UNK         0.0853 
      6 C6         15.6814  -28.1649  -42.1524 C.3       10 UNK        -0.0849 
      7 S7         14.6264  -28.9789  -43.3974 S.3       10 UNK        -0.2776 
      8 C8         15.4967  -30.5689  -43.6263 C.3       10 UNK         0.0316 
      9 C9         16.9687  -30.3851  -43.9815 C.ar      10 UNK        -0.0863 
     10 C10        17.9596  -30.6191  -43.0225 C.ar      10 UNK        -0.1009 
     11 C11        19.3104  -30.4415  -43.3353 C.ar      10 UNK        -0.0712 
     12 C12        19.6689  -30.0307  -44.6223 C.ar      10 UNK        -0.0894 
     13 C13        18.6889  -29.7949  -45.5924 C.ar      10 UNK        -0.0745 
     14 C14        17.3406  -29.9752  -45.2652 C.ar      10 UNK        -0.0972 
     15 C15        19.0780  -29.3768  -47.0036 C.3       10 UNK         0.0209 
     16 S16        19.4753  -27.6022  -47.1129 S.3       10 UNK        -0.2568 
     17 C17        21.2749  -27.6044  -46.8068 C.3       10 UNK        -0.0983 
     18 CA         21.7251  -26.5229  -45.7952 C.3       3 UNK         0.0876 
     19 N          21.0213  -26.6223  -44.5112 N.am      3 UNK        -0.4424 
     20 C          21.1836  -25.7968  -43.4656 C.2       2 UNK         0.4918 
     21 O          21.9668  -24.8442  -43.4611 O.2       2 UNK        -0.4875 
     22 CA         20.2838  -26.0564  -42.2485 C.3       2 UNK         0.0481 
     23 CB         20.3333  -24.9231  -41.2041 C.3       2 UNK        -0.1831 
     24 N          18.9162  -26.2796  -42.7060 N.am      2 UNK        -0.4498 
     25 C          17.9593  -26.9438  -42.0521 C.2       1 UNK         0.5027 
     26 O          18.0838  -27.3723  -40.9033 O.2       1 UNK        -0.4969 
     27 C          23.2502  -26.5930  -45.5903 C.2       3 UNK         0.5005 
     28 O          23.7281  -27.5524  -44.9830 O.2       3 UNK        -0.5279 
     29 N          23.9754  -25.5604  -46.0472 N.am      4 UNK        -0.4463 
     30 CA         25.4261  -25.3707  -45.8822 C.3       4 UNK         0.0283 
     31 CB         26.2037  -26.3900  -46.7423 C.3       4 UNK        -0.1875 
     32 C          25.8928  -25.3686  -44.4077 C.2       4 UNK         0.4949 
     33 O          27.0368  -25.7304  -44.1301 O.2       4 UNK        -0.5039 
     34 N          24.9905  -24.9768  -43.4936 N.am      5 UNK        -0.4663 
     35 CA         25.1279  -24.9910  -42.0327 C.3       5 UNK         0.0242 
     36 CB         26.2498  -24.0383  -41.5652 C.3       5 UNK        -0.1982 
     37 C          25.2474  -26.4055  -41.4252 C.2       5 UNK         0.5017 
     38 O          25.7496  -26.5370  -40.3070 O.2       5 UNK        -0.5012 
     39 N          24.7719  -27.4366  -42.1416 N.am      6 UNK        -0.4439 
     40 CA         24.6563  -28.8078  -41.6370 C.3       6 UNK         0.0297 
     41 CB         24.4023  -29.7636  -42.8143 C.3       6 UNK        -0.2006 
     42 C          23.5333  -28.9382  -40.5928 C.2       6 UNK         0.4892 
     43 O          22.6263  -28.1044  -40.5470 O.2       6 UNK        -0.5089 
     44 N          23.5996  -30.0068  -39.7959 N.am      7 UNK        -0.4243 
     45 CA         22.6064  -30.3779  -38.7939 C.3       7 UNK         0.0196 
     46 CB         22.9391  -29.6978  -37.4535 C.3       7 UNK        -0.2007 
     47 C          22.6017  -31.9040  -38.6598 C.2       7 UNK         0.5020 
     48 O          23.5770  -32.5511  -39.0508 O.2       7 UNK        -0.5147 
     49 N          21.5070  -32.4421  -38.1020 N.am      8 UNK        -0.4734 
     50 CA         21.2361  -33.8748  -37.8978 C.3       8 UNK         0.0238 
     51 CB         22.2026  -34.4742  -36.8528 C.3       8 UNK        -0.1912 
     52 C          21.2044  -34.6740  -39.2179 C.2       8 UNK         0.5038 
     53 O          21.7033  -35.7999  -39.2739 O.2       8 UNK        -0.5046 
     54 N          20.6223  -34.0618  -40.2575 N.am      9 UNK        -0.4200 
     55 CA         20.5201  -34.6104  -41.6195 C.3       9 UNK         0.0839 
     56 C          19.5400  -35.8106  -41.7734 C.2       9 UNK         0.5513 
     57 N          18.6738  -36.0945  -40.8079 N.am      9 UNK        -0.7519 
     58 O          19.5698  -36.4985  -42.7906 O.2       9 UNK        -0.4960 
     59 C59        20.1937  -33.5055  -42.6582 C.3       10 UNK        -0.0876 
     60 S60        21.4123  -32.1425  -42.6721 S.3       10 UNK        -0.2414 
     61 C61        20.3816  -30.6911  -42.2814 C.3       10 UNK         0.0169 
     62 H62        15.0845  -23.6846  -45.2231 H         1 UNK         0.0903 
     63 H63        14.6688  -23.7217  -43.5085 H         1 UNK         0.0903 
     64 H64        16.1148  -22.8645  -44.0469 H         1 UNK         0.0903 
     65 H65        15.1739  -25.6738  -42.5429 H         1 UNK         0.3096 
     66 H66        16.9594  -27.5879  -43.7865 H         1 UNK         0.1121 
     67 H67        15.0520  -27.6671  -41.4131 H         1 UNK         0.0849 
     68 H68        16.2144  -28.9409  -41.6013 H         1 UNK         0.0849 
     69 H69        15.3923  -31.1661  -42.7190 H         1 UNK         0.0865 
     70 H70        15.0007  -31.1338  -44.4170 H         1 UNK         0.0865 
     71 H71        17.6785  -30.9355  -42.0273 H         1 UNK         0.1346 
     72 H72        20.7151  -29.9120  -44.8656 H         1 UNK         0.1412 
     73 H73        16.5760  -29.7925  -46.0082 H         1 UNK         0.1426 
     74 H74        18.2568  -29.5837  -47.6917 H         1 UNK         0.0716 
     75 H75        19.9168  -29.9779  -47.3574 H         1 UNK         0.0716 
     76 H76        21.7671  -27.4453  -47.7682 H         1 UNK         0.0695 
     77 H77        21.5928  -28.5929  -46.4735 H         1 UNK         0.0695 
     78 H78        21.4748  -25.5459  -46.2141 H         1 UNK         0.0983 
     79 H79        20.3547  -27.3760  -44.4363 H         1 UNK         0.3095 
     80 H80        20.6427  -26.9752  -41.7836 H         1 UNK         0.0454 
     81 H81        19.9839  -23.9780  -41.6209 H         1 UNK         0.0851 
     82 H82        21.3518  -24.7692  -40.8454 H         1 UNK         0.0851 
     83 H83        19.7201  -25.1540  -40.3333 H         1 UNK         0.0851 
     84 H84        18.6798  -25.9056  -43.6233 H         1 UNK         0.2976 
     85 H85        23.4910  -24.8022  -46.5093 H         1 UNK         0.3116 
     86 H86        25.6498  -24.3751  -46.2680 H         1 UNK         0.0646 
     87 H87        25.8729  -26.3690  -47.7805 H         1 UNK         0.0847 
     88 H88        26.0810  -27.4082  -46.3713 H         1 UNK         0.0847 
     89 H89        27.2722  -26.1712  -46.7412 H         1 UNK         0.0847 
     90 H90        24.0615  -24.7344  -43.8230 H         1 UNK         0.3040 
     91 H91        24.1870  -24.5942  -41.6476 H         1 UNK         0.1015 
     92 H92        27.2386  -24.4125  -41.8315 H         1 UNK         0.0786 
     93 H93        26.2327  -23.9158  -40.4815 H         1 UNK         0.0786 
     94 H94        26.1363  -23.0462  -42.0022 H         1 UNK         0.0786 
     95 H95        24.3814  -27.2623  -43.0626 H         1 UNK         0.3172 
     96 H96        25.6033  -29.0800  -41.1661 H         1 UNK         0.0595 
     97 H97        24.4094  -30.8039  -42.4869 H         1 UNK         0.0839 
     98 H98        25.1674  -29.6612  -43.5841 H         1 UNK         0.0839 
     99 H99        23.4331  -29.5797  -43.2799 H         1 UNK         0.0839 
    100 H100       24.3260  -30.6998  -39.9316 H         1 UNK         0.2998 
    101 H101       21.6161  -30.0625  -39.1307 H         1 UNK         0.0822 
    102 H102       22.9339  -28.6117  -37.5490 H         1 UNK         0.0787 
    103 H103       22.2088  -29.9579  -36.6865 H         1 UNK         0.0787 
    104 H104       23.9215  -29.9961  -37.0851 H         1 UNK         0.0787 
    105 H105       20.7712  -31.8157  -37.8027 H         1 UNK         0.3055 
    106 H106       20.2283  -33.9445  -37.4846 H         1 UNK         0.1106 
    107 H107       23.2298  -34.5018  -37.2175 H         1 UNK         0.0828 
    108 H108       21.9212  -35.4977  -36.6018 H         1 UNK         0.0828 
    109 H109       22.1911  -33.9007  -35.9261 H         1 UNK         0.0828 
    110 H110       20.2502  -33.1348  -40.1234 H         1 UNK         0.2931 
    111 H111       21.5073  -35.0035  -41.8708 H         1 UNK         0.0412 
    112 H112       18.0478  -36.8768  -40.9202 H         1 UNK         0.3472 
    113 H113       18.6409  -35.5385  -39.9688 H         1 UNK         0.3472 
    114 H114       19.1923  -33.1124  -42.4795 H         1 UNK         0.0970 
    115 H115       20.1717  -33.9247  -43.6660 H         1 UNK         0.0970 
    116 H116       19.9377  -30.8217  -41.2935 H         1 UNK         0.0612 
    117 H117       21.0228  -29.8114  -42.2136 H         1 UNK         0.0612 
@<TRIPOS>BOND
     1    1    2 1    
     2    1   62 1    
     3    1   63 1    
     4    1   64 1    
     5    2    3 2    
     6    2    4 am   BACKBONE|DICT|INTERRES
     7    4    5 1    
     8    4   65 1    
     9    5    6 1    
    10    5   25 1    
    11    5   66 1    
    12    6    7 1    
    13    6   67 1    
    14    6   68 1    
    15    7    8 1    
    16    8    9 1    
    17    8   69 1    
    18    8   70 1    
    19    9   10 ar   
    20    9   14 ar   
    21   10   11 ar   
    22   10   71 1    
    23   11   12 ar   
    24   11   61 1    
    25   12   13 ar   
    26   12   72 1    
    27   13   14 ar   
    28   13   15 1    
    29   14   73 1    
    30   15   16 1    
    31   15   74 1    
    32   15   75 1    
    33   16   17 1    
    34   17   18 1    
    35   17   76 1    
    36   17   77 1    
    37   18   19 1    
    38   18   27 1    
    39   18   78 1    
    40   19   20 am   BACKBONE|DICT|INTERRES
    41   19   79 1    
    42   20   21 2    
    43   20   22 1    
    44   22   23 1    
    45   22   24 1    
    46   22   80 1    
    47   23   81 1    
    48   23   82 1    
    49   23   83 1    
    50   24   25 am   BACKBONE|DICT|INTERRES
    51   24   84 1    
    52   25   26 2    
    53   27   28 2    
    54   27   29 am   BACKBONE|DICT|INTERRES
    55   29   30 1    
    56   29   85 1    
    57   30   31 1    
    58   30   32 1    
    59   30   86 1    
    60   31   87 1    
    61   31   88 1    
    62   31   89 1    
    63   32   33 2    
    64   32   34 am   BACKBONE|DICT|INTERRES
    65   34   35 1    
    66   34   90 1    
    67   35   36 1    
    68   35   37 1    
    69   35   91 1    
    70   36   92 1    
    71   36   93 1    
    72   36   94 1    
    73   37   38 2    
    74   37   39 am   BACKBONE|DICT|INTERRES
    75   39   40 1    
    76   39   95 1    
    77   40   41 1    
    78   40   42 1    
    79   40   96 1    
    80   41   97 1    
    81   41   98 1    
    82   41   99 1    
    83   42   43 2    
    84   42   44 am   BACKBONE|DICT|INTERRES
    85   44   45 1    
    86   44  100 1    
    87   45   46 1    
    88   45   47 1    
    89   45  101 1    
    90   46  102 1    
    91   46  103 1    
    92   46  104 1    
    93   47   48 2    
    94   47   49 am   BACKBONE|DICT|INTERRES
    95   49   50 1    
    96   49  105 1    
    97   50   51 1    
    98   50   52 1    
    99   50  106 1    
   100   51  107 1    
   101   51  108 1    
   102   51  109 1    
   103   52   53 2    
   104   52   54 am   BACKBONE|DICT|INTERRES
   105   54   55 1    
   106   54  110 1    
   107   55   56 1    
   108   55   59 1    
   109   55  111 1    
   110   56   57 am   BACKBONE|DICT|INTERRES
   111   56   58 2    
   112   57  112 1    
   113   57  113 1    
   114   59   60 1    
   115   59  114 1    
   116   59  115 1    
   117   60   61 1    
   118   61  116 1    
   119   61  117 1    
@<TRIPOS>SUBSTRUCTURE
     1 UNK         1 GROUP             0       ****    0 ROOT    
