@<TRIPOS>MOLECULE
3R8
117   119    1
SMALL
USER_CHARGES


@<TRIPOS>ATOM
      1 CA         23.0093  -28.3748  -49.7392 C.3       0 UNK        -0.2013 
      2 C          23.0192  -28.5211  -48.2251 C.2       0 UNK         0.4866 
      3 O          24.0514  -28.2927  -47.5952 O.2       0 UNK        -0.5176 
      4 N          21.8792  -28.9079  -47.6386 N.am      1 UNK        -0.4884 
      5 CA         21.6843  -29.0562  -46.1921 C.3       1 UNK         0.0853 
      6 C6         20.3981  -29.8594  -45.8577 C.3       10 UNK        -0.0849 
      7 S7         18.8931  -29.2023  -46.6660 S.3       10 UNK        -0.2776 
      8 C8         17.6340  -30.4056  -46.1463 C.3       10 UNK         0.0316 
      9 C9         17.2242  -30.2019  -44.6961 C.ar      10 UNK        -0.0863 
     10 C10        17.6691  -31.0833  -43.7064 C.ar      10 UNK        -0.1009 
     11 C11        17.2671  -30.9146  -42.3785 C.ar      10 UNK        -0.0712 
     12 C12        16.4100  -29.8634  -42.0455 C.ar      10 UNK        -0.0894 
     13 C13        15.9795  -28.9607  -43.0211 C.ar      10 UNK        -0.0745 
     14 C14        16.3841  -29.1388  -44.3476 C.ar      10 UNK        -0.0972 
     15 C15        15.0940  -27.7867  -42.6297 C.3       10 UNK         0.0209 
     16 S16        15.9417  -26.6594  -41.4742 S.3       10 UNK        -0.2568 
     17 C17        17.2425  -25.9381  -42.5330 C.3       10 UNK        -0.0983 
     18 CA         18.5989  -26.7054  -42.4946 C.3       3 UNK         0.0876 
     19 N          19.3741  -26.4948  -43.7230 N.am      3 UNK        -0.4424 
     20 C          19.9209  -25.3423  -44.1415 C.2       2 UNK         0.4918 
     21 O          19.7724  -24.2666  -43.5590 O.2       2 UNK        -0.4875 
     22 CA         20.7417  -25.3695  -45.4523 C.3       2 UNK         0.0481 
     23 CB         22.0590  -24.5759  -45.3223 C.3       2 UNK        -0.1831 
     24 N          20.9847  -26.7128  -45.9998 N.am      2 UNK        -0.4498 
     25 C          21.7131  -27.7009  -45.4564 C.2       1 UNK         0.5027 
     26 O          22.3627  -27.5863  -44.4210 O.2       1 UNK        -0.4969 
     27 C          19.4539  -26.4528  -41.2263 C.2       3 UNK         0.5005 
     28 O          20.6787  -26.5817  -41.2789 O.2       3 UNK        -0.5279 
     29 N          18.7976  -26.1307  -40.1011 N.am      4 UNK        -0.4463 
     30 CA         19.3656  -25.6526  -38.8299 C.3       4 UNK         0.0283 
     31 CB         19.8422  -24.1945  -38.9993 C.3       4 UNK        -0.1875 
     32 C          20.4605  -26.5493  -38.2099 C.2       4 UNK         0.4949 
     33 O          21.3435  -26.0372  -37.5200 O.2       4 UNK        -0.5039 
     34 N          20.3904  -27.8637  -38.4719 N.am      5 UNK        -0.4663 
     35 CA         21.3677  -28.8925  -38.0860 C.3       5 UNK         0.0242 
     36 CB         21.4029  -29.0744  -36.5530 C.3       5 UNK        -0.1982 
     37 C          22.7722  -28.6857  -38.6989 C.2       5 UNK         0.5017 
     38 O          23.7578  -29.1400  -38.1147 O.2       5 UNK        -0.5012 
     39 N          22.8496  -28.0102  -39.8546 N.am      6 UNK        -0.4439 
     40 CA         24.0814  -27.8093  -40.6163 C.3       6 UNK         0.0297 
     41 CB         24.0245  -26.4315  -41.2974 C.3       6 UNK        -0.2006 
     42 C          24.2581  -28.9123  -41.6715 C.2       6 UNK         0.4892 
     43 O          23.2713  -29.4903  -42.1341 O.2       6 UNK        -0.5089 
     44 N          25.5219  -29.1370  -42.0624 N.am      7 UNK        -0.4243 
     45 CA         25.9788  -30.0104  -43.1501 C.3       7 UNK         0.0196 
     46 CB         25.7174  -29.3273  -44.5121 C.3       7 UNK        -0.2007 
     47 C          25.4145  -31.4418  -43.0501 C.2       7 UNK         0.5020 
     48 O          25.8324  -32.1933  -42.1691 O.2       7 UNK        -0.5147 
     49 N          24.4917  -31.7937  -43.9548 N.am      8 UNK        -0.4734 
     50 CA         23.8155  -33.0915  -44.0091 C.3       8 UNK         0.0238 
     51 CB         23.1773  -33.2612  -45.3982 C.3       8 UNK        -0.1912 
     52 C          22.7582  -33.2913  -42.9073 C.2       8 UNK         0.5038 
     53 O          22.4197  -34.4395  -42.6159 O.2       8 UNK        -0.5046 
     54 N          22.2420  -32.1968  -42.3333 N.am      9 UNK        -0.4200 
     55 CA         21.2951  -32.2153  -41.2131 C.3       9 UNK         0.0839 
     56 C          22.0234  -32.4524  -39.8597 C.2       9 UNK         0.5513 
     57 N          21.3492  -33.0501  -38.8871 N.am      9 UNK        -0.7519 
     58 O          23.1807  -32.0869  -39.6725 O.2       9 UNK        -0.4960 
     59 C59        20.4258  -30.9301  -41.2235 C.3       10 UNK        -0.0876 
     60 S60        18.9363  -31.0518  -40.1752 S.3       10 UNK        -0.2414 
     61 C61        17.7535  -31.8626  -41.2955 C.3       10 UNK         0.0169 
     62 H62        23.7525  -29.0356  -50.1847 H         1 UNK         0.0903 
     63 H63        22.0374  -28.6204  -50.1671 H         1 UNK         0.0903 
     64 H64        23.2535  -27.3501  -50.0181 H         1 UNK         0.0903 
     65 H65        21.0600  -29.0867  -48.2036 H         1 UNK         0.3096 
     66 H66        22.5314  -29.6289  -45.8092 H         1 UNK         0.1121 
     67 H67        20.2397  -29.9059  -44.7782 H         1 UNK         0.0849 
     68 H68        20.5268  -30.8934  -46.1810 H         1 UNK         0.0849 
     69 H69        16.7566  -30.2941  -46.7852 H         1 UNK         0.0865 
     70 H70        18.0016  -31.4195  -46.3131 H         1 UNK         0.0865 
     71 H71        18.3255  -31.9017  -43.9692 H         1 UNK         0.1346 
     72 H72        16.1022  -29.7292  -41.0172 H         1 UNK         0.1412 
     73 H73        16.0519  -28.4484  -45.1112 H         1 UNK         0.1426 
     74 H74        14.1908  -28.1680  -42.1515 H         1 UNK         0.0716 
     75 H75        14.7651  -27.2285  -43.5076 H         1 UNK         0.0716 
     76 H76        17.3807  -24.8908  -42.2577 H         1 UNK         0.0695 
     77 H77        16.8575  -25.9172  -43.5539 H         1 UNK         0.0695 
     78 H78        18.3901  -27.7749  -42.4826 H         1 UNK         0.0983 
     79 H79        19.5685  -27.3239  -44.2629 H         1 UNK         0.3095 
     80 H80        20.1276  -24.8598  -46.1959 H         1 UNK         0.0454 
     81 H81        22.6932  -24.9693  -44.5273 H         1 UNK         0.0851 
     82 H82        21.8633  -23.5290  -45.0878 H         1 UNK         0.0851 
     83 H83        22.6303  -24.5973  -46.2501 H         1 UNK         0.0851 
     84 H84        20.4789  -26.9331  -46.8473 H         1 UNK         0.2976 
     85 H85        17.7856  -26.1181  -40.1584 H         1 UNK         0.3116 
     86 H86        18.5430  -25.6497  -38.1134 H         1 UNK         0.0646 
     87 H87        20.6987  -24.1299  -39.6717 H         1 UNK         0.0847 
     88 H88        20.1429  -23.7616  -38.0444 H         1 UNK         0.0847 
     89 H89        19.0519  -23.5616  -39.4027 H         1 UNK         0.0847 
     90 H90        19.6278  -28.1797  -39.0553 H         1 UNK         0.3040 
     91 H91        21.0048  -29.8315  -38.5013 H         1 UNK         0.1015 
     92 H92        20.4027  -29.2293  -36.1487 H         1 UNK         0.0786 
     93 H93        21.8398  -28.2110  -36.0505 H         1 UNK         0.0786 
     94 H94        21.9991  -29.9452  -36.2771 H         1 UNK         0.0786 
     95 H95        22.0005  -27.6563  -40.2896 H         1 UNK         0.3172 
     96 H96        24.9394  -27.8222  -39.9409 H         1 UNK         0.0595 
     97 H97        23.2282  -26.3843  -42.0418 H         1 UNK         0.0839 
     98 H98        24.9597  -26.2086  -41.8121 H         1 UNK         0.0839 
     99 H99        23.8524  -25.6353  -40.5730 H         1 UNK         0.0839 
    100 H100       26.2550  -28.6308  -41.5856 H         1 UNK         0.2998 
    101 H101       27.0598  -30.1072  -43.0368 H         1 UNK         0.0822 
    102 H102       26.2594  -28.3843  -44.5840 H         1 UNK         0.0787 
    103 H103       26.0534  -29.9486  -45.3436 H         1 UNK         0.0787 
    104 H104       24.6620  -29.1023  -44.6656 H         1 UNK         0.0787 
    105 H105       24.2110  -31.1012  -44.6328 H         1 UNK         0.3055 
    106 H106       24.5669  -33.8737  -43.8783 H         1 UNK         0.1106 
    107 H107       22.6932  -34.2348  -45.4888 H         1 UNK         0.0828 
    108 H108       22.4186  -32.5023  -45.5910 H         1 UNK         0.0828 
    109 H109       23.9244  -33.1998  -46.1898 H         1 UNK         0.0828 
    110 H110       22.6541  -31.2906  -42.5392 H         1 UNK         0.2931 
    111 H111       20.6246  -33.0618  -41.3750 H         1 UNK         0.0412 
    112 H112       21.8022  -33.2111  -38.0014 H         1 UNK         0.3472 
    113 H113       20.3884  -33.3265  -39.0185 H         1 UNK         0.3472 
    114 H114       21.0099  -30.0662  -40.9066 H         1 UNK         0.0970 
    115 H115       20.1092  -30.7000  -42.2411 H         1 UNK         0.0970 
    116 H116       16.8985  -32.2076  -40.7123 H         1 UNK         0.0612 
    117 H117       18.2088  -32.7544  -41.7284 H         1 UNK         0.0612 
@<TRIPOS>BOND
     1    1    2 1    
     2    1   62 1    
     3    1   63 1    
     4    1   64 1    
     5    2    3 2    
     6    2    4 am   BACKBONE|DICT|INTERRES
     7    4    5 1    
     8    4   65 1    
     9    5    6 1    
    10    5   25 1    
    11    5   66 1    
    12    6    7 1    
    13    6   67 1    
    14    6   68 1    
    15    7    8 1    
    16    8    9 1    
    17    8   69 1    
    18    8   70 1    
    19    9   10 ar   
    20    9   14 ar   
    21   10   11 ar   
    22   10   71 1    
    23   11   12 ar   
    24   11   61 1    
    25   12   13 ar   
    26   12   72 1    
    27   13   14 ar   
    28   13   15 1    
    29   14   73 1    
    30   15   16 1    
    31   15   74 1    
    32   15   75 1    
    33   16   17 1    
    34   17   18 1    
    35   17   76 1    
    36   17   77 1    
    37   18   19 1    
    38   18   27 1    
    39   18   78 1    
    40   19   20 am   BACKBONE|DICT|INTERRES
    41   19   79 1    
    42   20   21 2    
    43   20   22 1    
    44   22   23 1    
    45   22   24 1    
    46   22   80 1    
    47   23   81 1    
    48   23   82 1    
    49   23   83 1    
    50   24   25 am   BACKBONE|DICT|INTERRES
    51   24   84 1    
    52   25   26 2    
    53   27   28 2    
    54   27   29 am   BACKBONE|DICT|INTERRES
    55   29   30 1    
    56   29   85 1    
    57   30   31 1    
    58   30   32 1    
    59   30   86 1    
    60   31   87 1    
    61   31   88 1    
    62   31   89 1    
    63   32   33 2    
    64   32   34 am   BACKBONE|DICT|INTERRES
    65   34   35 1    
    66   34   90 1    
    67   35   36 1    
    68   35   37 1    
    69   35   91 1    
    70   36   92 1    
    71   36   93 1    
    72   36   94 1    
    73   37   38 2    
    74   37   39 am   BACKBONE|DICT|INTERRES
    75   39   40 1    
    76   39   95 1    
    77   40   41 1    
    78   40   42 1    
    79   40   96 1    
    80   41   97 1    
    81   41   98 1    
    82   41   99 1    
    83   42   43 2    
    84   42   44 am   BACKBONE|DICT|INTERRES
    85   44   45 1    
    86   44  100 1    
    87   45   46 1    
    88   45   47 1    
    89   45  101 1    
    90   46  102 1    
    91   46  103 1    
    92   46  104 1    
    93   47   48 2    
    94   47   49 am   BACKBONE|DICT|INTERRES
    95   49   50 1    
    96   49  105 1    
    97   50   51 1    
    98   50   52 1    
    99   50  106 1    
   100   51  107 1    
   101   51  108 1    
   102   51  109 1    
   103   52   53 2    
   104   52   54 am   BACKBONE|DICT|INTERRES
   105   54   55 1    
   106   54  110 1    
   107   55   56 1    
   108   55   59 1    
   109   55  111 1    
   110   56   57 am   BACKBONE|DICT|INTERRES
   111   56   58 2    
   112   57  112 1    
   113   57  113 1    
   114   59   60 1    
   115   59  114 1    
   116   59  115 1    
   117   60   61 1    
   118   61  116 1    
   119   61  117 1    
@<TRIPOS>SUBSTRUCTURE
     1 UNK         1 GROUP             0       ****    0 ROOT    
