@<TRIPOS>MOLECULE
3R8
117   119    1
SMALL
USER_CHARGES


@<TRIPOS>ATOM
      1 CA         16.0681  -27.1490  -40.5723 C.3       0 UNK        -0.2013 
      2 C          15.4754  -27.5116  -41.9254 C.2       0 UNK         0.4866 
      3 O          14.3574  -28.0239  -41.9854 O.2       0 UNK        -0.5176 
      4 N          16.2091  -27.2425  -43.0113 N.am      1 UNK        -0.4884 
      5 CA         15.7607  -27.4468  -44.3927 C.3       1 UNK         0.0853 
      6 C6         15.6278  -28.9558  -44.7992 C.3       10 UNK        -0.0849 
      7 S7         16.7282  -29.6321  -46.1042 S.3       10 UNK        -0.2776 
      8 C8         17.7749  -30.7995  -45.1792 C.3       10 UNK         0.0316 
      9 C9         18.9509  -30.1138  -44.4973 C.ar      10 UNK        -0.0863 
     10 C10        18.8010  -29.5564  -43.2241 C.ar      10 UNK        -0.1009 
     11 C11        19.8916  -28.9773  -42.5697 C.ar      10 UNK        -0.0712 
     12 C12        21.1449  -28.9895  -43.1852 C.ar      10 UNK        -0.0894 
     13 C13        21.3039  -29.5030  -44.4762 C.ar      10 UNK        -0.0745 
     14 C14        20.2009  -30.0669  -45.1261 C.ar      10 UNK        -0.0972 
     15 C15        22.6712  -29.4759  -45.1542 C.3       10 UNK         0.0209 
     16 S16        22.9333  -27.9939  -46.1895 S.3       10 UNK        -0.2568 
     17 C17        23.2353  -26.7097  -44.9266 C.3       10 UNK        -0.0983 
     18 CA         22.6638  -25.2987  -45.2760 C.3       3 UNK         0.0876 
     19 N          21.2911  -25.3427  -45.7904 N.am      3 UNK        -0.4424 
     20 C          20.1990  -25.7274  -45.1179 C.2       2 UNK         0.4918 
     21 O          20.1784  -25.9728  -43.9090 O.2       2 UNK        -0.4875 
     22 CA         18.9144  -25.8780  -45.9475 C.3       2 UNK         0.0481 
     23 CB         19.1538  -26.6457  -47.2666 C.3       2 UNK        -0.1831 
     24 N          17.9239  -26.5896  -45.1478 N.am      2 UNK        -0.4498 
     25 C          16.5992  -26.5649  -45.3342 C.2       1 UNK         0.5027 
     26 O          16.0367  -25.8723  -46.1843 O.2       1 UNK        -0.4969 
     27 C          22.7786  -24.2797  -44.1154 C.2       3 UNK         0.5005 
     28 O          22.4820  -23.0987  -44.3106 O.2       3 UNK        -0.5279 
     29 N          23.1844  -24.7619  -42.9370 N.am      4 UNK        -0.4463 
     30 CA         23.2257  -24.0657  -41.6534 C.3       4 UNK         0.0283 
     31 CB         24.4264  -23.1048  -41.5780 C.3       4 UNK        -0.1875 
     32 C          23.2754  -25.1124  -40.5312 C.2       4 UNK         0.4949 
     33 O          22.5922  -24.9593  -39.5195 O.2       4 UNK        -0.5039 
     34 N          24.0523  -26.1785  -40.7581 N.am      5 UNK        -0.4663 
     35 CA         24.1658  -27.3775  -39.9343 C.3       5 UNK         0.0242 
     36 CB         25.1419  -27.1179  -38.7688 C.3       5 UNK        -0.1982 
     37 C          24.6321  -28.5298  -40.8420 C.2       5 UNK         0.5017 
     38 O          24.7840  -28.3204  -42.0500 O.2       5 UNK        -0.5012 
     39 N          24.8678  -29.7043  -40.2390 N.am      6 UNK        -0.4439 
     40 CA         25.3198  -30.9585  -40.8611 C.3       6 UNK         0.0297 
     41 CB         26.6579  -30.7638  -41.6099 C.3       6 UNK        -0.2006 
     42 C          24.2453  -31.6279  -41.7412 C.2       6 UNK         0.4892 
     43 O          23.1202  -31.1340  -41.8336 O.2       6 UNK        -0.5089 
     44 N          24.6002  -32.7852  -42.3219 N.am      7 UNK        -0.4243 
     45 CA         23.7346  -33.6888  -43.0916 C.3       7 UNK         0.0196 
     46 CB         23.3296  -33.0475  -44.4375 C.3       7 UNK        -0.2007 
     47 C          22.5447  -34.1615  -42.2349 C.2       7 UNK         0.5020 
     48 O          22.7678  -34.8192  -41.2173 O.2       7 UNK        -0.5147 
     49 N          21.3167  -33.7847  -42.6168 N.am      8 UNK        -0.4734 
     50 CA         20.0875  -34.0285  -41.8531 C.3       8 UNK         0.0238 
     51 CB         18.8777  -33.5959  -42.6961 C.3       8 UNK        -0.1912 
     52 C          20.0621  -33.3243  -40.4824 C.2       8 UNK         0.5038 
     53 O          19.3781  -33.8035  -39.5771 O.2       8 UNK        -0.5046 
     54 N          20.8166  -32.2267  -40.3540 N.am      9 UNK        -0.4200 
     55 CA         21.0444  -31.4835  -39.1093 C.3       9 UNK         0.0839 
     56 C          22.3548  -31.9063  -38.3807 C.2       9 UNK         0.5513 
     57 N          23.0258  -32.9863  -38.7663 N.am      9 UNK        -0.7519 
     58 O          22.7746  -31.2447  -37.4350 O.2       9 UNK        -0.4960 
     59 C59        20.9799  -29.9541  -39.3570 C.3       10 UNK        -0.0876 
     60 S60        19.3158  -29.4158  -39.8748 S.3       10 UNK        -0.2414 
     61 C61        19.7021  -28.2729  -41.2342 C.3       10 UNK         0.0169 
     62 H62        15.3022  -26.7161  -39.9292 H         1 UNK         0.0903 
     63 H63        16.4589  -28.0406  -40.0826 H         1 UNK         0.0903 
     64 H64        16.8748  -26.4223  -40.6633 H         1 UNK         0.0903 
     65 H65        17.0935  -26.7638  -42.9094 H         1 UNK         0.3096 
     66 H66        14.7554  -27.0199  -44.4398 H         1 UNK         0.1121 
     67 H67        15.6898  -29.5973  -43.9199 H         1 UNK         0.0849 
     68 H68        14.6125  -29.1144  -45.1657 H         1 UNK         0.0849 
     69 H69        17.1755  -31.3441  -44.4482 H         1 UNK         0.0865 
     70 H70        18.1455  -31.5539  -45.8748 H         1 UNK         0.0865 
     71 H71        17.8357  -29.5728  -42.7380 H         1 UNK         0.1346 
     72 H72        21.9955  -28.5767  -42.6630 H         1 UNK         0.1412 
     73 H73        20.3203  -30.4826  -46.1172 H         1 UNK         0.1426 
     74 H74        22.7778  -30.3530  -45.7932 H         1 UNK         0.0716 
     75 H75        23.4649  -29.5471  -44.4078 H         1 UNK         0.0716 
     76 H76        22.8091  -27.0666  -43.9939 H         1 UNK         0.0695 
     77 H77        24.3133  -26.6518  -44.7645 H         1 UNK         0.0695 
     78 H78        23.2732  -24.8952  -46.0862 H         1 UNK         0.0983 
     79 H79        21.1949  -25.1216  -46.7701 H         1 UNK         0.3095 
     80 H80        18.5445  -24.8752  -46.1690 H         1 UNK         0.0454 
     81 H81        19.8115  -26.0980  -47.9414 H         1 UNK         0.0851 
     82 H82        19.6078  -27.6206  -47.0815 H         1 UNK         0.0851 
     83 H83        18.2222  -26.8142  -47.8068 H         1 UNK         0.0851 
     84 H84        18.3252  -27.1844  -44.4334 H         1 UNK         0.2976 
     85 H85        23.3214  -25.7611  -42.8798 H         1 UNK         0.3116 
     86 H86        22.3023  -23.4939  -41.5388 H         1 UNK         0.0646 
     87 H87        24.4712  -22.6149  -40.6045 H         1 UNK         0.0847 
     88 H88        24.3566  -22.3195  -42.3307 H         1 UNK         0.0847 
     89 H89        25.3725  -23.6266  -41.7257 H         1 UNK         0.0847 
     90 H90        24.5930  -26.2391  -41.6120 H         1 UNK         0.3040 
     91 H91        23.1802  -27.6344  -39.5403 H         1 UNK         0.1015 
     92 H92        24.8265  -26.2635  -38.1696 H         1 UNK         0.0786 
     93 H93        26.1516  -26.9162  -39.1289 H         1 UNK         0.0786 
     94 H94        25.1977  -27.9727  -38.0942 H         1 UNK         0.0786 
     95 H95        24.6825  -29.7686  -39.2478 H         1 UNK         0.3172 
     96 H96        25.5023  -31.6427  -40.0312 H         1 UNK         0.0595 
     97 H97        27.3768  -30.2151  -41.0014 H         1 UNK         0.0839 
     98 H98        26.5257  -30.2171  -42.5443 H         1 UNK         0.0839 
     99 H99        27.1191  -31.7196  -41.8592 H         1 UNK         0.0839 
    100 H100       25.5326  -33.1322  -42.1468 H         1 UNK         0.2998 
    101 H101       24.3270  -34.5780  -43.3123 H         1 UNK         0.0822 
    102 H102       24.2077  -32.7430  -45.0070 H         1 UNK         0.0787 
    103 H103       22.7735  -33.7515  -45.0580 H         1 UNK         0.0787 
    104 H104       22.7068  -32.1654  -44.2967 H         1 UNK         0.0787 
    105 H105       21.2312  -33.2150  -43.4463 H         1 UNK         0.3055 
    106 H106       20.0163  -35.1025  -41.6678 H         1 UNK         0.1106 
    107 H107       18.8988  -32.5257  -42.9003 H         1 UNK         0.0828 
    108 H108       18.8440  -34.1227  -43.6498 H         1 UNK         0.0828 
    109 H109       17.9430  -33.8086  -42.1753 H         1 UNK         0.0828 
    110 H110       21.3844  -31.9243  -41.1394 H         1 UNK         0.2931 
    111 H111       20.2468  -31.7248  -38.4046 H         1 UNK         0.0412 
    112 H112       22.7095  -33.5532  -39.5436 H         1 UNK         0.3472 
    113 H113       23.8576  -33.2495  -38.2628 H         1 UNK         0.3472 
    114 H114       21.7157  -29.6640  -40.1078 H         1 UNK         0.0970 
    115 H115       21.2289  -29.3980  -38.4514 H         1 UNK         0.0970 
    116 H116       18.8830  -27.5623  -41.3347 H         1 UNK         0.0612 
    117 H117       20.5789  -27.6766  -40.9754 H         1 UNK         0.0612 
@<TRIPOS>BOND
     1    1    2 1    
     2    1   62 1    
     3    1   63 1    
     4    1   64 1    
     5    2    3 2    
     6    2    4 am   BACKBONE|DICT|INTERRES
     7    4    5 1    
     8    4   65 1    
     9    5    6 1    
    10    5   25 1    
    11    5   66 1    
    12    6    7 1    
    13    6   67 1    
    14    6   68 1    
    15    7    8 1    
    16    8    9 1    
    17    8   69 1    
    18    8   70 1    
    19    9   10 ar   
    20    9   14 ar   
    21   10   11 ar   
    22   10   71 1    
    23   11   12 ar   
    24   11   61 1    
    25   12   13 ar   
    26   12   72 1    
    27   13   14 ar   
    28   13   15 1    
    29   14   73 1    
    30   15   16 1    
    31   15   74 1    
    32   15   75 1    
    33   16   17 1    
    34   17   18 1    
    35   17   76 1    
    36   17   77 1    
    37   18   19 1    
    38   18   27 1    
    39   18   78 1    
    40   19   20 am   BACKBONE|DICT|INTERRES
    41   19   79 1    
    42   20   21 2    
    43   20   22 1    
    44   22   23 1    
    45   22   24 1    
    46   22   80 1    
    47   23   81 1    
    48   23   82 1    
    49   23   83 1    
    50   24   25 am   BACKBONE|DICT|INTERRES
    51   24   84 1    
    52   25   26 2    
    53   27   28 2    
    54   27   29 am   BACKBONE|DICT|INTERRES
    55   29   30 1    
    56   29   85 1    
    57   30   31 1    
    58   30   32 1    
    59   30   86 1    
    60   31   87 1    
    61   31   88 1    
    62   31   89 1    
    63   32   33 2    
    64   32   34 am   BACKBONE|DICT|INTERRES
    65   34   35 1    
    66   34   90 1    
    67   35   36 1    
    68   35   37 1    
    69   35   91 1    
    70   36   92 1    
    71   36   93 1    
    72   36   94 1    
    73   37   38 2    
    74   37   39 am   BACKBONE|DICT|INTERRES
    75   39   40 1    
    76   39   95 1    
    77   40   41 1    
    78   40   42 1    
    79   40   96 1    
    80   41   97 1    
    81   41   98 1    
    82   41   99 1    
    83   42   43 2    
    84   42   44 am   BACKBONE|DICT|INTERRES
    85   44   45 1    
    86   44  100 1    
    87   45   46 1    
    88   45   47 1    
    89   45  101 1    
    90   46  102 1    
    91   46  103 1    
    92   46  104 1    
    93   47   48 2    
    94   47   49 am   BACKBONE|DICT|INTERRES
    95   49   50 1    
    96   49  105 1    
    97   50   51 1    
    98   50   52 1    
    99   50  106 1    
   100   51  107 1    
   101   51  108 1    
   102   51  109 1    
   103   52   53 2    
   104   52   54 am   BACKBONE|DICT|INTERRES
   105   54   55 1    
   106   54  110 1    
   107   55   56 1    
   108   55   59 1    
   109   55  111 1    
   110   56   57 am   BACKBONE|DICT|INTERRES
   111   56   58 2    
   112   57  112 1    
   113   57  113 1    
   114   59   60 1    
   115   59  114 1    
   116   59  115 1    
   117   60   61 1    
   118   61  116 1    
   119   61  117 1    
@<TRIPOS>SUBSTRUCTURE
     1 UNK         1 GROUP             0       ****    0 ROOT    
