@<TRIPOS>MOLECULE
3R8
117   119    1
SMALL
USER_CHARGES


@<TRIPOS>ATOM
      1 CA         14.7557  -26.3557  -48.0832 C.3       0 UNK        -0.2013 
      2 C          15.2259  -25.9760  -46.6866 C.2       0 UNK         0.4866 
      3 O          14.7472  -24.9849  -46.1336 O.2       0 UNK        -0.5176 
      4 N          16.1542  -26.7610  -46.1214 N.am      1 UNK        -0.4884 
      5 CA         16.7732  -26.5790  -44.7983 C.3       1 UNK         0.0853 
      6 C6         15.7608  -26.7110  -43.6196 C.3       10 UNK        -0.0849 
      7 S7         14.8704  -28.3085  -43.6230 S.3       10 UNK        -0.2776 
      8 C8         15.6232  -29.1844  -42.2120 C.3       10 UNK         0.0316 
      9 C9         16.9756  -29.7865  -42.5680 C.ar      10 UNK        -0.0863 
     10 C10        17.0714  -31.1283  -42.9529 C.ar      10 UNK        -0.1009 
     11 C11        18.3156  -31.6937  -43.2516 C.ar      10 UNK        -0.0712 
     12 C12        19.4658  -30.9024  -43.1916 C.ar      10 UNK        -0.0894 
     13 C13        19.3787  -29.5593  -42.8193 C.ar      10 UNK        -0.0745 
     14 C14        18.1366  -29.0121  -42.4894 C.ar      10 UNK        -0.0972 
     15 C15        20.6270  -28.7010  -42.7552 C.3       10 UNK         0.0209 
     16 S16        20.8741  -27.7686  -44.2959 S.3       10 UNK        -0.2568 
     17 C17        22.2836  -26.7332  -43.7770 C.3       10 UNK        -0.0983 
     18 CA         22.0471  -25.2033  -43.8808 C.3       3 UNK         0.0876 
     19 N          20.7049  -24.8144  -43.4418 N.am      3 UNK        -0.4424 
     20 C          20.1153  -23.6422  -43.7024 C.2       2 UNK         0.4918 
     21 O          20.6688  -22.7118  -44.2921 O.2       2 UNK        -0.4875 
     22 CA         18.6416  -23.5201  -43.2574 C.3       2 UNK         0.0481 
     23 CB         17.9476  -22.2627  -43.8227 C.3       2 UNK        -0.1831 
     24 N          17.8453  -24.7249  -43.5480 N.am      2 UNK        -0.4498 
     25 C          17.6429  -25.2949  -44.7501 C.2       1 UNK         0.5027 
     26 O          18.1400  -24.8649  -45.7948 O.2       1 UNK        -0.4969 
     27 C          23.1445  -24.4684  -43.0837 C.2       3 UNK         0.5005 
     28 O          22.9122  -24.0627  -41.9410 O.2       3 UNK        -0.5279 
     29 N          24.3459  -24.3830  -43.6706 N.am      4 UNK        -0.4463 
     30 CA         25.5564  -23.9050  -42.9938 C.3       4 UNK         0.0283 
     31 CB         26.5987  -23.4951  -44.0471 C.3       4 UNK        -0.1875 
     32 C          26.1552  -24.9462  -42.0269 C.2       4 UNK         0.4949 
     33 O          26.8325  -24.5598  -41.0742 O.2       4 UNK        -0.5039 
     34 N          25.9073  -26.2364  -42.2863 N.am      5 UNK        -0.4663 
     35 CA         26.3878  -27.3870  -41.5228 C.3       5 UNK         0.0242 
     36 CB         27.8867  -27.6188  -41.8080 C.3       5 UNK        -0.1982 
     37 C          25.5544  -28.6197  -41.9077 C.2       5 UNK         0.5017 
     38 O          24.7610  -28.5446  -42.8481 O.2       5 UNK        -0.5012 
     39 N          25.7728  -29.7336  -41.1935 N.am      6 UNK        -0.4439 
     40 CA         25.1541  -31.0519  -41.4008 C.3       6 UNK         0.0297 
     41 CB         25.5215  -31.6371  -42.7823 C.3       6 UNK        -0.2006 
     42 C          23.6375  -31.0725  -41.1257 C.2       6 UNK         0.4892 
     43 O          22.8800  -31.7074  -41.8615 O.2       6 UNK        -0.5089 
     44 N          23.2249  -30.4238  -40.0263 N.am      7 UNK        -0.4243 
     45 CA         21.8434  -30.3987  -39.5220 C.3       7 UNK         0.0196 
     46 CB         21.7515  -29.3967  -38.3602 C.3       7 UNK        -0.2007 
     47 C          21.2914  -31.7762  -39.0996 C.2       7 UNK         0.5020 
     48 O          20.0754  -31.9350  -39.0027 O.2       7 UNK        -0.5147 
     49 N          22.1846  -32.7498  -38.8753 N.am      8 UNK        -0.4734 
     50 CA         21.8585  -34.1583  -38.6340 C.3       8 UNK         0.0238 
     51 CB         23.0467  -34.8215  -37.9154 C.3       8 UNK        -0.1912 
     52 C          21.4926  -34.9386  -39.9152 C.2       8 UNK         0.5038 
     53 O          21.1157  -36.1060  -39.8045 O.2       8 UNK        -0.5046 
     54 N          21.6235  -34.3064  -41.0917 N.am      9 UNK        -0.4200 
     55 CA         21.3493  -34.8624  -42.4295 C.3       9 UNK         0.0839 
     56 C          22.4080  -35.8909  -42.9289 C.2       9 UNK         0.5513 
     57 N          23.5705  -36.0067  -42.2977 N.am      9 UNK        -0.7519 
     58 O          22.1879  -36.5769  -43.9241 O.2       9 UNK        -0.4960 
     59 C59        19.8880  -35.3717  -42.6242 C.3       10 UNK        -0.0876 
     60 S60        18.6198  -34.1653  -42.1075 S.3       10 UNK        -0.2414 
     61 C61        18.4268  -33.1648  -43.6133 C.3       10 UNK         0.0169 
     62 H62        13.6812  -26.5367  -48.0806 H         1 UNK         0.0903 
     63 H63        14.9634  -25.5456  -48.7818 H         1 UNK         0.0903 
     64 H64        15.2495  -27.2552  -48.4507 H         1 UNK         0.0903 
     65 H65        16.5136  -27.5438  -46.6495 H         1 UNK         0.3096 
     66 H66        17.4899  -27.3961  -44.7050 H         1 UNK         0.1121 
     67 H67        16.2524  -26.6000  -42.6537 H         1 UNK         0.0849 
     68 H68        15.0189  -25.9120  -43.6627 H         1 UNK         0.0849 
     69 H69        15.7170  -28.5135  -41.3567 H         1 UNK         0.0865 
     70 H70        14.9411  -29.9742  -41.8933 H         1 UNK         0.0865 
     71 H71        16.1809  -31.7403  -43.0009 H         1 UNK         0.1346 
     72 H72        20.4310  -31.3347  -43.4206 H         1 UNK         0.1412 
     73 H73        18.0773  -27.9794  -42.1781 H         1 UNK         0.1426 
     74 H74        20.5554  -28.0127  -41.9115 H         1 UNK         0.0716 
     75 H75        21.5073  -29.3207  -42.5782 H         1 UNK         0.0716 
     76 H76        23.1386  -27.0171  -44.3927 H         1 UNK         0.0695 
     77 H77        22.5552  -27.0071  -42.7551 H         1 UNK         0.0695 
     78 H78        22.1369  -24.9138  -44.9305 H         1 UNK         0.0983 
     79 H79        20.1810  -25.5223  -42.9518 H         1 UNK         0.3095 
     80 H80        18.6619  -23.4212  -42.1712 H         1 UNK         0.0454 
     81 H81        16.9206  -22.1819  -43.4670 H         1 UNK         0.0851 
     82 H82        17.9248  -22.2680  -44.9130 H         1 UNK         0.0851 
     83 H83        18.4683  -21.3556  -43.5134 H         1 UNK         0.0851 
     84 H84        17.4027  -25.1463  -42.7440 H         1 UNK         0.2976 
     85 H85        24.4610  -24.7338  -44.6115 H         1 UNK         0.3116 
     86 H86        25.3019  -23.0185  -42.4084 H         1 UNK         0.0646 
     87 H87        26.2168  -22.7106  -44.7006 H         1 UNK         0.0847 
     88 H88        27.5003  -23.1065  -43.5713 H         1 UNK         0.0847 
     89 H89        26.8988  -24.3379  -44.6709 H         1 UNK         0.0847 
     90 H90        25.3018  -26.4878  -43.0578 H         1 UNK         0.3040 
     91 H91        26.2377  -27.1919  -40.4587 H         1 UNK         0.1015 
     92 H92        28.0661  -27.8192  -42.8651 H         1 UNK         0.0786 
     93 H93        28.2751  -28.4678  -41.2445 H         1 UNK         0.0786 
     94 H94        28.4872  -26.7534  -41.5275 H         1 UNK         0.0786 
     95 H95        26.4481  -29.6866  -40.4423 H         1 UNK         0.3172 
     96 H96        25.5970  -31.7089  -40.6509 H         1 UNK         0.0595 
     97 H97        25.0577  -31.0799  -43.5969 H         1 UNK         0.0839 
     98 H98        25.1859  -32.6715  -42.8696 H         1 UNK         0.0839 
     99 H99        26.5994  -31.6329  -42.9429 H         1 UNK         0.0839 
    100 H100       23.9143  -29.9310  -39.4769 H         1 UNK         0.2998 
    101 H101       21.2002  -30.0434  -40.3275 H         1 UNK         0.0822 
    102 H102       22.0438  -28.3948  -38.6756 H         1 UNK         0.0787 
    103 H103       20.7301  -29.3293  -37.9825 H         1 UNK         0.0787 
    104 H104       22.3892  -29.6879  -37.5246 H         1 UNK         0.0787 
    105 H105       23.1641  -32.5190  -38.9546 H         1 UNK         0.3055 
    106 H106       20.9886  -34.2069  -37.9748 H         1 UNK         0.1106 
    107 H107       23.2744  -34.3171  -36.9761 H         1 UNK         0.0828 
    108 H108       22.8275  -35.8626  -37.6740 H         1 UNK         0.0828 
    109 H109       23.9479  -34.8132  -38.5296 H         1 UNK         0.0828 
    110 H110       21.9631  -33.3510  -41.0970 H         1 UNK         0.2931 
    111 H111       21.4715  -34.0111  -43.1000 H         1 UNK         0.0412 
    112 H112       23.7694  -35.4430  -41.4877 H         1 UNK         0.3472 
    113 H113       24.2523  -36.6681  -42.6352 H         1 UNK         0.3472 
    114 H114       19.7084  -35.6384  -43.6673 H         1 UNK         0.0970 
    115 H115       19.7291  -36.2897  -42.0567 H         1 UNK         0.0970 
    116 H116       19.2748  -33.3161  -44.2830 H         1 UNK         0.0612 
    117 H117       17.5401  -33.4950  -44.1565 H         1 UNK         0.0612 
@<TRIPOS>BOND
     1    1    2 1    
     2    1   62 1    
     3    1   63 1    
     4    1   64 1    
     5    2    3 2    
     6    2    4 am   BACKBONE|DICT|INTERRES
     7    4    5 1    
     8    4   65 1    
     9    5    6 1    
    10    5   25 1    
    11    5   66 1    
    12    6    7 1    
    13    6   67 1    
    14    6   68 1    
    15    7    8 1    
    16    8    9 1    
    17    8   69 1    
    18    8   70 1    
    19    9   10 ar   
    20    9   14 ar   
    21   10   11 ar   
    22   10   71 1    
    23   11   12 ar   
    24   11   61 1    
    25   12   13 ar   
    26   12   72 1    
    27   13   14 ar   
    28   13   15 1    
    29   14   73 1    
    30   15   16 1    
    31   15   74 1    
    32   15   75 1    
    33   16   17 1    
    34   17   18 1    
    35   17   76 1    
    36   17   77 1    
    37   18   19 1    
    38   18   27 1    
    39   18   78 1    
    40   19   20 am   BACKBONE|DICT|INTERRES
    41   19   79 1    
    42   20   21 2    
    43   20   22 1    
    44   22   23 1    
    45   22   24 1    
    46   22   80 1    
    47   23   81 1    
    48   23   82 1    
    49   23   83 1    
    50   24   25 am   BACKBONE|DICT|INTERRES
    51   24   84 1    
    52   25   26 2    
    53   27   28 2    
    54   27   29 am   BACKBONE|DICT|INTERRES
    55   29   30 1    
    56   29   85 1    
    57   30   31 1    
    58   30   32 1    
    59   30   86 1    
    60   31   87 1    
    61   31   88 1    
    62   31   89 1    
    63   32   33 2    
    64   32   34 am   BACKBONE|DICT|INTERRES
    65   34   35 1    
    66   34   90 1    
    67   35   36 1    
    68   35   37 1    
    69   35   91 1    
    70   36   92 1    
    71   36   93 1    
    72   36   94 1    
    73   37   38 2    
    74   37   39 am   BACKBONE|DICT|INTERRES
    75   39   40 1    
    76   39   95 1    
    77   40   41 1    
    78   40   42 1    
    79   40   96 1    
    80   41   97 1    
    81   41   98 1    
    82   41   99 1    
    83   42   43 2    
    84   42   44 am   BACKBONE|DICT|INTERRES
    85   44   45 1    
    86   44  100 1    
    87   45   46 1    
    88   45   47 1    
    89   45  101 1    
    90   46  102 1    
    91   46  103 1    
    92   46  104 1    
    93   47   48 2    
    94   47   49 am   BACKBONE|DICT|INTERRES
    95   49   50 1    
    96   49  105 1    
    97   50   51 1    
    98   50   52 1    
    99   50  106 1    
   100   51  107 1    
   101   51  108 1    
   102   51  109 1    
   103   52   53 2    
   104   52   54 am   BACKBONE|DICT|INTERRES
   105   54   55 1    
   106   54  110 1    
   107   55   56 1    
   108   55   59 1    
   109   55  111 1    
   110   56   57 am   BACKBONE|DICT|INTERRES
   111   56   58 2    
   112   57  112 1    
   113   57  113 1    
   114   59   60 1    
   115   59  114 1    
   116   59  115 1    
   117   60   61 1    
   118   61  116 1    
   119   61  117 1    
@<TRIPOS>SUBSTRUCTURE
     1 UNK         1 GROUP             0       ****    0 ROOT    
