@<TRIPOS>MOLECULE
3R8
117   119    1
SMALL
USER_CHARGES


@<TRIPOS>ATOM
      1 CA         19.8766  -27.2220  -41.2498 C.3       0 UNK        -0.2013 
      2 C          19.1487  -26.7088  -42.4824 C.2       0 UNK         0.4866 
      3 O          19.6490  -26.8720  -43.5945 O.2       0 UNK        -0.5176 
      4 N          17.9854  -26.0725  -42.2880 N.am      1 UNK        -0.4884 
      5 CA         17.1079  -25.5101  -43.3287 C.3       1 UNK         0.0853 
      6 C6         16.3537  -26.6001  -44.1466 C.3       10 UNK        -0.0849 
      7 S7         15.4240  -27.7696  -43.0975 S.3       10 UNK        -0.2776 
      8 C8         15.6153  -29.3319  -44.0208 C.3       10 UNK         0.0316 
      9 C9         17.0681  -29.7800  -44.1171 C.ar      10 UNK        -0.0863 
     10 C10        17.7610  -30.1653  -42.9671 C.ar      10 UNK        -0.1009 
     11 C11        19.0954  -30.5729  -43.0429 C.ar      10 UNK        -0.0712 
     12 C12        19.7398  -30.5927  -44.2844 C.ar      10 UNK        -0.0894 
     13 C13        19.0560  -30.2142  -45.4451 C.ar      10 UNK        -0.0745 
     14 C14        17.7189  -29.8146  -45.3548 C.ar      10 UNK        -0.0972 
     15 C15        19.7498  -30.2619  -46.8017 C.3       10 UNK         0.0209 
     16 S16        19.9663  -28.6103  -47.5431 S.3       10 UNK        -0.2568 
     17 C17        21.2314  -27.8901  -46.4469 C.3       10 UNK        -0.0983 
     18 CA         21.3668  -26.3529  -46.6012 C.3       3 UNK         0.0876 
     19 N          20.0898  -25.6518  -46.4273 N.am      3 UNK        -0.4424 
     20 C          19.8546  -24.3856  -46.8027 C.2       2 UNK         0.4918 
     21 O          20.6910  -23.6752  -47.3614 O.2       2 UNK        -0.4875 
     22 CA         18.4515  -23.8067  -46.5336 C.3       2 UNK         0.0481 
     23 CB         17.6420  -23.7451  -47.8392 C.3       2 UNK        -0.1831 
     24 N          17.6958  -24.5741  -45.5415 N.am      2 UNK        -0.4498 
     25 C          17.8685  -24.4902  -44.2141 C.2       1 UNK         0.5027 
     26 O          18.6106  -23.6620  -43.6802 O.2       1 UNK        -0.4969 
     27 C          22.4321  -25.8207  -45.6237 C.2       3 UNK         0.5005 
     28 O          23.5986  -25.7009  -46.0010 O.2       3 UNK        -0.5279 
     29 N          21.9992  -25.5313  -44.3857 N.am      4 UNK        -0.4463 
     30 CA         22.7938  -25.1061  -43.2273 C.3       4 UNK         0.0283 
     31 CB         23.4433  -23.7281  -43.4709 C.3       4 UNK        -0.1875 
     32 C          23.8060  -26.1793  -42.7815 C.2       4 UNK         0.4949 
     33 O          24.8757  -25.8485  -42.2692 O.2       4 UNK        -0.5039 
     34 N          23.4449  -27.4568  -42.9672 N.am      5 UNK        -0.4663 
     35 CA         24.2923  -28.6374  -42.7631 C.3       5 UNK         0.0242 
     36 CB         23.7292  -29.7912  -43.6144 C.3       5 UNK        -0.1982 
     37 C          24.4791  -29.0396  -41.2843 C.2       5 UNK         0.5017 
     38 O          24.5037  -30.2324  -40.9788 O.2       5 UNK        -0.5012 
     39 N          24.5799  -28.0473  -40.3871 N.am      6 UNK        -0.4439 
     40 CA         24.8638  -28.1443  -38.9447 C.3       6 UNK         0.0297 
     41 CB         26.3425  -28.5335  -38.7370 C.3       6 UNK        -0.2006 
     42 C          23.9174  -29.0605  -38.1353 C.2       6 UNK         0.4892 
     43 O          24.2887  -29.4959  -37.0442 O.2       6 UNK        -0.5089 
     44 N          22.7316  -29.3564  -38.6911 N.am      7 UNK        -0.4243 
     45 CA         21.7594  -30.3590  -38.2335 C.3       7 UNK         0.0196 
     46 CB         21.1256  -29.9433  -36.8890 C.3       7 UNK        -0.2007 
     47 C          22.3230  -31.7992  -38.2129 C.2       7 UNK         0.5020 
     48 O          21.8361  -32.6331  -37.4489 O.2       7 UNK        -0.5147 
     49 N          23.3280  -32.0788  -39.0574 N.am      8 UNK        -0.4734 
     50 CA         23.9922  -33.3831  -39.1721 C.3       8 UNK         0.0238 
     51 CB         25.4401  -33.1598  -39.6419 C.3       8 UNK        -0.1912 
     52 C          23.2600  -34.3605  -40.1116 C.2       8 UNK         0.5038 
     53 O          23.6842  -35.5114  -40.2286 O.2       8 UNK        -0.5046 
     54 N          22.1979  -33.8867  -40.7739 N.am      9 UNK        -0.4200 
     55 CA         21.2965  -34.6532  -41.6436 C.3       9 UNK         0.0839 
     56 C          20.5796  -35.8352  -40.9282 C.2       9 UNK         0.5513 
     57 N          20.2008  -36.8653  -41.6730 N.am      9 UNK        -0.7519 
     58 O          20.3359  -35.8175  -39.7232 O.2       9 UNK        -0.4960 
     59 C59        20.2885  -33.7154  -42.3626 C.3       10 UNK        -0.0876 
     60 S60        19.3424  -32.6410  -41.2217 S.3       10 UNK        -0.2414 
     61 C61        19.8295  -30.9783  -41.7740 C.3       10 UNK         0.0169 
     62 H62        20.5369  -28.0465  -41.5173 H         1 UNK         0.0903 
     63 H63        20.4825  -26.4293  -40.8111 H         1 UNK         0.0903 
     64 H64        19.1737  -27.5810  -40.4978 H         1 UNK         0.0903 
     65 H65        17.6512  -25.9490  -41.3427 H         1 UNK         0.3096 
     66 H66        16.3555  -24.9225  -42.8002 H         1 UNK         0.1121 
     67 H67        17.0599  -27.1532  -44.7666 H         1 UNK         0.0849 
     68 H68        15.6305  -26.1449  -44.8257 H         1 UNK         0.0849 
     69 H69        15.0360  -30.1100  -43.5219 H         1 UNK         0.0865 
     70 H70        15.1766  -29.2152  -45.0130 H         1 UNK         0.0865 
     71 H71        17.2606  -30.1427  -42.0085 H         1 UNK         0.1346 
     72 H72        20.7711  -30.9080  -44.3501 H         1 UNK         0.1412 
     73 H73        17.1906  -29.5226  -46.2522 H         1 UNK         0.1426 
     74 H74        19.1542  -30.8738  -47.4804 H         1 UNK         0.0716 
     75 H75        20.7229  -30.7498  -46.7265 H         1 UNK         0.0716 
     76 H76        20.9862  -28.1533  -45.4173 H         1 UNK         0.0695 
     77 H77        22.1826  -28.3784  -46.6670 H         1 UNK         0.0695 
     78 H78        21.7234  -26.1474  -47.6131 H         1 UNK         0.0983 
     79 H79        19.3684  -26.1681  -45.9445 H         1 UNK         0.3095 
     80 H80        18.5800  -22.7861  -46.1671 H         1 UNK         0.0454 
     81 H81        16.6666  -23.2849  -47.6811 H         1 UNK         0.0851 
     82 H82        18.1600  -23.1487  -48.5917 H         1 UNK         0.0851 
     83 H83        17.4823  -24.7367  -48.2647 H         1 UNK         0.0851 
     84 H84        17.0569  -25.2665  -45.9045 H         1 UNK         0.2976 
     85 H85        21.0259  -25.7558  -44.1841 H         1 UNK         0.3116 
     86 H86        22.0882  -24.9945  -42.4031 H         1 UNK         0.0646 
     87 H87        23.9083  -23.3488  -42.5602 H         1 UNK         0.0847 
     88 H88        22.7041  -22.9922  -43.7869 H         1 UNK         0.0847 
     89 H89        24.2197  -23.7740  -44.2349 H         1 UNK         0.0847 
     90 H90        22.5298  -27.6269  -43.3590 H         1 UNK         0.3040 
     91 H91        25.2901  -28.4051  -43.1422 H         1 UNK         0.1015 
     92 H92        23.6413  -29.5072  -44.6633 H         1 UNK         0.0786 
     93 H93        22.7450  -30.1008  -43.2651 H         1 UNK         0.0786 
     94 H94        24.3799  -30.6659  -43.5742 H         1 UNK         0.0786 
     95 H95        24.5730  -27.1068  -40.7715 H         1 UNK         0.3172 
     96 H96        24.7246  -27.1403  -38.5419 H         1 UNK         0.0595 
     97 H97        27.0096  -27.8660  -39.2824 H         1 UNK         0.0839 
     98 H98        26.5398  -29.5524  -39.0722 H         1 UNK         0.0839 
     99 H99        26.6238  -28.4766  -37.6847 H         1 UNK         0.0839 
    100 H100       22.5402  -28.9396  -39.5905 H         1 UNK         0.2998 
    101 H101       20.9621  -30.3666  -38.9768 H         1 UNK         0.0822 
    102 H102       21.8445  -29.9877  -36.0705 H         1 UNK         0.0787 
    103 H103       20.7295  -28.9289  -36.9338 H         1 UNK         0.0787 
    104 H104       20.2963  -30.6016  -36.6273 H         1 UNK         0.0787 
    105 H105       23.6860  -31.3432  -39.6639 H         1 UNK         0.3055 
    106 H106       24.0243  -33.8518  -38.1859 H         1 UNK         0.1106 
    107 H107       25.9726  -32.4782  -38.9782 H         1 UNK         0.0828 
    108 H108       25.9967  -34.0978  -39.6568 H         1 UNK         0.0828 
    109 H109       25.4774  -32.7436  -40.6493 H         1 UNK         0.0828 
    110 H110       21.9122  -32.9407  -40.5759 H         1 UNK         0.2931 
    111 H111       21.9320  -35.0961  -42.4132 H         1 UNK         0.0412 
    112 H112       19.7235  -37.6377  -41.2341 H         1 UNK         0.3472 
    113 H113       20.3892  -36.8921  -42.6634 H         1 UNK         0.3472 
    114 H114       19.5812  -34.2900  -42.9635 H         1 UNK         0.0970 
    115 H115       20.8296  -33.0956  -43.0780 H         1 UNK         0.0970 
    116 H116       20.9110  -30.9299  -41.9063 H         1 UNK         0.0612 
    117 H117       19.5851  -30.2698  -40.9822 H         1 UNK         0.0612 
@<TRIPOS>BOND
     1    1    2 1    
     2    1   62 1    
     3    1   63 1    
     4    1   64 1    
     5    2    3 2    
     6    2    4 am   BACKBONE|DICT|INTERRES
     7    4    5 1    
     8    4   65 1    
     9    5    6 1    
    10    5   25 1    
    11    5   66 1    
    12    6    7 1    
    13    6   67 1    
    14    6   68 1    
    15    7    8 1    
    16    8    9 1    
    17    8   69 1    
    18    8   70 1    
    19    9   10 ar   
    20    9   14 ar   
    21   10   11 ar   
    22   10   71 1    
    23   11   12 ar   
    24   11   61 1    
    25   12   13 ar   
    26   12   72 1    
    27   13   14 ar   
    28   13   15 1    
    29   14   73 1    
    30   15   16 1    
    31   15   74 1    
    32   15   75 1    
    33   16   17 1    
    34   17   18 1    
    35   17   76 1    
    36   17   77 1    
    37   18   19 1    
    38   18   27 1    
    39   18   78 1    
    40   19   20 am   BACKBONE|DICT|INTERRES
    41   19   79 1    
    42   20   21 2    
    43   20   22 1    
    44   22   23 1    
    45   22   24 1    
    46   22   80 1    
    47   23   81 1    
    48   23   82 1    
    49   23   83 1    
    50   24   25 am   BACKBONE|DICT|INTERRES
    51   24   84 1    
    52   25   26 2    
    53   27   28 2    
    54   27   29 am   BACKBONE|DICT|INTERRES
    55   29   30 1    
    56   29   85 1    
    57   30   31 1    
    58   30   32 1    
    59   30   86 1    
    60   31   87 1    
    61   31   88 1    
    62   31   89 1    
    63   32   33 2    
    64   32   34 am   BACKBONE|DICT|INTERRES
    65   34   35 1    
    66   34   90 1    
    67   35   36 1    
    68   35   37 1    
    69   35   91 1    
    70   36   92 1    
    71   36   93 1    
    72   36   94 1    
    73   37   38 2    
    74   37   39 am   BACKBONE|DICT|INTERRES
    75   39   40 1    
    76   39   95 1    
    77   40   41 1    
    78   40   42 1    
    79   40   96 1    
    80   41   97 1    
    81   41   98 1    
    82   41   99 1    
    83   42   43 2    
    84   42   44 am   BACKBONE|DICT|INTERRES
    85   44   45 1    
    86   44  100 1    
    87   45   46 1    
    88   45   47 1    
    89   45  101 1    
    90   46  102 1    
    91   46  103 1    
    92   46  104 1    
    93   47   48 2    
    94   47   49 am   BACKBONE|DICT|INTERRES
    95   49   50 1    
    96   49  105 1    
    97   50   51 1    
    98   50   52 1    
    99   50  106 1    
   100   51  107 1    
   101   51  108 1    
   102   51  109 1    
   103   52   53 2    
   104   52   54 am   BACKBONE|DICT|INTERRES
   105   54   55 1    
   106   54  110 1    
   107   55   56 1    
   108   55   59 1    
   109   55  111 1    
   110   56   57 am   BACKBONE|DICT|INTERRES
   111   56   58 2    
   112   57  112 1    
   113   57  113 1    
   114   59   60 1    
   115   59  114 1    
   116   59  115 1    
   117   60   61 1    
   118   61  116 1    
   119   61  117 1    
@<TRIPOS>SUBSTRUCTURE
     1 UNK         1 GROUP             0       ****    0 ROOT    
