@<TRIPOS>MOLECULE
3R8
117   119    1
SMALL
USER_CHARGES


@<TRIPOS>ATOM
      1 CA         14.9700  -30.2466  -42.7007 C.3       0 UNK        -0.2013 
      2 C          14.9652  -28.8325  -43.2613 C.2       0 UNK         0.4866 
      3 O          14.2114  -27.9864  -42.7805 O.2       0 UNK        -0.5176 
      4 N          15.8006  -28.5674  -44.2744 N.am      1 UNK        -0.4884 
      5 CA         15.9241  -27.2622  -44.9384 C.3       1 UNK         0.0853 
      6 C6         16.5494  -27.3722  -46.3506 C.3       10 UNK        -0.0849 
      7 S7         15.8276  -28.6748  -47.4259 S.3       10 UNK        -0.2776 
      8 C8         16.7847  -30.2188  -47.1344 C.3       10 UNK         0.0316 
      9 C9         18.1295  -30.0139  -46.4493 C.ar      10 UNK        -0.0863 
     10 C10        18.3438  -30.4855  -45.1496 C.ar      10 UNK        -0.1009 
     11 C11        19.5345  -30.1941  -44.4771 C.ar      10 UNK        -0.0712 
     12 C12        20.5224  -29.4496  -45.1248 C.ar      10 UNK        -0.0894 
     13 C13        20.3297  -28.9946  -46.4316 C.ar      10 UNK        -0.0745 
     14 C14        19.1459  -29.3103  -47.1016 C.ar      10 UNK        -0.0972 
     15 C15        21.3692  -28.1165  -47.1077 C.3       10 UNK         0.0209 
     16 S16        21.1637  -26.3718  -46.6186 S.3       10 UNK        -0.2568 
     17 C17        22.2149  -26.2898  -45.1320 C.3       10 UNK        -0.0983 
     18 CA         21.6064  -25.4787  -43.9594 C.3       3 UNK         0.0876 
     19 N          20.2820  -25.9595  -43.5247 N.am      3 UNK        -0.4424 
     20 C          19.4759  -25.2582  -42.7102 C.2       2 UNK         0.4918 
     21 O          19.6947  -24.0908  -42.3823 O.2       2 UNK        -0.4875 
     22 CA         18.2697  -26.0067  -42.1123 C.3       2 UNK         0.0481 
     23 CB         17.3678  -25.1105  -41.2365 C.3       2 UNK        -0.1831 
     24 N          17.4806  -26.7451  -43.1004 N.am      2 UNK        -0.4498 
     25 C          16.7256  -26.2456  -44.0922 C.2       1 UNK         0.5027 
     26 O          16.6411  -25.0458  -44.3570 O.2       1 UNK        -0.4969 
     27 C          22.6257  -25.4587  -42.7960 C.2       3 UNK         0.5005 
     28 O          23.6030  -24.7118  -42.8627 O.2       3 UNK        -0.5279 
     29 N          22.4078  -26.3139  -41.7815 N.am      4 UNK        -0.4463 
     30 CA         23.2122  -26.5599  -40.5736 C.3       4 UNK         0.0283 
     31 CB         23.3792  -25.2839  -39.7268 C.3       4 UNK        -0.1875 
     32 C          24.5704  -27.2325  -40.8418 C.2       4 UNK         0.4949 
     33 O          24.9092  -28.1961  -40.1552 O.2       4 UNK        -0.5039 
     34 N          25.3018  -26.7566  -41.8577 N.am      5 UNK        -0.4663 
     35 CA         26.6194  -27.2471  -42.2844 C.3       5 UNK         0.0242 
     36 CB         27.1518  -26.3331  -43.3997 C.3       5 UNK        -0.1982 
     37 C          26.6385  -28.7184  -42.7419 C.2       5 UNK         0.5017 
     38 O          27.6939  -29.3506  -42.6972 O.2       5 UNK        -0.5012 
     39 N          25.4733  -29.2396  -43.1499 N.am      6 UNK        -0.4439 
     40 CA         25.2511  -30.6424  -43.5084 C.3       6 UNK         0.0297 
     41 CB         23.9403  -30.7485  -44.3042 C.3       6 UNK        -0.2006 
     42 C          25.2074  -31.5963  -42.2975 C.2       6 UNK         0.4892 
     43 O          25.1997  -32.8093  -42.5068 O.2       6 UNK        -0.5089 
     44 N          25.1264  -31.0550  -41.0703 N.am      7 UNK        -0.4243 
     45 CA         25.0609  -31.7278  -39.7624 C.3       7 UNK         0.0196 
     46 CB         26.2987  -32.6128  -39.5182 C.3       7 UNK        -0.2007 
     47 C          23.7612  -32.5074  -39.4857 C.2       7 UNK         0.5020 
     48 O          23.3300  -32.5513  -38.3339 O.2       7 UNK        -0.5147 
     49 N          23.1352  -33.0776  -40.5238 N.am      8 UNK        -0.4734 
     50 CA         21.8881  -33.8532  -40.4636 C.3       8 UNK         0.0238 
     51 CB         21.5825  -34.4143  -41.8620 C.3       8 UNK        -0.1912 
     52 C          20.6740  -33.0725  -39.9244 C.2       8 UNK         0.5038 
     53 O          19.7664  -33.6833  -39.3588 O.2       8 UNK        -0.5046 
     54 N          20.6933  -31.7462  -40.0985 N.am      9 UNK        -0.4200 
     55 CA         19.7225  -30.7987  -39.5327 C.3       9 UNK         0.0839 
     56 C          19.9922  -30.4366  -38.0408 C.2       9 UNK         0.5513 
     57 N          21.0670  -30.8971  -37.4108 N.am      9 UNK        -0.7519 
     58 O          19.1958  -29.7259  -37.4335 O.2       9 UNK        -0.4960 
     59 C59        19.6085  -29.5290  -40.4198 C.3       10 UNK        -0.0876 
     60 S60        18.5991  -29.7964  -41.9154 S.3       10 UNK        -0.2414 
     61 C61        19.7429  -30.6523  -43.0417 C.3       10 UNK         0.0169 
     62 H62        15.6129  -30.9133  -43.2735 H         1 UNK         0.0903 
     63 H63        15.3235  -30.2387  -41.6699 H         1 UNK         0.0903 
     64 H64        13.9614  -30.6587  -42.7122 H         1 UNK         0.0903 
     65 H65        16.3963  -29.2930  -44.6461 H         1 UNK         0.3096 
     66 H66        14.9177  -26.8526  -45.0534 H         1 UNK         0.1121 
     67 H67        16.3945  -26.4267  -46.8741 H         1 UNK         0.0849 
     68 H68        17.6307  -27.4618  -46.2879 H         1 UNK         0.0849 
     69 H69        16.1630  -30.9009  -46.5525 H         1 UNK         0.0865 
     70 H70        16.9470  -30.7141  -48.0928 H         1 UNK         0.0865 
     71 H71        17.5782  -31.0563  -44.6433 H         1 UNK         0.1346 
     72 H72        21.4345  -29.2097  -44.6031 H         1 UNK         0.1412 
     73 H73        18.9794  -28.9406  -48.1046 H         1 UNK         0.1426 
     74 H74        22.3769  -28.4646  -46.8761 H         1 UNK         0.0716 
     75 H75        21.2689  -28.1873  -48.1918 H         1 UNK         0.0716 
     76 H76        22.4734  -27.2957  -44.8043 H         1 UNK         0.0695 
     77 H77        23.1584  -25.8379  -45.4456 H         1 UNK         0.0695 
     78 H78        21.4896  -24.4460  -44.2962 H         1 UNK         0.0983 
     79 H79        20.0100  -26.8870  -43.8162 H         1 UNK         0.3095 
     80 H80        18.6950  -26.7614  -41.4509 H         1 UNK         0.0454 
     81 H81        16.9391  -24.2840  -41.8037 H         1 UNK         0.0851 
     82 H82        16.5468  -25.6798  -40.8006 H         1 UNK         0.0851 
     83 H83        17.9329  -24.6762  -40.4110 H         1 UNK         0.0851 
     84 H84        17.4774  -27.7506  -42.9883 H         1 UNK         0.2976 
     85 H85        21.5848  -26.8925  -41.8603 H         1 UNK         0.3116 
     86 H86        22.6317  -27.2661  -39.9772 H         1 UNK         0.0646 
     87 H87        23.8807  -25.5072  -38.7842 H         1 UNK         0.0847 
     88 H88        22.4136  -24.8411  -39.4828 H         1 UNK         0.0847 
     89 H89        23.9755  -24.5267  -40.2363 H         1 UNK         0.0847 
     90 H90        24.9238  -25.9513  -42.3527 H         1 UNK         0.3040 
     91 H91        27.2909  -27.1722  -41.4262 H         1 UNK         0.1015 
     92 H92        27.2390  -25.3011  -43.0591 H         1 UNK         0.0786 
     93 H93        26.5003  -26.3436  -44.2746 H         1 UNK         0.0786 
     94 H94        28.1436  -26.6495  -43.7264 H         1 UNK         0.0786 
     95 H95        24.6696  -28.6299  -43.1567 H         1 UNK         0.3172 
     96 H96        26.0716  -30.9658  -44.1524 H         1 UNK         0.0595 
     97 H97        23.0787  -30.5104  -43.6816 H         1 UNK         0.0839 
     98 H98        23.7941  -31.7617  -44.6817 H         1 UNK         0.0839 
     99 H99        23.9367  -30.0816  -45.1667 H         1 UNK         0.0839 
    100 H100       25.1074  -30.0417  -41.0078 H         1 UNK         0.2998 
    101 H101       25.0903  -30.9211  -39.0278 H         1 UNK         0.0822 
    102 H102       27.2215  -32.0471  -39.6476 H         1 UNK         0.0787 
    103 H103       26.2994  -33.0062  -38.5008 H         1 UNK         0.0787 
    104 H104       26.3310  -33.4679  -40.1938 H         1 UNK         0.0787 
    105 H105       23.6177  -33.0439  -41.4174 H         1 UNK         0.3055 
    106 H106       22.0557  -34.6910  -39.7833 H         1 UNK         0.1106 
    107 H107       20.6711  -35.0140  -41.8532 H         1 UNK         0.0828 
    108 H108       21.4428  -33.6187  -42.5949 H         1 UNK         0.0828 
    109 H109       22.3879  -35.0582  -42.2159 H         1 UNK         0.0828 
    110 H110       21.5018  -31.3463  -40.5479 H         1 UNK         0.2931 
    111 H111       18.7447  -31.2847  -39.5284 H         1 UNK         0.0412 
    112 H112       21.2068  -30.6481  -36.4445 H         1 UNK         0.3472 
    113 H113       21.7391  -31.5025  -37.8701 H         1 UNK         0.3472 
    114 H114       20.5923  -29.1434  -40.6904 H         1 UNK         0.0970 
    115 H115       19.1176  -28.7201  -39.8750 H         1 UNK         0.0970 
    116 H116       20.7724  -30.4741  -42.7307 H         1 UNK         0.0612 
    117 H117       19.5782  -31.7282  -42.9701 H         1 UNK         0.0612 
@<TRIPOS>BOND
     1    1    2 1    
     2    1   62 1    
     3    1   63 1    
     4    1   64 1    
     5    2    3 2    
     6    2    4 am   BACKBONE|DICT|INTERRES
     7    4    5 1    
     8    4   65 1    
     9    5    6 1    
    10    5   25 1    
    11    5   66 1    
    12    6    7 1    
    13    6   67 1    
    14    6   68 1    
    15    7    8 1    
    16    8    9 1    
    17    8   69 1    
    18    8   70 1    
    19    9   10 ar   
    20    9   14 ar   
    21   10   11 ar   
    22   10   71 1    
    23   11   12 ar   
    24   11   61 1    
    25   12   13 ar   
    26   12   72 1    
    27   13   14 ar   
    28   13   15 1    
    29   14   73 1    
    30   15   16 1    
    31   15   74 1    
    32   15   75 1    
    33   16   17 1    
    34   17   18 1    
    35   17   76 1    
    36   17   77 1    
    37   18   19 1    
    38   18   27 1    
    39   18   78 1    
    40   19   20 am   BACKBONE|DICT|INTERRES
    41   19   79 1    
    42   20   21 2    
    43   20   22 1    
    44   22   23 1    
    45   22   24 1    
    46   22   80 1    
    47   23   81 1    
    48   23   82 1    
    49   23   83 1    
    50   24   25 am   BACKBONE|DICT|INTERRES
    51   24   84 1    
    52   25   26 2    
    53   27   28 2    
    54   27   29 am   BACKBONE|DICT|INTERRES
    55   29   30 1    
    56   29   85 1    
    57   30   31 1    
    58   30   32 1    
    59   30   86 1    
    60   31   87 1    
    61   31   88 1    
    62   31   89 1    
    63   32   33 2    
    64   32   34 am   BACKBONE|DICT|INTERRES
    65   34   35 1    
    66   34   90 1    
    67   35   36 1    
    68   35   37 1    
    69   35   91 1    
    70   36   92 1    
    71   36   93 1    
    72   36   94 1    
    73   37   38 2    
    74   37   39 am   BACKBONE|DICT|INTERRES
    75   39   40 1    
    76   39   95 1    
    77   40   41 1    
    78   40   42 1    
    79   40   96 1    
    80   41   97 1    
    81   41   98 1    
    82   41   99 1    
    83   42   43 2    
    84   42   44 am   BACKBONE|DICT|INTERRES
    85   44   45 1    
    86   44  100 1    
    87   45   46 1    
    88   45   47 1    
    89   45  101 1    
    90   46  102 1    
    91   46  103 1    
    92   46  104 1    
    93   47   48 2    
    94   47   49 am   BACKBONE|DICT|INTERRES
    95   49   50 1    
    96   49  105 1    
    97   50   51 1    
    98   50   52 1    
    99   50  106 1    
   100   51  107 1    
   101   51  108 1    
   102   51  109 1    
   103   52   53 2    
   104   52   54 am   BACKBONE|DICT|INTERRES
   105   54   55 1    
   106   54  110 1    
   107   55   56 1    
   108   55   59 1    
   109   55  111 1    
   110   56   57 am   BACKBONE|DICT|INTERRES
   111   56   58 2    
   112   57  112 1    
   113   57  113 1    
   114   59   60 1    
   115   59  114 1    
   116   59  115 1    
   117   60   61 1    
   118   61  116 1    
   119   61  117 1    
@<TRIPOS>SUBSTRUCTURE
     1 UNK         1 GROUP             0       ****    0 ROOT    
