@<TRIPOS>MOLECULE
3R8
117   119    1
SMALL
USER_CHARGES


@<TRIPOS>ATOM
      1 CA         12.1829  -24.1514  -44.7298 C.3       0 UNK        -0.2013 
      2 C          13.5235  -24.5523  -45.3271 C.2       0 UNK         0.4866 
      3 O          13.5897  -24.9035  -46.5057 O.2       0 UNK        -0.5176 
      4 N          14.5914  -24.4988  -44.5268 N.am      1 UNK        -0.4884 
      5 CA         15.9598  -24.8411  -44.9119 C.3       1 UNK         0.0853 
      6 C6         16.2122  -26.3723  -44.9859 C.3       10 UNK        -0.0849 
      7 S7         15.7291  -27.3001  -43.4847 S.3       10 UNK        -0.2776 
      8 C8         15.8960  -29.0194  -44.0604 C.3       10 UNK         0.0316 
      9 C9         17.3447  -29.4826  -44.0226 C.ar      10 UNK        -0.0863 
     10 C10        17.8416  -30.1453  -42.8972 C.ar      10 UNK        -0.1009 
     11 C11        19.1682  -30.5869  -42.8574 C.ar      10 UNK        -0.0712 
     12 C12        20.0130  -30.3280  -43.9422 C.ar      10 UNK        -0.0894 
     13 C13        19.5285  -29.6531  -45.0688 C.ar      10 UNK        -0.0745 
     14 C14        18.1893  -29.2553  -45.1115 C.ar      10 UNK        -0.0972 
     15 C15        20.4419  -29.3465  -46.2467 C.3       10 UNK         0.0209 
     16 S16        20.7269  -27.5554  -46.4296 S.3       10 UNK        -0.2568 
     17 C17        21.8375  -27.2405  -45.0226 C.3       10 UNK        -0.0983 
     18 CA         22.0331  -25.7283  -44.7506 C.3       3 UNK         0.0876 
     19 N          20.7930  -25.0846  -44.3072 N.am      3 UNK        -0.4424 
     20 C          20.6169  -23.7603  -44.2145 C.2       2 UNK         0.4918 
     21 O          21.4588  -22.9338  -44.5713 O.2       2 UNK        -0.4875 
     22 CA         19.2588  -23.2931  -43.6685 C.3       2 UNK         0.0481 
     23 CB         19.0859  -21.7597  -43.7066 C.3       2 UNK        -0.1831 
     24 N          18.1813  -23.9493  -44.4092 N.am      2 UNK        -0.4498 
     25 C          16.9333  -24.1261  -43.9592 C.2       1 UNK         0.5027 
     26 O          16.5400  -23.7480  -42.8508 O.2       1 UNK        -0.4969 
     27 C          23.1517  -25.5393  -43.7086 C.2       3 UNK         0.5005 
     28 O          22.8869  -25.6161  -42.5062 O.2       3 UNK        -0.5279 
     29 N          24.3928  -25.3720  -44.1878 N.am      4 UNK        -0.4463 
     30 CA         25.6018  -25.4152  -43.3572 C.3       4 UNK         0.0283 
     31 CB         26.7998  -24.8783  -44.1564 C.3       4 UNK        -0.1875 
     32 C          25.8902  -26.8356  -42.8379 C.2       4 UNK         0.4949 
     33 O          26.3879  -26.9912  -41.7239 O.2       4 UNK        -0.5039 
     34 N          25.5185  -27.8488  -43.6328 N.am      5 UNK        -0.4663 
     35 CA         25.6101  -29.2753  -43.3146 C.3       5 UNK         0.0242 
     36 CB         25.7633  -30.0648  -44.6285 C.3       5 UNK        -0.1982 
     37 C          24.4181  -29.7762  -42.4725 C.2       5 UNK         0.5017 
     38 O          23.9679  -30.9055  -42.6667 O.2       5 UNK        -0.5012 
     39 N          23.9302  -28.9504  -41.5346 N.am      6 UNK        -0.4439 
     40 CA         22.8236  -29.2632  -40.6200 C.3       6 UNK         0.0297 
     41 CB         22.4960  -28.0272  -39.7692 C.3       6 UNK        -0.2006 
     42 C          23.0876  -30.4831  -39.7161 C.2       6 UNK         0.4892 
     43 O          22.1415  -31.1708  -39.3316 O.2       6 UNK        -0.5089 
     44 N          24.3706  -30.7575  -39.4380 N.am      7 UNK        -0.4243 
     45 CA         24.8565  -31.9296  -38.7065 C.3       7 UNK         0.0196 
     46 CB         26.3706  -31.7875  -38.4827 C.3       7 UNK        -0.2007 
     47 C          24.5393  -33.2760  -39.3850 C.2       7 UNK         0.5020 
     48 O          24.5143  -34.2945  -38.6938 O.2       7 UNK        -0.5147 
     49 N          24.2670  -33.2743  -40.7007 N.am      8 UNK        -0.4734 
     50 CA         23.8492  -34.4581  -41.4629 C.3       8 UNK         0.0238 
     51 CB         23.8180  -34.1199  -42.9619 C.3       8 UNK        -0.1912 
     52 C          22.4905  -35.0304  -41.0165 C.2       8 UNK         0.5038 
     53 O          22.2466  -36.2199  -41.2232 O.2       8 UNK        -0.5046 
     54 N          21.6503  -34.1894  -40.3992 N.am      9 UNK        -0.4200 
     55 CA         20.3903  -34.5854  -39.7560 C.3       9 UNK         0.0839 
     56 C          20.5731  -35.1722  -38.3243 C.2       9 UNK         0.5513 
     57 N          21.7745  -35.2261  -37.7590 N.am      9 UNK        -0.7519 
     58 O          19.5987  -35.6037  -37.7135 O.2       9 UNK        -0.4960 
     59 C59        19.3607  -33.4267  -39.7670 C.3       10 UNK        -0.0876 
     60 S60        18.8647  -32.9505  -41.4577 S.3       10 UNK        -0.2414 
     61 C61        19.6791  -31.3331  -41.6338 C.3       10 UNK         0.0169 
     62 H62        12.2724  -23.8693  -43.6808 H         1 UNK         0.0903 
     63 H63        11.7668  -23.3045  -45.2748 H         1 UNK         0.0903 
     64 H64        11.4792  -24.9806  -44.7984 H         1 UNK         0.0903 
     65 H65        14.5131  -24.1759  -43.5695 H         1 UNK         0.3096 
     66 H66        16.1361  -24.4183  -45.9041 H         1 UNK         0.1121 
     67 H67        15.6554  -26.7819  -45.8301 H         1 UNK         0.0849 
     68 H68        17.2625  -26.5720  -45.2022 H         1 UNK         0.0849 
     69 H69        15.2856  -29.6618  -43.4237 H         1 UNK         0.0865 
     70 H70        15.4874  -29.1208  -45.0671 H         1 UNK         0.0865 
     71 H71        17.1922  -30.3317  -42.0525 H         1 UNK         0.1346 
     72 H72        21.0457  -30.6492  -43.9081 H         1 UNK         0.1412 
     73 H73        17.8132  -28.7470  -45.9887 H         1 UNK         0.1426 
     74 H74        19.9838  -29.7262  -47.1610 H         1 UNK         0.0716 
     75 H75        21.4000  -29.8592  -46.1466 H         1 UNK         0.0716 
     76 H76        21.4470  -27.7397  -44.1333 H         1 UNK         0.0695 
     77 H77        22.7893  -27.7239  -45.2515 H         1 UNK         0.0695 
     78 H78        22.3454  -25.2445  -45.6792 H         1 UNK         0.0983 
     79 H79        20.0657  -25.7005  -43.9755 H         1 UNK         0.3095 
     80 H80        19.2185  -23.6167  -42.6263 H         1 UNK         0.0454 
     81 H81        19.8850  -21.2617  -43.1560 H         1 UNK         0.0851 
     82 H82        19.1051  -21.3789  -44.7282 H         1 UNK         0.0851 
     83 H83        18.1451  -21.4505  -43.2515 H         1 UNK         0.0851 
     84 H84        18.4312  -24.2911  -45.3282 H         1 UNK         0.2976 
     85 H85        24.5292  -25.2919  -45.1861 H         1 UNK         0.3116 
     86 H86        25.4498  -24.7666  -42.4915 H         1 UNK         0.0646 
     87 H87        27.7052  -24.8809  -43.5477 H         1 UNK         0.0847 
     88 H88        26.6331  -23.8507  -44.4799 H         1 UNK         0.0847 
     89 H89        27.0024  -25.4818  -45.0421 H         1 UNK         0.0847 
     90 H90        25.1014  -27.6189  -44.5222 H         1 UNK         0.3040 
     91 H91        26.5088  -29.4456  -42.7174 H         1 UNK         0.1015 
     92 H92        26.6202  -29.7153  -45.2048 H         1 UNK         0.0786 
     93 H93        24.8760  -29.9778  -45.2570 H         1 UNK         0.0786 
     94 H94        25.9216  -31.1266  -44.4335 H         1 UNK         0.0786 
     95 H95        24.3672  -28.0432  -41.4329 H         1 UNK         0.3172 
     96 H96        21.9512  -29.4900  -41.2344 H         1 UNK         0.0595 
     97 H97        22.1981  -27.1841  -40.3924 H         1 UNK         0.0839 
     98 H98        23.3477  -27.7143  -39.1639 H         1 UNK         0.0839 
     99 H99        21.6681  -28.2305  -39.0883 H         1 UNK         0.0839 
    100 H100       25.0729  -30.1283  -39.7984 H         1 UNK         0.2998 
    101 H101       24.3627  -31.9367  -37.7325 H         1 UNK         0.0822 
    102 H102       26.6069  -30.8828  -37.9220 H         1 UNK         0.0787 
    103 H103       26.7617  -32.6309  -37.9115 H         1 UNK         0.0787 
    104 H104       26.9166  -31.7522  -39.4264 H         1 UNK         0.0787 
    105 H105       24.2814  -32.3955  -41.2080 H         1 UNK         0.3055 
    106 H106       24.5972  -35.2376  -41.3013 H         1 UNK         0.1106 
    107 H107       23.0546  -33.3751  -43.1907 H         1 UNK         0.0828 
    108 H108       24.7777  -33.7328  -43.3048 H         1 UNK         0.0828 
    109 H109       23.5943  -35.0064  -43.5568 H         1 UNK         0.0828 
    110 H110       21.9429  -33.2329  -40.2455 H         1 UNK         0.2931 
    111 H111       19.9580  -35.3981  -40.3431 H         1 UNK         0.0412 
    112 H112       21.8606  -35.6170  -36.8342 H         1 UNK         0.3472 
    113 H113       22.6022  -34.8940  -38.2396 H         1 UNK         0.3472 
    114 H114       19.7499  -32.5623  -39.2262 H         1 UNK         0.0970 
    115 H115       18.4491  -33.7199  -39.2430 H         1 UNK         0.0970 
    116 H116       20.7557  -31.4943  -41.6992 H         1 UNK         0.0612 
    117 H117       19.5001  -30.7259  -40.7453 H         1 UNK         0.0612 
@<TRIPOS>BOND
     1    1    2 1    
     2    1   62 1    
     3    1   63 1    
     4    1   64 1    
     5    2    3 2    
     6    2    4 am   BACKBONE|DICT|INTERRES
     7    4    5 1    
     8    4   65 1    
     9    5    6 1    
    10    5   25 1    
    11    5   66 1    
    12    6    7 1    
    13    6   67 1    
    14    6   68 1    
    15    7    8 1    
    16    8    9 1    
    17    8   69 1    
    18    8   70 1    
    19    9   10 ar   
    20    9   14 ar   
    21   10   11 ar   
    22   10   71 1    
    23   11   12 ar   
    24   11   61 1    
    25   12   13 ar   
    26   12   72 1    
    27   13   14 ar   
    28   13   15 1    
    29   14   73 1    
    30   15   16 1    
    31   15   74 1    
    32   15   75 1    
    33   16   17 1    
    34   17   18 1    
    35   17   76 1    
    36   17   77 1    
    37   18   19 1    
    38   18   27 1    
    39   18   78 1    
    40   19   20 am   BACKBONE|DICT|INTERRES
    41   19   79 1    
    42   20   21 2    
    43   20   22 1    
    44   22   23 1    
    45   22   24 1    
    46   22   80 1    
    47   23   81 1    
    48   23   82 1    
    49   23   83 1    
    50   24   25 am   BACKBONE|DICT|INTERRES
    51   24   84 1    
    52   25   26 2    
    53   27   28 2    
    54   27   29 am   BACKBONE|DICT|INTERRES
    55   29   30 1    
    56   29   85 1    
    57   30   31 1    
    58   30   32 1    
    59   30   86 1    
    60   31   87 1    
    61   31   88 1    
    62   31   89 1    
    63   32   33 2    
    64   32   34 am   BACKBONE|DICT|INTERRES
    65   34   35 1    
    66   34   90 1    
    67   35   36 1    
    68   35   37 1    
    69   35   91 1    
    70   36   92 1    
    71   36   93 1    
    72   36   94 1    
    73   37   38 2    
    74   37   39 am   BACKBONE|DICT|INTERRES
    75   39   40 1    
    76   39   95 1    
    77   40   41 1    
    78   40   42 1    
    79   40   96 1    
    80   41   97 1    
    81   41   98 1    
    82   41   99 1    
    83   42   43 2    
    84   42   44 am   BACKBONE|DICT|INTERRES
    85   44   45 1    
    86   44  100 1    
    87   45   46 1    
    88   45   47 1    
    89   45  101 1    
    90   46  102 1    
    91   46  103 1    
    92   46  104 1    
    93   47   48 2    
    94   47   49 am   BACKBONE|DICT|INTERRES
    95   49   50 1    
    96   49  105 1    
    97   50   51 1    
    98   50   52 1    
    99   50  106 1    
   100   51  107 1    
   101   51  108 1    
   102   51  109 1    
   103   52   53 2    
   104   52   54 am   BACKBONE|DICT|INTERRES
   105   54   55 1    
   106   54  110 1    
   107   55   56 1    
   108   55   59 1    
   109   55  111 1    
   110   56   57 am   BACKBONE|DICT|INTERRES
   111   56   58 2    
   112   57  112 1    
   113   57  113 1    
   114   59   60 1    
   115   59  114 1    
   116   59  115 1    
   117   60   61 1    
   118   61  116 1    
   119   61  117 1    
@<TRIPOS>SUBSTRUCTURE
     1 UNK         1 GROUP             0       ****    0 ROOT    
