@<TRIPOS>MOLECULE
3R8
117   119    1
SMALL
USER_CHARGES


@<TRIPOS>ATOM
      1 CA         15.4657  -22.1845  -43.9563 C.3       0 UNK        -0.2013 
      2 C          16.3266  -23.4193  -44.1752 C.2       0 UNK         0.4866 
      3 O          17.4877  -23.4318  -43.7653 O.2       0 UNK        -0.5176 
      4 N          15.7694  -24.4467  -44.8321 N.am      1 UNK        -0.4884 
      5 CA         16.3535  -25.7626  -45.1472 C.3       1 UNK         0.0853 
      6 C6         16.7924  -26.5770  -43.9022 C.3       10 UNK        -0.0849 
      7 S7         15.4125  -27.0711  -42.8151 S.3       10 UNK        -0.2776 
      8 C8         14.8840  -28.6687  -43.5294 C.3       10 UNK         0.0316 
      9 C9         16.0164  -29.6831  -43.6517 C.ar      10 UNK        -0.0863 
     10 C10        16.5171  -30.3376  -42.5205 C.ar      10 UNK        -0.1009 
     11 C11        17.5597  -31.2644  -42.6395 C.ar      10 UNK        -0.0712 
     12 C12        18.0963  -31.5355  -43.9027 C.ar      10 UNK        -0.0894 
     13 C13        17.6220  -30.8715  -45.0361 C.ar      10 UNK        -0.0745 
     14 C14        16.5679  -29.9628  -44.9066 C.ar      10 UNK        -0.0972 
     15 C15        18.2385  -31.1425  -46.4012 C.3       10 UNK         0.0209 
     16 S16        18.9975  -29.6546  -47.1325 S.3       10 UNK        -0.2568 
     17 C17        20.6319  -29.5426  -46.3093 C.3       10 UNK        -0.0983 
     18 CA         20.9952  -28.1631  -45.6716 C.3       3 UNK         0.0876 
     19 N          20.3468  -27.0277  -46.3311 N.am      3 UNK        -0.4424 
     20 C          20.7560  -25.7550  -46.2732 C.2       2 UNK         0.4918 
     21 O          21.8597  -25.4138  -45.8476 O.2       2 UNK        -0.4875 
     22 CA         19.7503  -24.6716  -46.7057 C.3       2 UNK         0.0481 
     23 CB         19.6107  -24.5924  -48.2387 C.3       2 UNK        -0.1831 
     24 N          18.4552  -24.7981  -46.0192 N.am      2 UNK        -0.4498 
     25 C          17.5027  -25.7273  -46.1779 C.2       1 UNK         0.5027 
     26 O          17.5225  -26.5733  -47.0710 O.2       1 UNK        -0.4969 
     27 C          20.6845  -28.0796  -44.1640 C.2       3 UNK         0.5005 
     28 O          19.6191  -28.5150  -43.7363 O.2       3 UNK        -0.5279 
     29 N          21.5884  -27.4638  -43.3947 N.am      4 UNK        -0.4463 
     30 CA         21.4698  -27.1973  -41.9630 C.3       4 UNK         0.0283 
     31 CB         20.3639  -26.1516  -41.6992 C.3       4 UNK        -0.1875 
     32 C          22.8280  -26.7042  -41.4442 C.2       4 UNK         0.4949 
     33 O          23.7416  -26.4825  -42.2436 O.2       4 UNK        -0.5039 
     34 N          22.9218  -26.5245  -40.1177 N.am      5 UNK        -0.4663 
     35 CA         24.0809  -26.0049  -39.3737 C.3       5 UNK         0.0242 
     36 CB         24.3450  -24.5261  -39.7328 C.3       5 UNK        -0.1982 
     37 C          25.3365  -26.8904  -39.5055 C.2       5 UNK         0.5017 
     38 O          26.4521  -26.3784  -39.6185 O.2       5 UNK        -0.5012 
     39 N          25.1241  -28.2092  -39.4802 N.am      6 UNK        -0.4439 
     40 CA         26.1393  -29.2519  -39.5619 C.3       6 UNK         0.0297 
     41 CB         26.5508  -29.4686  -41.0301 C.3       6 UNK        -0.2006 
     42 C          25.5591  -30.5299  -38.9465 C.2       6 UNK         0.4892 
     43 O          24.3389  -30.6233  -38.7724 O.2       6 UNK        -0.5089 
     44 N          26.4395  -31.4911  -38.6353 N.am      7 UNK        -0.4243 
     45 CA         26.0919  -32.8059  -38.0888 C.3       7 UNK         0.0196 
     46 CB         27.3769  -33.6030  -37.8111 C.3       7 UNK        -0.2007 
     47 C          25.1633  -33.5767  -39.0403 C.2       7 UNK         0.5020 
     48 O          25.5199  -33.7750  -40.2037 O.2       7 UNK        -0.5147 
     49 N          23.9721  -33.9377  -38.5416 N.am      8 UNK        -0.4734 
     50 CA         22.8612  -34.5590  -39.2800 C.3       8 UNK         0.0238 
     51 CB         23.2125  -36.0141  -39.6590 C.3       8 UNK        -0.1912 
     52 C          22.3867  -33.7262  -40.4925 C.2       8 UNK         0.5038 
     53 O          21.9411  -34.3014  -41.4869 O.2       8 UNK        -0.5046 
     54 N          22.5133  -32.3942  -40.3894 N.am      9 UNK        -0.4200 
     55 CA         22.2664  -31.4017  -41.4487 C.3       9 UNK         0.0839 
     56 C          23.3138  -31.4183  -42.6042 C.2       9 UNK         0.5513 
     57 N          24.4339  -32.1231  -42.4878 N.am      9 UNK        -0.7519 
     58 O          23.1252  -30.7505  -43.6177 O.2       9 UNK        -0.4960 
     59 C59        20.8070  -31.4115  -41.9822 C.3       10 UNK        -0.0876 
     60 S60        19.5473  -31.1173  -40.6946 S.3       10 UNK        -0.2414 
     61 C61        18.1060  -31.9770  -41.4078 C.3       10 UNK         0.0169 
     62 H62        15.3687  -21.9809  -42.8902 H         1 UNK         0.0903 
     63 H63        15.9268  -21.3173  -44.4281 H         1 UNK         0.0903 
     64 H64        14.4648  -22.3043  -44.3705 H         1 UNK         0.0903 
     65 H65        14.8181  -24.3353  -45.1562 H         1 UNK         0.3096 
     66 H66        15.5524  -26.3232  -45.6324 H         1 UNK         0.1121 
     67 H67        17.5016  -26.0060  -43.3033 H         1 UNK         0.0849 
     68 H68        17.3385  -27.4705  -44.1997 H         1 UNK         0.0849 
     69 H69        14.0942  -29.0877  -42.9044 H         1 UNK         0.0865 
     70 H70        14.4283  -28.4856  -44.5037 H         1 UNK         0.0865 
     71 H71        16.1012  -30.1171  -41.5470 H         1 UNK         0.1346 
     72 H72        18.8975  -32.2528  -44.0040 H         1 UNK         0.1412 
     73 H73        16.1988  -29.4516  -45.7855 H         1 UNK         0.1426 
     74 H74        17.4540  -31.4959  -47.0716 H         1 UNK         0.0716 
     75 H75        18.9801  -31.9413  -46.3524 H         1 UNK         0.0716 
     76 H76        21.3699  -29.7694  -47.0798 H         1 UNK         0.0695 
     77 H77        20.7331  -30.3496  -45.5804 H         1 UNK         0.0695 
     78 H78        22.0759  -28.0458  -45.7811 H         1 UNK         0.0983 
     79 H79        19.4116  -27.2103  -46.6816 H         1 UNK         0.3095 
     80 H80        20.1556  -23.7150  -46.3720 H         1 UNK         0.0454 
     81 H81        19.2728  -25.5325  -48.6749 H         1 UNK         0.0851 
     82 H82        20.5698  -24.3538  -48.6998 H         1 UNK         0.0851 
     83 H83        18.9073  -23.8137  -48.5330 H         1 UNK         0.0851 
     84 H84        18.3240  -24.1771  -45.2219 H         1 UNK         0.2976 
     85 H85        22.4503  -27.1132  -43.7989 H         1 UNK         0.3116 
     86 H86        21.2256  -28.1305  -41.4513 H         1 UNK         0.0646 
     87 H87        19.3820  -26.5342  -41.9742 H         1 UNK         0.0847 
     88 H88        20.5358  -25.2343  -42.2636 H         1 UNK         0.0847 
     89 H89        20.3055  -25.8806  -40.6449 H         1 UNK         0.0847 
     90 H90        22.1135  -26.7491  -39.5530 H         1 UNK         0.3040 
     91 H91        23.8075  -26.0368  -38.3176 H         1 UNK         0.1015 
     92 H92        24.6861  -24.4129  -40.7624 H         1 UNK         0.0786 
     93 H93        25.1137  -24.0982  -39.0881 H         1 UNK         0.0786 
     94 H94        23.4470  -23.9210  -39.6085 H         1 UNK         0.0786 
     95 H95        24.1873  -28.5631  -39.3268 H         1 UNK         0.3172 
     96 H96        27.0103  -28.9552  -38.9736 H         1 UNK         0.0595 
     97 H97        25.6894  -29.6986  -41.6572 H         1 UNK         0.0839 
     98 H98        27.2586  -30.2923  -41.1300 H         1 UNK         0.0839 
     99 H99        27.0301  -28.5804  -41.4418 H         1 UNK         0.0839 
    100 H100       27.4163  -31.3347  -38.8380 H         1 UNK         0.2998 
    101 H101       25.5778  -32.6434  -37.1390 H         1 UNK         0.0822 
    102 H102       28.0187  -33.0876  -37.0963 H         1 UNK         0.0787 
    103 H103       27.1442  -34.5819  -37.3895 H         1 UNK         0.0787 
    104 H104       27.9534  -33.7699  -38.7222 H         1 UNK         0.0787 
    105 H105       23.7716  -33.7021  -37.5784 H         1 UNK         0.3055 
    106 H106       22.0125  -34.5924  -38.5948 H         1 UNK         0.1106 
    107 H107       24.0133  -36.0574  -40.3979 H         1 UNK         0.0828 
    108 H108       22.3499  -36.5280  -40.0851 H         1 UNK         0.0828 
    109 H109       23.5289  -36.5866  -38.7873 H         1 UNK         0.0828 
    110 H110       22.9442  -32.0157  -39.5538 H         1 UNK         0.2931 
    111 H111       22.4196  -30.4365  -40.9648 H         1 UNK         0.0412 
    112 H112       24.6269  -32.6796  -41.6623 H         1 UNK         0.3472 
    113 H113       25.0965  -32.1122  -43.2462 H         1 UNK         0.3472 
    114 H114       20.6022  -32.3569  -42.4834 H         1 UNK         0.0970 
    115 H115       20.6730  -30.6407  -42.7395 H         1 UNK         0.0970 
    116 H116       18.3785  -33.0045  -41.6541 H         1 UNK         0.0612 
    117 H117       17.3294  -32.0448  -40.6447 H         1 UNK         0.0612 
@<TRIPOS>BOND
     1    1    2 1    
     2    1   62 1    
     3    1   63 1    
     4    1   64 1    
     5    2    3 2    
     6    2    4 am   BACKBONE|DICT|INTERRES
     7    4    5 1    
     8    4   65 1    
     9    5    6 1    
    10    5   25 1    
    11    5   66 1    
    12    6    7 1    
    13    6   67 1    
    14    6   68 1    
    15    7    8 1    
    16    8    9 1    
    17    8   69 1    
    18    8   70 1    
    19    9   10 ar   
    20    9   14 ar   
    21   10   11 ar   
    22   10   71 1    
    23   11   12 ar   
    24   11   61 1    
    25   12   13 ar   
    26   12   72 1    
    27   13   14 ar   
    28   13   15 1    
    29   14   73 1    
    30   15   16 1    
    31   15   74 1    
    32   15   75 1    
    33   16   17 1    
    34   17   18 1    
    35   17   76 1    
    36   17   77 1    
    37   18   19 1    
    38   18   27 1    
    39   18   78 1    
    40   19   20 am   BACKBONE|DICT|INTERRES
    41   19   79 1    
    42   20   21 2    
    43   20   22 1    
    44   22   23 1    
    45   22   24 1    
    46   22   80 1    
    47   23   81 1    
    48   23   82 1    
    49   23   83 1    
    50   24   25 am   BACKBONE|DICT|INTERRES
    51   24   84 1    
    52   25   26 2    
    53   27   28 2    
    54   27   29 am   BACKBONE|DICT|INTERRES
    55   29   30 1    
    56   29   85 1    
    57   30   31 1    
    58   30   32 1    
    59   30   86 1    
    60   31   87 1    
    61   31   88 1    
    62   31   89 1    
    63   32   33 2    
    64   32   34 am   BACKBONE|DICT|INTERRES
    65   34   35 1    
    66   34   90 1    
    67   35   36 1    
    68   35   37 1    
    69   35   91 1    
    70   36   92 1    
    71   36   93 1    
    72   36   94 1    
    73   37   38 2    
    74   37   39 am   BACKBONE|DICT|INTERRES
    75   39   40 1    
    76   39   95 1    
    77   40   41 1    
    78   40   42 1    
    79   40   96 1    
    80   41   97 1    
    81   41   98 1    
    82   41   99 1    
    83   42   43 2    
    84   42   44 am   BACKBONE|DICT|INTERRES
    85   44   45 1    
    86   44  100 1    
    87   45   46 1    
    88   45   47 1    
    89   45  101 1    
    90   46  102 1    
    91   46  103 1    
    92   46  104 1    
    93   47   48 2    
    94   47   49 am   BACKBONE|DICT|INTERRES
    95   49   50 1    
    96   49  105 1    
    97   50   51 1    
    98   50   52 1    
    99   50  106 1    
   100   51  107 1    
   101   51  108 1    
   102   51  109 1    
   103   52   53 2    
   104   52   54 am   BACKBONE|DICT|INTERRES
   105   54   55 1    
   106   54  110 1    
   107   55   56 1    
   108   55   59 1    
   109   55  111 1    
   110   56   57 am   BACKBONE|DICT|INTERRES
   111   56   58 2    
   112   57  112 1    
   113   57  113 1    
   114   59   60 1    
   115   59  114 1    
   116   59  115 1    
   117   60   61 1    
   118   61  116 1    
   119   61  117 1    
@<TRIPOS>SUBSTRUCTURE
     1 UNK         1 GROUP             0       ****    0 ROOT    
