@<TRIPOS>MOLECULE
3R8
117   119    1
SMALL
USER_CHARGES


@<TRIPOS>ATOM
      1 CA         17.7272  -21.7250  -46.9128 C.3       0 UNK        -0.2013 
      2 C          18.6767  -22.7936  -47.4332 C.2       0 UNK         0.4866 
      3 O          19.7723  -22.4699  -47.8919 O.2       0 UNK        -0.5176 
      4 N          18.2690  -24.0672  -47.3613 N.am      1 UNK        -0.4884 
      5 CA         19.0472  -25.2274  -47.8195 C.3       1 UNK         0.0853 
      6 C6         18.1196  -26.4027  -48.2294 C.3       10 UNK        -0.0849 
      7 S7         17.0868  -27.0486  -46.8655 S.3       10 UNK        -0.2776 
      8 C8         17.9148  -28.6469  -46.5339 C.3       10 UNK         0.0316 
      9 C9         17.5418  -29.3376  -45.2195 C.ar      10 UNK        -0.0863 
     10 C10        18.1880  -30.5380  -44.9009 C.ar      10 UNK        -0.1009 
     11 C11        17.9339  -31.1924  -43.6921 C.ar      10 UNK        -0.0712 
     12 C12        17.0132  -30.6457  -42.7953 C.ar      10 UNK        -0.0894 
     13 C13        16.3723  -29.4395  -43.0881 C.ar      10 UNK        -0.0745 
     14 C14        16.6241  -28.8008  -44.3054 C.ar      10 UNK        -0.0972 
     15 C15        15.4671  -28.7862  -42.0558 C.3       10 UNK         0.0209 
     16 S16        16.4260  -28.1732  -40.6308 S.3       10 UNK        -0.2568 
     17 C17        17.5297  -26.9274  -41.3931 C.3       10 UNK        -0.0983 
     18 CA         18.9010  -27.4732  -41.8823 C.3       3 UNK         0.0876 
     19 N          19.6239  -26.4382  -42.6223 N.am      3 UNK        -0.4424 
     20 C          20.3298  -26.6587  -43.7362 C.2       2 UNK         0.4918 
     21 O          20.4785  -27.7686  -44.2411 O.2       2 UNK        -0.4875 
     22 CA         20.9307  -25.4176  -44.4174 C.3       2 UNK         0.0481 
     23 CB         22.4393  -25.5689  -44.7086 C.3       2 UNK        -0.1831 
     24 N          20.1544  -25.0732  -45.6157 N.am      2 UNK        -0.4498 
     25 C          20.1391  -25.6757  -46.8182 C.2       1 UNK         0.5027 
     26 O          20.9250  -26.5574  -47.1676 O.2       1 UNK        -0.4969 
     27 C          19.7638  -28.0197  -40.7293 C.2       3 UNK         0.5005 
     28 O          20.5278  -27.2682  -40.1156 O.2       3 UNK        -0.5279 
     29 N          19.5760  -29.3140  -40.4325 N.am      4 UNK        -0.4463 
     30 CA         20.1004  -30.0562  -39.2846 C.3       4 UNK         0.0283 
     31 CB         19.3671  -29.6180  -37.9962 C.3       4 UNK        -0.1875 
     32 C          21.6344  -29.9868  -39.1951 C.2       4 UNK         0.4949 
     33 O          22.3126  -30.4694  -40.1026 O.2       4 UNK        -0.5039 
     34 N          22.1583  -29.3881  -38.1185 N.am      5 UNK        -0.4663 
     35 CA         23.5881  -29.2395  -37.8408 C.3       5 UNK         0.0242 
     36 CB         23.7654  -28.7029  -36.4113 C.3       5 UNK        -0.1982 
     37 C          24.3445  -28.3516  -38.8448 C.2       5 UNK         0.5017 
     38 O          25.5652  -28.4801  -38.9373 O.2       5 UNK        -0.5012 
     39 N          23.6318  -27.4831  -39.5799 N.am      6 UNK        -0.4439 
     40 CA         24.2201  -26.6088  -40.5984 C.3       6 UNK         0.0297 
     41 CB         23.2345  -25.4853  -40.9533 C.3       6 UNK        -0.2006 
     42 C          24.6718  -27.3741  -41.8562 C.2       6 UNK         0.4892 
     43 O          25.6745  -26.9890  -42.4583 O.2       6 UNK        -0.5089 
     44 N          23.9468  -28.4432  -42.2159 N.am      7 UNK        -0.4243 
     45 CA         24.3110  -29.3657  -43.2984 C.3       7 UNK         0.0196 
     46 CB         23.0624  -29.6919  -44.1318 C.3       7 UNK        -0.2007 
     47 C          24.9490  -30.6642  -42.7787 C.2       7 UNK         0.5020 
     48 O          25.5448  -31.3901  -43.5750 O.2       7 UNK        -0.5147 
     49 N          24.8004  -30.9394  -41.4744 N.am      8 UNK        -0.4734 
     50 CA         25.1529  -32.1764  -40.7718 C.3       8 UNK         0.0238 
     51 CB         26.6718  -32.4513  -40.8222 C.3       8 UNK        -0.1912 
     52 C          24.2917  -33.3538  -41.2639 C.2       8 UNK         0.5038 
     53 O          24.8281  -34.3690  -41.7126 O.2       8 UNK        -0.5046 
     54 N          22.9643  -33.1772  -41.1799 N.am      9 UNK        -0.4200 
     55 CA         21.9463  -34.1698  -41.5732 C.3       9 UNK         0.0839 
     56 C          22.0022  -35.5195  -40.7964 C.2       9 UNK         0.5513 
     57 N          22.5782  -35.5752  -39.6010 N.am      9 UNK        -0.7519 
     58 O          21.5067  -36.5305  -41.2883 O.2       9 UNK        -0.4960 
     59 C59        20.5077  -33.5925  -41.4973 C.3       10 UNK        -0.0876 
     60 S60        20.2531  -32.0943  -42.5078 S.3       10 UNK        -0.2414 
     61 C61        18.6742  -32.4712  -43.3337 C.3       10 UNK         0.0169 
     62 H62        16.8000  -22.1530  -46.5318 H         1 UNK         0.0903 
     63 H63        18.1985  -21.1638  -46.1064 H         1 UNK         0.0903 
     64 H64        17.4749  -21.0274  -47.7110 H         1 UNK         0.0903 
     65 H65        17.3594  -24.2850  -46.9763 H         1 UNK         0.3096 
     66 H66        19.5883  -24.9266  -48.7200 H         1 UNK         0.1121 
     67 H67        18.7024  -27.2142  -48.6700 H         1 UNK         0.0849 
     68 H68        17.4490  -26.0718  -49.0239 H         1 UNK         0.0849 
     69 H69        17.7052  -29.3243  -47.3629 H         1 UNK         0.0865 
     70 H70        18.9939  -28.4861  -46.5295 H         1 UNK         0.0865 
     71 H71        18.9152  -30.9533  -45.5856 H         1 UNK         0.1346 
     72 H72        16.8250  -31.1358  -41.8495 H         1 UNK         0.1412 
     73 H73        16.1285  -27.8630  -44.5086 H         1 UNK         0.1426 
     74 H74        14.7334  -29.5136  -41.7055 H         1 UNK         0.0716 
     75 H75        14.9007  -27.9621  -42.4924 H         1 UNK         0.0716 
     76 H76        17.6810  -26.1263  -40.6672 H         1 UNK         0.0695 
     77 H77        16.9957  -26.4713  -42.2284 H         1 UNK         0.0695 
     78 H78        18.7161  -28.3049  -42.5614 H         1 UNK         0.0983 
     79 H79        19.5872  -25.5087  -42.2315 H         1 UNK         0.3095 
     80 H80        20.8219  -24.5697  -43.7390 H         1 UNK         0.0454 
     81 H81        22.6599  -26.4482  -45.3132 H         1 UNK         0.0851 
     82 H82        23.0058  -25.6782  -43.7864 H         1 UNK         0.0851 
     83 H83        22.8332  -24.6964  -45.2292 H         1 UNK         0.0851 
     84 H84        19.4477  -24.3652  -45.4753 H         1 UNK         0.2976 
     85 H85        18.9690  -29.8469  -41.0400 H         1 UNK         0.3116 
     86 H86        19.8568  -31.1047  -39.4588 H         1 UNK         0.0646 
     87 H87        19.6916  -30.2028  -37.1343 H         1 UNK         0.0847 
     88 H88        19.5250  -28.5631  -37.7679 H         1 UNK         0.0847 
     89 H89        18.2918  -29.7698  -38.0926 H         1 UNK         0.0847 
     90 H90        21.5233  -28.9986  -37.4366 H         1 UNK         0.3040 
     91 H91        24.0397  -30.2327  -37.8914 H         1 UNK         0.1015 
     92 H92        24.8223  -28.6098  -36.1564 H         1 UNK         0.0786 
     93 H93        23.3163  -29.3715  -35.6766 H         1 UNK         0.0786 
     94 H94        23.3137  -27.7173  -36.2911 H         1 UNK         0.0786 
     95 H95        22.6240  -27.4470  -39.4644 H         1 UNK         0.3172 
     96 H96        25.1068  -26.1415  -40.1641 H         1 UNK         0.0595 
     97 H97        22.3363  -25.8716  -41.4333 H         1 UNK         0.0839 
     98 H98        23.6918  -24.7691  -41.6370 H         1 UNK         0.0839 
     99 H99        22.9268  -24.9314  -40.0663 H         1 UNK         0.0839 
    100 H100       23.1341  -28.6868  -41.6654 H         1 UNK         0.2998 
    101 H101       25.0420  -28.9012  -43.9636 H         1 UNK         0.0822 
    102 H102       23.2541  -30.4948  -44.8451 H         1 UNK         0.0787 
    103 H103       22.2243  -30.0024  -43.5070 H         1 UNK         0.0787 
    104 H104       22.7501  -28.8260  -44.7127 H         1 UNK         0.0787 
    105 H105       24.2179  -30.3082  -40.9382 H         1 UNK         0.3055 
    106 H106       24.8875  -32.0214  -39.7246 H         1 UNK         0.1106 
    107 H107       27.2406  -31.5970  -40.4552 H         1 UNK         0.0828 
    108 H108       26.9306  -33.3064  -40.1967 H         1 UNK         0.0828 
    109 H109       27.0171  -32.6764  -41.8315 H         1 UNK         0.0828 
    110 H110       22.6146  -32.2864  -40.8407 H         1 UNK         0.2931 
    111 H111       22.1463  -34.4130  -42.6187 H         1 UNK         0.0412 
    112 H112       22.9839  -34.7507  -39.1881 H         1 UNK         0.3472 
    113 H113       22.6094  -36.4543  -39.1085 H         1 UNK         0.3472 
    114 H114       19.7900  -34.3524  -41.8129 H         1 UNK         0.0970 
    115 H115       20.2513  -33.3510  -40.4644 H         1 UNK         0.0970 
    116 H116       18.0469  -33.0808  -42.6814 H         1 UNK         0.0612 
    117 H117       18.8656  -33.0671  -44.2274 H         1 UNK         0.0612 
@<TRIPOS>BOND
     1    1    2 1    
     2    1   62 1    
     3    1   63 1    
     4    1   64 1    
     5    2    3 2    
     6    2    4 am   BACKBONE|DICT|INTERRES
     7    4    5 1    
     8    4   65 1    
     9    5    6 1    
    10    5   25 1    
    11    5   66 1    
    12    6    7 1    
    13    6   67 1    
    14    6   68 1    
    15    7    8 1    
    16    8    9 1    
    17    8   69 1    
    18    8   70 1    
    19    9   10 ar   
    20    9   14 ar   
    21   10   11 ar   
    22   10   71 1    
    23   11   12 ar   
    24   11   61 1    
    25   12   13 ar   
    26   12   72 1    
    27   13   14 ar   
    28   13   15 1    
    29   14   73 1    
    30   15   16 1    
    31   15   74 1    
    32   15   75 1    
    33   16   17 1    
    34   17   18 1    
    35   17   76 1    
    36   17   77 1    
    37   18   19 1    
    38   18   27 1    
    39   18   78 1    
    40   19   20 am   BACKBONE|DICT|INTERRES
    41   19   79 1    
    42   20   21 2    
    43   20   22 1    
    44   22   23 1    
    45   22   24 1    
    46   22   80 1    
    47   23   81 1    
    48   23   82 1    
    49   23   83 1    
    50   24   25 am   BACKBONE|DICT|INTERRES
    51   24   84 1    
    52   25   26 2    
    53   27   28 2    
    54   27   29 am   BACKBONE|DICT|INTERRES
    55   29   30 1    
    56   29   85 1    
    57   30   31 1    
    58   30   32 1    
    59   30   86 1    
    60   31   87 1    
    61   31   88 1    
    62   31   89 1    
    63   32   33 2    
    64   32   34 am   BACKBONE|DICT|INTERRES
    65   34   35 1    
    66   34   90 1    
    67   35   36 1    
    68   35   37 1    
    69   35   91 1    
    70   36   92 1    
    71   36   93 1    
    72   36   94 1    
    73   37   38 2    
    74   37   39 am   BACKBONE|DICT|INTERRES
    75   39   40 1    
    76   39   95 1    
    77   40   41 1    
    78   40   42 1    
    79   40   96 1    
    80   41   97 1    
    81   41   98 1    
    82   41   99 1    
    83   42   43 2    
    84   42   44 am   BACKBONE|DICT|INTERRES
    85   44   45 1    
    86   44  100 1    
    87   45   46 1    
    88   45   47 1    
    89   45  101 1    
    90   46  102 1    
    91   46  103 1    
    92   46  104 1    
    93   47   48 2    
    94   47   49 am   BACKBONE|DICT|INTERRES
    95   49   50 1    
    96   49  105 1    
    97   50   51 1    
    98   50   52 1    
    99   50  106 1    
   100   51  107 1    
   101   51  108 1    
   102   51  109 1    
   103   52   53 2    
   104   52   54 am   BACKBONE|DICT|INTERRES
   105   54   55 1    
   106   54  110 1    
   107   55   56 1    
   108   55   59 1    
   109   55  111 1    
   110   56   57 am   BACKBONE|DICT|INTERRES
   111   56   58 2    
   112   57  112 1    
   113   57  113 1    
   114   59   60 1    
   115   59  114 1    
   116   59  115 1    
   117   60   61 1    
   118   61  116 1    
   119   61  117 1    
@<TRIPOS>SUBSTRUCTURE
     1 UNK         1 GROUP             0       ****    0 ROOT    
