@<TRIPOS>MOLECULE
3R8
117   119    1
SMALL
USER_CHARGES


@<TRIPOS>ATOM
      1 CA         18.7214  -21.7114  -45.4428 C.3       0 UNK        -0.2013 
      2 C          18.1246  -23.1107  -45.4539 C.2       0 UNK         0.4866 
      3 O          17.1456  -23.3553  -46.1595 O.2       0 UNK        -0.5176 
      4 N          18.7065  -24.0313  -44.6804 N.am      1 UNK        -0.4884 
      5 CA         18.2968  -25.4286  -44.5677 C.3       1 UNK         0.0853 
      6 C6         16.9743  -25.5846  -43.7508 C.3       10 UNK        -0.0849 
      7 S7         16.7507  -27.1170  -42.7823 S.3       10 UNK        -0.2776 
      8 C8         16.0938  -28.2827  -44.0324 C.3       10 UNK         0.0316 
      9 C9         16.5969  -29.7088  -43.8107 C.ar      10 UNK        -0.0863 
     10 C10        16.9873  -30.5085  -44.8937 C.ar      10 UNK        -0.1009 
     11 C11        17.4807  -31.8041  -44.6832 C.ar      10 UNK        -0.0712 
     12 C12        17.5918  -32.2908  -43.3778 C.ar      10 UNK        -0.0894 
     13 C13        17.2222  -31.4969  -42.2909 C.ar      10 UNK        -0.0745 
     14 C14        16.6845  -30.2311  -42.5171 C.ar      10 UNK        -0.0972 
     15 C15        17.4410  -31.9878  -40.8707 C.3       10 UNK         0.0209 
     16 S16        19.0873  -31.4949  -40.2632 S.3       10 UNK        -0.2568 
     17 C17        18.8254  -29.7576  -39.7604 C.3       10 UNK        -0.0983 
     18 CA         19.9151  -28.8046  -40.3157 C.3       3 UNK         0.0876 
     19 N          19.8674  -28.6579  -41.7787 N.am      3 UNK        -0.4424 
     20 C          20.9539  -28.6293  -42.5643 C.2       2 UNK         0.4918 
     21 O          22.1026  -28.8084  -42.1638 O.2       2 UNK        -0.4875 
     22 CA         20.7506  -28.3540  -44.0630 C.3       2 UNK         0.0481 
     23 CB         20.5820  -29.6746  -44.8087 C.3       2 UNK        -0.1831 
     24 N          19.6237  -27.4833  -44.3924 N.am      2 UNK        -0.4498 
     25 C          19.5155  -26.2010  -44.0281 C.2       1 UNK         0.5027 
     26 O          20.3250  -25.6352  -43.2888 O.2       1 UNK        -0.4969 
     27 C          19.8836  -27.4370  -39.5966 C.2       3 UNK         0.5005 
     28 O          20.0771  -27.4061  -38.3796 O.2       3 UNK        -0.5279 
     29 N          19.6742  -26.3302  -40.3301 N.am      4 UNK        -0.4463 
     30 CA         19.9781  -24.9770  -39.8474 C.3       4 UNK         0.0283 
     31 CB         19.1614  -23.9305  -40.6236 C.3       4 UNK        -0.1875 
     32 C          21.4917  -24.7110  -39.9532 C.2       4 UNK         0.4949 
     33 O          22.0711  -24.1016  -39.0537 O.2       4 UNK        -0.5039 
     34 N          22.1070  -25.2325  -41.0245 N.am      5 UNK        -0.4663 
     35 CA         23.5472  -25.4466  -41.1678 C.3       5 UNK         0.0242 
     36 CB         23.8544  -25.6594  -42.6623 C.3       5 UNK        -0.1982 
     37 C          24.0285  -26.6419  -40.3148 C.2       5 UNK         0.5017 
     38 O          23.2384  -27.2664  -39.6026 O.2       5 UNK        -0.5012 
     39 N          25.3271  -26.9566  -40.3993 N.am      6 UNK        -0.4439 
     40 CA         26.0023  -28.0087  -39.6289 C.3       6 UNK         0.0297 
     41 CB         27.5136  -27.7078  -39.6085 C.3       6 UNK        -0.2006 
     42 C          25.6898  -29.4473  -40.1061 C.2       6 UNK         0.4892 
     43 O          26.6196  -30.2147  -40.3613 O.2       6 UNK        -0.5089 
     44 N          24.3944  -29.7873  -40.1932 N.am      7 UNK        -0.4243 
     45 CA         23.8178  -31.0960  -40.5361 C.3       7 UNK         0.0196 
     46 CB         24.0431  -32.0973  -39.3840 C.3       7 UNK        -0.2007 
     47 C          24.3121  -31.6261  -41.8958 C.2       7 UNK         0.5020 
     48 O          24.9217  -32.6948  -41.9650 O.2       7 UNK        -0.5147 
     49 N          24.0691  -30.8428  -42.9547 N.am      8 UNK        -0.4734 
     50 CA         24.5655  -31.1159  -44.3098 C.3       8 UNK         0.0238 
     51 CB         24.4879  -29.8332  -45.1553 C.3       8 UNK        -0.1912 
     52 C          23.8792  -32.3012  -45.0197 C.2       8 UNK         0.5038 
     53 O          24.4797  -32.8748  -45.9295 O.2       8 UNK        -0.5046 
     54 N          22.6560  -32.6513  -44.6011 N.am      9 UNK        -0.4200 
     55 CA         21.9249  -33.8434  -45.0526 C.3       9 UNK         0.0839 
     56 C          22.4107  -35.0846  -44.2613 C.2       9 UNK         0.5513 
     57 N          22.8082  -36.1475  -44.9465 N.am      9 UNK        -0.7519 
     58 O          22.3857  -35.1035  -43.0329 O.2       9 UNK        -0.4960 
     59 C59        20.3893  -33.6652  -44.9096 C.3       10 UNK        -0.0876 
     60 S60        19.6859  -32.5918  -46.2076 S.3       10 UNK        -0.2414 
     61 C61        17.8966  -32.6812  -45.8591 C.3       10 UNK         0.0169 
     62 H62        19.5762  -21.6379  -44.7706 H         1 UNK         0.0903 
     63 H63        19.0524  -21.4364  -46.4439 H         1 UNK         0.0903 
     64 H64        17.9737  -20.9875  -45.1200 H         1 UNK         0.0903 
     65 H65        19.5387  -23.8128  -44.1446 H         1 UNK         0.3096 
     66 H66        18.1179  -25.8027  -45.5785 H         1 UNK         0.1121 
     67 H67        16.1150  -25.4500  -44.4098 H         1 UNK         0.0849 
     68 H68        16.9023  -24.7727  -43.0248 H         1 UNK         0.0849 
     69 H69        15.0038  -28.2752  -43.9920 H         1 UNK         0.0865 
     70 H70        16.3699  -27.9407  -45.0308 H         1 UNK         0.0865 
     71 H71        16.9147  -30.1241  -45.9020 H         1 UNK         0.1346 
     72 H72        17.9824  -33.2833  -43.2034 H         1 UNK         0.1412 
     73 H73        16.3646  -29.6332  -41.6764 H         1 UNK         0.1426 
     74 H74        17.3653  -33.0758  -40.8385 H         1 UNK         0.0716 
     75 H75        16.6657  -31.6082  -40.2034 H         1 UNK         0.0716 
     76 H76        18.8343  -29.7548  -38.6687 H         1 UNK         0.0695 
     77 H77        17.8328  -29.4124  -40.0445 H         1 UNK         0.0695 
     78 H78        20.8784  -29.2380  -40.0369 H         1 UNK         0.0983 
     79 H79        18.9539  -28.5485  -42.1975 H         1 UNK         0.3095 
     80 H80        21.6555  -27.8678  -44.4331 H         1 UNK         0.0454 
     81 H81        19.7076  -30.2146  -44.4518 H         1 UNK         0.0851 
     82 H82        21.4384  -30.3224  -44.6483 H         1 UNK         0.0851 
     83 H83        20.4821  -29.5278  -45.8841 H         1 UNK         0.0851 
     84 H84        18.9059  -27.8867  -44.9763 H         1 UNK         0.2976 
     85 H85        19.5339  -26.4308  -41.3255 H         1 UNK         0.3116 
     86 H86        19.6941  -24.9024  -38.7954 H         1 UNK         0.0646 
     87 H87        18.0948  -24.1526  -40.5885 H         1 UNK         0.0847 
     88 H88        19.4563  -23.8648  -41.6694 H         1 UNK         0.0847 
     89 H89        19.3002  -22.9392  -40.1908 H         1 UNK         0.0847 
     90 H90        21.5267  -25.6473  -41.7454 H         1 UNK         0.3040 
     91 H91        24.0682  -24.5522  -40.8194 H         1 UNK         0.1015 
     92 H92        24.9273  -25.6999  -42.8511 H         1 UNK         0.0786 
     93 H93        23.4563  -24.8443  -43.2673 H         1 UNK         0.0786 
     94 H94        23.4218  -26.5883  -43.0348 H         1 UNK         0.0786 
     95 H95        25.9096  -26.4268  -41.0316 H         1 UNK         0.3172 
     96 H96        25.6495  -27.9461  -38.5972 H         1 UNK         0.0595 
     97 H97        27.9484  -27.7555  -40.6077 H         1 UNK         0.0839 
     98 H98        28.0484  -28.4266  -38.9859 H         1 UNK         0.0839 
     99 H99        27.7179  -26.7184  -39.1988 H         1 UNK         0.0839 
    100 H100       23.7242  -29.0430  -40.0108 H         1 UNK         0.2998 
    101 H101       22.7410  -30.9493  -40.6330 H         1 UNK         0.0822 
    102 H102       23.6268  -31.7242  -38.4484 H         1 UNK         0.0787 
    103 H103       23.5584  -33.0511  -39.5968 H         1 UNK         0.0787 
    104 H104       25.1029  -32.2987  -39.2234 H         1 UNK         0.0787 
    105 H105       23.5477  -29.9835  -42.8015 H         1 UNK         0.3055 
    106 H106       25.6210  -31.3841  -44.2209 H         1 UNK         0.1106 
    107 H107       23.4664  -29.4783  -45.2776 H         1 UNK         0.0828 
    108 H108       24.8931  -30.0012  -46.1541 H         1 UNK         0.0828 
    109 H109       25.0686  -29.0278  -44.7050 H         1 UNK         0.0828 
    110 H110       22.2700  -32.1658  -43.8066 H         1 UNK         0.2931 
    111 H111       22.1439  -34.0067  -46.1103 H         1 UNK         0.0412 
    112 H112       22.8248  -36.1400  -45.9550 H         1 UNK         0.3472 
    113 H113       23.1116  -36.9690  -44.4467 H         1 UNK         0.3472 
    114 H114       19.8804  -34.6290  -44.9778 H         1 UNK         0.0970 
    115 H115       20.1509  -33.2595  -43.9262 H         1 UNK         0.0970 
    116 H116       17.6098  -33.7178  -45.6764 H         1 UNK         0.0612 
    117 H117       17.3559  -32.3732  -46.7552 H         1 UNK         0.0612 
@<TRIPOS>BOND
     1    1    2 1    
     2    1   62 1    
     3    1   63 1    
     4    1   64 1    
     5    2    3 2    
     6    2    4 am   BACKBONE|DICT|INTERRES
     7    4    5 1    
     8    4   65 1    
     9    5    6 1    
    10    5   25 1    
    11    5   66 1    
    12    6    7 1    
    13    6   67 1    
    14    6   68 1    
    15    7    8 1    
    16    8    9 1    
    17    8   69 1    
    18    8   70 1    
    19    9   10 ar   
    20    9   14 ar   
    21   10   11 ar   
    22   10   71 1    
    23   11   12 ar   
    24   11   61 1    
    25   12   13 ar   
    26   12   72 1    
    27   13   14 ar   
    28   13   15 1    
    29   14   73 1    
    30   15   16 1    
    31   15   74 1    
    32   15   75 1    
    33   16   17 1    
    34   17   18 1    
    35   17   76 1    
    36   17   77 1    
    37   18   19 1    
    38   18   27 1    
    39   18   78 1    
    40   19   20 am   BACKBONE|DICT|INTERRES
    41   19   79 1    
    42   20   21 2    
    43   20   22 1    
    44   22   23 1    
    45   22   24 1    
    46   22   80 1    
    47   23   81 1    
    48   23   82 1    
    49   23   83 1    
    50   24   25 am   BACKBONE|DICT|INTERRES
    51   24   84 1    
    52   25   26 2    
    53   27   28 2    
    54   27   29 am   BACKBONE|DICT|INTERRES
    55   29   30 1    
    56   29   85 1    
    57   30   31 1    
    58   30   32 1    
    59   30   86 1    
    60   31   87 1    
    61   31   88 1    
    62   31   89 1    
    63   32   33 2    
    64   32   34 am   BACKBONE|DICT|INTERRES
    65   34   35 1    
    66   34   90 1    
    67   35   36 1    
    68   35   37 1    
    69   35   91 1    
    70   36   92 1    
    71   36   93 1    
    72   36   94 1    
    73   37   38 2    
    74   37   39 am   BACKBONE|DICT|INTERRES
    75   39   40 1    
    76   39   95 1    
    77   40   41 1    
    78   40   42 1    
    79   40   96 1    
    80   41   97 1    
    81   41   98 1    
    82   41   99 1    
    83   42   43 2    
    84   42   44 am   BACKBONE|DICT|INTERRES
    85   44   45 1    
    86   44  100 1    
    87   45   46 1    
    88   45   47 1    
    89   45  101 1    
    90   46  102 1    
    91   46  103 1    
    92   46  104 1    
    93   47   48 2    
    94   47   49 am   BACKBONE|DICT|INTERRES
    95   49   50 1    
    96   49  105 1    
    97   50   51 1    
    98   50   52 1    
    99   50  106 1    
   100   51  107 1    
   101   51  108 1    
   102   51  109 1    
   103   52   53 2    
   104   52   54 am   BACKBONE|DICT|INTERRES
   105   54   55 1    
   106   54  110 1    
   107   55   56 1    
   108   55   59 1    
   109   55  111 1    
   110   56   57 am   BACKBONE|DICT|INTERRES
   111   56   58 2    
   112   57  112 1    
   113   57  113 1    
   114   59   60 1    
   115   59  114 1    
   116   59  115 1    
   117   60   61 1    
   118   61  116 1    
   119   61  117 1    
@<TRIPOS>SUBSTRUCTURE
     1 UNK         1 GROUP             0       ****    0 ROOT    
