@<TRIPOS>MOLECULE
3R8
117   119    1
SMALL
USER_CHARGES


@<TRIPOS>ATOM
      1 CA         16.2149  -23.7607  -44.4200 C.3       0 UNK        -0.2013 
      2 C          16.8715  -25.1277  -44.3037 C.2       0 UNK         0.4866 
      3 O          18.0985  -25.2227  -44.3768 O.2       0 UNK        -0.5176 
      4 N          16.0643  -26.1843  -44.1267 N.am      1 UNK        -0.4884 
      5 CA         16.5082  -27.5738  -43.9675 C.3       1 UNK         0.0853 
      6 C6         15.3311  -28.5774  -44.0259 C.3       10 UNK        -0.0849 
      7 S7         14.9001  -28.9154  -45.7670 S.3       10 UNK        -0.2776 
      8 C8         15.7247  -30.5170  -46.0757 C.3       10 UNK         0.0316 
      9 C9         17.1736  -30.5572  -45.5968 C.ar      10 UNK        -0.0863 
     10 C10        17.5025  -31.2720  -44.4418 C.ar      10 UNK        -0.1009 
     11 C11        18.8230  -31.3356  -43.9924 C.ar      10 UNK        -0.0712 
     12 C12        19.8248  -30.6630  -44.7004 C.ar      10 UNK        -0.0894 
     13 C13        19.5151  -29.9581  -45.8695 C.ar      10 UNK        -0.0745 
     14 C14        18.1872  -29.9119  -46.3135 C.ar      10 UNK        -0.0972 
     15 C15        20.6224  -29.3150  -46.6970 C.3       10 UNK         0.0209 
     16 S16        20.4564  -27.5026  -46.8079 S.3       10 UNK        -0.2568 
     17 C17        21.9587  -26.8866  -45.9641 C.3       10 UNK        -0.0983 
     18 CA         21.6086  -25.8329  -44.8794 C.3       3 UNK         0.0876 
     19 N          20.7118  -26.3625  -43.8487 N.am      3 UNK        -0.4424 
     20 C          21.0022  -27.3157  -42.9474 C.2       2 UNK         0.4918 
     21 O          22.1105  -27.8365  -42.8194 O.2       2 UNK        -0.4875 
     22 CA         19.8392  -27.7874  -42.0677 C.3       2 UNK         0.0481 
     23 CB         19.6676  -26.8066  -40.8885 C.3       2 UNK        -0.1831 
     24 N          18.6713  -27.8696  -42.9441 N.am      2 UNK        -0.4498 
     25 C          17.3654  -27.7333  -42.6980 C.2       1 UNK         0.5027 
     26 O          16.8427  -27.6646  -41.5842 O.2       1 UNK        -0.4969 
     27 C          22.8425  -25.1453  -44.2553 C.2       3 UNK         0.5005 
     28 O          23.9709  -25.3554  -44.7051 O.2       3 UNK        -0.5279 
     29 N          22.5953  -24.3675  -43.1878 N.am      4 UNK        -0.4463 
     30 CA         23.5313  -23.6197  -42.3326 C.3       4 UNK         0.0283 
     31 CB         24.3231  -22.5727  -43.1398 C.3       4 UNK        -0.1875 
     32 C          24.4781  -24.4943  -41.4889 C.2       4 UNK         0.4949 
     33 O          24.7021  -24.1819  -40.3198 O.2       4 UNK        -0.5039 
     34 N          25.0118  -25.5670  -42.0814 N.am      5 UNK        -0.4663 
     35 CA         25.9549  -26.4988  -41.4605 C.3       5 UNK         0.0242 
     36 CB         26.6865  -27.2647  -42.5758 C.3       5 UNK        -0.1982 
     37 C          25.3054  -27.4911  -40.4800 C.2       5 UNK         0.5017 
     38 O          26.0336  -28.1050  -39.6996 O.2       5 UNK        -0.5012 
     39 N          23.9755  -27.6636  -40.5666 N.am      6 UNK        -0.4439 
     40 CA         23.1767  -28.7247  -39.9320 C.3       6 UNK         0.0297 
     41 CB         23.2363  -28.6234  -38.3936 C.3       6 UNK        -0.2006 
     42 C          23.5833  -30.1050  -40.4900 C.2       6 UNK         0.4892 
     43 O          23.7923  -31.0515  -39.7288 O.2       6 UNK        -0.5089 
     44 N          23.7307  -30.1478  -41.8243 N.am      7 UNK        -0.4243 
     45 CA         24.5210  -31.1069  -42.6052 C.3       7 UNK         0.0196 
     46 CB         24.3452  -30.7938  -44.1007 C.3       7 UNK        -0.2007 
     47 C          24.2602  -32.5971  -42.3360 C.2       7 UNK         0.5020 
     48 O          25.2106  -33.3802  -42.3207 O.2       7 UNK        -0.5147 
     49 N          22.9907  -32.9623  -42.1376 N.am      8 UNK        -0.4734 
     50 CA         22.5579  -34.3350  -41.8574 C.3       8 UNK         0.0238 
     51 CB         22.2489  -35.0575  -43.1843 C.3       8 UNK        -0.1912 
     52 C          21.3703  -34.3674  -40.8818 C.2       8 UNK         0.5038 
     53 O          20.6301  -35.3521  -40.8624 O.2       8 UNK        -0.5046 
     54 N          21.1809  -33.2850  -40.1182 N.am      9 UNK        -0.4200 
     55 CA         20.0155  -33.0711  -39.2488 C.3       9 UNK         0.0839 
     56 C          20.2803  -32.1240  -38.0458 C.2       9 UNK         0.5513 
     57 N          21.5142  -31.7199  -37.7698 N.am      9 UNK        -0.7519 
     58 O          19.3545  -31.7775  -37.3168 O.2       9 UNK        -0.4960 
     59 C59        18.7219  -32.7391  -40.0500 C.3       10 UNK        -0.0876 
     60 S60        18.8697  -31.3301  -41.2092 S.3       10 UNK        -0.2414 
     61 C61        19.1609  -32.1952  -42.7844 C.3       10 UNK         0.0169 
     62 H62        15.1292  -23.8209  -44.3475 H         1 UNK         0.0903 
     63 H63        16.5727  -23.1052  -43.6266 H         1 UNK         0.0903 
     64 H64        16.4665  -23.3055  -45.3775 H         1 UNK         0.0903 
     65 H65        15.0667  -26.0382  -44.0681 H         1 UNK         0.3096 
     66 H66        17.1619  -27.7772  -44.8185 H         1 UNK         0.1121 
     67 H67        14.4564  -28.1863  -43.5036 H         1 UNK         0.0849 
     68 H68        15.5693  -29.5181  -43.5274 H         1 UNK         0.0849 
     69 H69        15.1435  -31.3067  -45.5966 H         1 UNK         0.0865 
     70 H70        15.6918  -30.7298  -47.1452 H         1 UNK         0.0865 
     71 H71        16.7305  -31.7952  -43.8936 H         1 UNK         0.1346 
     72 H72        20.8495  -30.7197  -44.3608 H         1 UNK         0.1412 
     73 H73        17.9437  -29.3757  -47.2211 H         1 UNK         0.1426 
     74 H74        20.5801  -29.7232  -47.7077 H         1 UNK         0.0716 
     75 H75        21.6042  -29.5898  -46.3102 H         1 UNK         0.0716 
     76 H76        22.6037  -26.4487  -46.7279 H         1 UNK         0.0695 
     77 H77        22.5233  -27.7110  -45.5267 H         1 UNK         0.0695 
     78 H78        21.0559  -25.0321  -45.3741 H         1 UNK         0.0983 
     79 H79        19.7640  -25.9898  -43.8816 H         1 UNK         0.3095 
     80 H80        20.0730  -28.7821  -41.6911 H         1 UNK         0.0454 
     81 H81        18.9718  -27.1966  -40.1461 H         1 UNK         0.0851 
     82 H82        19.2990  -25.8343  -41.2174 H         1 UNK         0.0851 
     83 H83        20.6133  -26.6387  -40.3717 H         1 UNK         0.0851 
     84 H84        18.9315  -27.9599  -43.9184 H         1 UNK         0.2976 
     85 H85        21.6287  -24.3078  -42.8976 H         1 UNK         0.3116 
     86 H86        22.9042  -23.0750  -41.6248 H         1 UNK         0.0646 
     87 H87        24.9952  -23.0350  -43.8633 H         1 UNK         0.0847 
     88 H88        23.6566  -21.9020  -43.6819 H         1 UNK         0.0847 
     89 H89        24.9356  -21.9565  -42.4802 H         1 UNK         0.0847 
     90 H90        24.7797  -25.7162  -43.0615 H         1 UNK         0.3040 
     91 H91        26.6916  -25.9217  -40.8969 H         1 UNK         0.1015 
     92 H92        27.4228  -27.9549  -42.1613 H         1 UNK         0.0786 
     93 H93        27.2203  -26.5845  -43.2399 H         1 UNK         0.0786 
     94 H94        25.9945  -27.8509  -43.1820 H         1 UNK         0.0786 
     95 H95        23.4956  -27.1404  -41.2888 H         1 UNK         0.3172 
     96 H96        22.1407  -28.5624  -40.2267 H         1 UNK         0.0595 
     97 H97        24.1974  -28.9520  -37.9969 H         1 UNK         0.0839 
     98 H98        22.4669  -29.2407  -37.9347 H         1 UNK         0.0839 
     99 H99        23.0667  -27.6009  -38.0566 H         1 UNK         0.0839 
    100 H100       23.4246  -29.3227  -42.3299 H         1 UNK         0.2998 
    101 H101       25.5653  -30.9214  -42.3457 H         1 UNK         0.0822 
    102 H102       24.9505  -31.4622  -44.7150 H         1 UNK         0.0787 
    103 H103       24.6540  -29.7746  -44.3342 H         1 UNK         0.0787 
    104 H104       23.3085  -30.9091  -44.4179 H         1 UNK         0.0787 
    105 H105       22.2745  -32.2513  -42.1753 H         1 UNK         0.3055 
    106 H106       23.3635  -34.8739  -41.3532 H         1 UNK         0.1106 
    107 H107       23.1152  -35.0598  -43.8459 H         1 UNK         0.0828 
    108 H108       21.9761  -36.0996  -43.0133 H         1 UNK         0.0828 
    109 H109       21.4225  -34.5857  -43.7167 H         1 UNK         0.0828 
    110 H110       21.8559  -32.5343  -40.1469 H         1 UNK         0.2931 
    111 H111       19.8281  -34.0261  -38.7539 H         1 UNK         0.0412 
    112 H112       22.3108  -31.9709  -38.3372 H         1 UNK         0.3472 
    113 H113       21.6518  -31.1336  -36.9623 H         1 UNK         0.3472 
    114 H114       18.4054  -33.6247  -40.6018 H         1 UNK         0.0970 
    115 H115       17.8929  -32.5319  -39.3711 H         1 UNK         0.0970 
    116 H116       20.2017  -32.5107  -42.8337 H         1 UNK         0.0612 
    117 H117       18.5640  -33.1075  -42.8236 H         1 UNK         0.0612 
@<TRIPOS>BOND
     1    1    2 1    
     2    1   62 1    
     3    1   63 1    
     4    1   64 1    
     5    2    3 2    
     6    2    4 am   BACKBONE|DICT|INTERRES
     7    4    5 1    
     8    4   65 1    
     9    5    6 1    
    10    5   25 1    
    11    5   66 1    
    12    6    7 1    
    13    6   67 1    
    14    6   68 1    
    15    7    8 1    
    16    8    9 1    
    17    8   69 1    
    18    8   70 1    
    19    9   10 ar   
    20    9   14 ar   
    21   10   11 ar   
    22   10   71 1    
    23   11   12 ar   
    24   11   61 1    
    25   12   13 ar   
    26   12   72 1    
    27   13   14 ar   
    28   13   15 1    
    29   14   73 1    
    30   15   16 1    
    31   15   74 1    
    32   15   75 1    
    33   16   17 1    
    34   17   18 1    
    35   17   76 1    
    36   17   77 1    
    37   18   19 1    
    38   18   27 1    
    39   18   78 1    
    40   19   20 am   BACKBONE|DICT|INTERRES
    41   19   79 1    
    42   20   21 2    
    43   20   22 1    
    44   22   23 1    
    45   22   24 1    
    46   22   80 1    
    47   23   81 1    
    48   23   82 1    
    49   23   83 1    
    50   24   25 am   BACKBONE|DICT|INTERRES
    51   24   84 1    
    52   25   26 2    
    53   27   28 2    
    54   27   29 am   BACKBONE|DICT|INTERRES
    55   29   30 1    
    56   29   85 1    
    57   30   31 1    
    58   30   32 1    
    59   30   86 1    
    60   31   87 1    
    61   31   88 1    
    62   31   89 1    
    63   32   33 2    
    64   32   34 am   BACKBONE|DICT|INTERRES
    65   34   35 1    
    66   34   90 1    
    67   35   36 1    
    68   35   37 1    
    69   35   91 1    
    70   36   92 1    
    71   36   93 1    
    72   36   94 1    
    73   37   38 2    
    74   37   39 am   BACKBONE|DICT|INTERRES
    75   39   40 1    
    76   39   95 1    
    77   40   41 1    
    78   40   42 1    
    79   40   96 1    
    80   41   97 1    
    81   41   98 1    
    82   41   99 1    
    83   42   43 2    
    84   42   44 am   BACKBONE|DICT|INTERRES
    85   44   45 1    
    86   44  100 1    
    87   45   46 1    
    88   45   47 1    
    89   45  101 1    
    90   46  102 1    
    91   46  103 1    
    92   46  104 1    
    93   47   48 2    
    94   47   49 am   BACKBONE|DICT|INTERRES
    95   49   50 1    
    96   49  105 1    
    97   50   51 1    
    98   50   52 1    
    99   50  106 1    
   100   51  107 1    
   101   51  108 1    
   102   51  109 1    
   103   52   53 2    
   104   52   54 am   BACKBONE|DICT|INTERRES
   105   54   55 1    
   106   54  110 1    
   107   55   56 1    
   108   55   59 1    
   109   55  111 1    
   110   56   57 am   BACKBONE|DICT|INTERRES
   111   56   58 2    
   112   57  112 1    
   113   57  113 1    
   114   59   60 1    
   115   59  114 1    
   116   59  115 1    
   117   60   61 1    
   118   61  116 1    
   119   61  117 1    
@<TRIPOS>SUBSTRUCTURE
     1 UNK         1 GROUP             0       ****    0 ROOT    
