@<TRIPOS>MOLECULE
3R8
117   119    1
SMALL
USER_CHARGES


@<TRIPOS>ATOM
      1 CA         15.6447  -22.7045  -44.0041 C.3       0 UNK        -0.2013 
      2 C          16.2717  -24.0154  -44.4534 C.2       0 UNK         0.4866 
      3 O          17.0946  -24.5738  -43.7265 O.2       0 UNK        -0.5176 
      4 N          15.8920  -24.5007  -45.6470 N.am      1 UNK        -0.4884 
      5 CA         16.3568  -25.7429  -46.2811 C.3       1 UNK         0.0853 
      6 C6         15.7420  -26.9990  -45.6019 C.3       10 UNK        -0.0849 
      7 S7         16.0218  -28.5349  -46.5543 S.3       10 UNK        -0.2776 
      8 C8         15.8530  -29.8256  -45.2784 C.3       10 UNK         0.0316 
      9 C9         16.9661  -29.7639  -44.2415 C.ar      10 UNK        -0.0863 
     10 C10        18.2263  -30.3029  -44.5161 C.ar      10 UNK        -0.1009 
     11 C11        19.2465  -30.2449  -43.5603 C.ar      10 UNK        -0.0712 
     12 C12        19.0002  -29.6398  -42.3244 C.ar      10 UNK        -0.0894 
     13 C13        17.7495  -29.0787  -42.0469 C.ar      10 UNK        -0.0745 
     14 C14        16.7321  -29.1685  -43.0003 C.ar      10 UNK        -0.0972 
     15 C15        17.4806  -28.3677  -40.7273 C.3       10 UNK         0.0209 
     16 S16        17.0392  -26.6156  -40.9922 S.3       10 UNK        -0.2568 
     17 C17        18.6082  -25.7137  -40.7514 C.3       10 UNK        -0.0983 
     18 CA         19.8116  -26.2235  -41.5820 C.3       3 UNK         0.0876 
     19 N          19.5879  -26.1643  -43.0370 N.am      3 UNK        -0.4424 
     20 C          20.3950  -26.7400  -43.9470 C.2       2 UNK         0.4918 
     21 O          21.4284  -27.3363  -43.6418 O.2       2 UNK        -0.4875 
     22 CA         20.0192  -26.6026  -45.4310 C.3       2 UNK         0.0481 
     23 CB         20.6121  -27.7149  -46.3152 C.3       2 UNK        -0.1831 
     24 N          18.5711  -26.5688  -45.5901 N.am      2 UNK        -0.4498 
     25 C          17.8989  -25.7425  -46.3988 C.2       1 UNK         0.5027 
     26 O          18.4377  -24.9633  -47.1883 O.2       1 UNK        -0.4969 
     27 C          21.1184  -25.5447  -41.1167 C.2       3 UNK         0.5005 
     28 O          21.5826  -25.8436  -40.0163 O.2       3 UNK        -0.5279 
     29 N          21.7357  -24.7107  -41.9674 N.am      4 UNK        -0.4463 
     30 CA         23.0884  -24.1718  -41.7871 C.3       4 UNK         0.0283 
     31 CB         23.3943  -23.1837  -42.9239 C.3       4 UNK        -0.1875 
     32 C          24.1860  -25.2548  -41.7072 C.2       4 UNK         0.4949 
     33 O          25.2221  -25.0089  -41.0901 O.2       4 UNK        -0.5039 
     34 N          23.9387  -26.4337  -42.2996 N.am      5 UNK        -0.4663 
     35 CA         24.8009  -27.6149  -42.1941 C.3       5 UNK         0.0242 
     36 CB         24.6030  -28.4887  -43.4451 C.3       5 UNK        -0.1982 
     37 C          24.5381  -28.4408  -40.9193 C.2       5 UNK         0.5017 
     38 O          25.2829  -29.3870  -40.6630 O.2       5 UNK        -0.5012 
     39 N          23.4909  -28.0973  -40.1528 N.am      6 UNK        -0.4439 
     40 CA         22.9945  -28.8066  -38.9710 C.3       6 UNK         0.0297 
     41 CB         23.9869  -28.6648  -37.7933 C.3       6 UNK        -0.2006 
     42 C          22.5991  -30.2586  -39.3103 C.2       6 UNK         0.4892 
     43 O          21.8875  -30.4732  -40.2921 O.2       6 UNK        -0.5089 
     44 N          23.0558  -31.2236  -38.5035 N.am      7 UNK        -0.4243 
     45 CA         22.7715  -32.6520  -38.6572 C.3       7 UNK         0.0196 
     46 CB         22.9017  -33.3261  -37.2801 C.3       7 UNK        -0.2007 
     47 C          23.6618  -33.3628  -39.6952 C.2       7 UNK         0.5020 
     48 O          23.4726  -34.5610  -39.9095 O.2       7 UNK        -0.5147 
     49 N          24.6197  -32.6531  -40.3143 N.am      8 UNK        -0.4734 
     50 CA         25.6197  -33.2191  -41.2326 C.3       8 UNK         0.0238 
     51 CB         26.6496  -32.1415  -41.6054 C.3       8 UNK        -0.1912 
     52 C          25.0437  -33.8653  -42.5059 C.2       8 UNK         0.5038 
     53 O          25.7144  -34.7140  -43.0956 O.2       8 UNK        -0.5046 
     54 N          23.8249  -33.4733  -42.8991 N.am      9 UNK        -0.4200 
     55 CA         23.0619  -34.1070  -43.9832 C.3       9 UNK         0.0839 
     56 C          22.4415  -35.4913  -43.6246 C.2       9 UNK         0.5513 
     57 N          22.4702  -35.9398  -42.3741 N.am      9 UNK        -0.7519 
     58 O          21.9380  -36.1812  -44.5075 O.2       9 UNK        -0.4960 
     59 C59        22.0294  -33.1336  -44.6071 C.3       10 UNK        -0.0876 
     60 S60        20.7235  -32.5756  -43.4557 S.3       10 UNK        -0.2414 
     61 C61        20.6219  -30.8105  -43.8771 C.3       10 UNK         0.0169 
     62 H62        16.4175  -21.9495  -43.8627 H         1 UNK         0.0903 
     63 H63        14.9259  -22.3242  -44.7295 H         1 UNK         0.0903 
     64 H64        15.1278  -22.8444  -43.0551 H         1 UNK         0.0903 
     65 H65        15.2399  -23.9622  -46.2013 H         1 UNK         0.3096 
     66 H66        15.9840  -25.7131  -47.3066 H         1 UNK         0.1121 
     67 H67        14.6623  -26.8706  -45.5118 H         1 UNK         0.0849 
     68 H68        16.1061  -27.0970  -44.5801 H         1 UNK         0.0849 
     69 H69        14.8752  -29.7368  -44.8021 H         1 UNK         0.0865 
     70 H70        15.8643  -30.8032  -45.7627 H         1 UNK         0.0865 
     71 H71        18.4144  -30.7648  -45.4759 H         1 UNK         0.1346 
     72 H72        19.7923  -29.5937  -41.5900 H         1 UNK         0.1412 
     73 H73        15.7607  -28.7462  -42.7804 H         1 UNK         0.1426 
     74 H74        18.3297  -28.4452  -40.0466 H         1 UNK         0.0716 
     75 H75        16.6464  -28.8641  -40.2299 H         1 UNK         0.0716 
     76 H76        18.4217  -24.6615  -40.9746 H         1 UNK         0.0695 
     77 H77        18.8343  -25.7587  -39.6840 H         1 UNK         0.0695 
     78 H78        19.9624  -27.2729  -41.3346 H         1 UNK         0.0983 
     79 H79        18.7515  -25.6713  -43.3408 H         1 UNK         0.3095 
     80 H80        20.4478  -25.6513  -45.7519 H         1 UNK         0.0454 
     81 H81        20.1984  -28.6893  -46.0605 H         1 UNK         0.0851 
     82 H82        20.4038  -27.5318  -47.3692 H         1 UNK         0.0851 
     83 H83        21.6957  -27.7762  -46.2075 H         1 UNK         0.0851 
     84 H84        18.0452  -27.1805  -44.9792 H         1 UNK         0.2976 
     85 H85        21.2801  -24.5131  -42.8464 H         1 UNK         0.3116 
     86 H86        23.1017  -23.6238  -40.8427 H         1 UNK         0.0646 
     87 H87        24.3847  -22.7429  -42.8008 H         1 UNK         0.0847 
     88 H88        22.6777  -22.3624  -42.9421 H         1 UNK         0.0847 
     89 H89        23.3749  -23.6709  -43.8996 H         1 UNK         0.0847 
     90 H90        23.0580  -26.5703  -42.7880 H         1 UNK         0.3040 
     91 H91        25.8449  -27.2952  -42.1635 H         1 UNK         0.1015 
     92 H92        24.7767  -27.9213  -44.3594 H         1 UNK         0.0786 
     93 H93        23.5953  -28.9030  -43.4930 H         1 UNK         0.0786 
     94 H94        25.2985  -29.3288  -43.4491 H         1 UNK         0.0786 
     95 H95        22.9402  -27.2906  -40.4256 H         1 UNK         0.3172 
     96 H96        22.0701  -28.3040  -38.6833 H         1 UNK         0.0595 
     97 H97        24.2145  -27.6157  -37.6032 H         1 UNK         0.0839 
     98 H98        24.9325  -29.1737  -37.9841 H         1 UNK         0.0839 
     99 H99        23.5688  -29.0665  -36.8694 H         1 UNK         0.0839 
    100 H100       23.6520  -30.9614  -37.7317 H         1 UNK         0.2998 
    101 H101       21.7388  -32.7685  -38.9939 H         1 UNK         0.0822 
    102 H102       22.2331  -32.8701  -36.5497 H         1 UNK         0.0787 
    103 H103       22.6421  -34.3844  -37.3340 H         1 UNK         0.0787 
    104 H104       23.9194  -33.2601  -36.8929 H         1 UNK         0.0787 
    105 H105       24.6978  -31.6635  -40.1146 H         1 UNK         0.3055 
    106 H106       26.1407  -34.0102  -40.6887 H         1 UNK         0.1106 
    107 H107       27.4615  -32.5662  -42.1976 H         1 UNK         0.0828 
    108 H108       26.2000  -31.3453  -42.1988 H         1 UNK         0.0828 
    109 H109       27.0975  -31.6904  -40.7198 H         1 UNK         0.0828 
    110 H110       23.3312  -32.7889  -42.3446 H         1 UNK         0.2931 
    111 H111       23.7772  -34.3242  -44.7791 H         1 UNK         0.0412 
    112 H112       22.0689  -36.8405  -42.1670 H         1 UNK         0.3472 
    113 H113       22.8761  -35.3878  -41.6256 H         1 UNK         0.3472 
    114 H114       21.5482  -33.5932  -45.4724 H         1 UNK         0.0970 
    115 H115       22.5615  -32.2660  -45.0000 H         1 UNK         0.0970 
    116 H116       21.3955  -30.2642  -43.3345 H         1 UNK         0.0612 
    117 H117       20.8321  -30.6734  -44.9381 H         1 UNK         0.0612 
@<TRIPOS>BOND
     1    1    2 1    
     2    1   62 1    
     3    1   63 1    
     4    1   64 1    
     5    2    3 2    
     6    2    4 am   BACKBONE|DICT|INTERRES
     7    4    5 1    
     8    4   65 1    
     9    5    6 1    
    10    5   25 1    
    11    5   66 1    
    12    6    7 1    
    13    6   67 1    
    14    6   68 1    
    15    7    8 1    
    16    8    9 1    
    17    8   69 1    
    18    8   70 1    
    19    9   10 ar   
    20    9   14 ar   
    21   10   11 ar   
    22   10   71 1    
    23   11   12 ar   
    24   11   61 1    
    25   12   13 ar   
    26   12   72 1    
    27   13   14 ar   
    28   13   15 1    
    29   14   73 1    
    30   15   16 1    
    31   15   74 1    
    32   15   75 1    
    33   16   17 1    
    34   17   18 1    
    35   17   76 1    
    36   17   77 1    
    37   18   19 1    
    38   18   27 1    
    39   18   78 1    
    40   19   20 am   BACKBONE|DICT|INTERRES
    41   19   79 1    
    42   20   21 2    
    43   20   22 1    
    44   22   23 1    
    45   22   24 1    
    46   22   80 1    
    47   23   81 1    
    48   23   82 1    
    49   23   83 1    
    50   24   25 am   BACKBONE|DICT|INTERRES
    51   24   84 1    
    52   25   26 2    
    53   27   28 2    
    54   27   29 am   BACKBONE|DICT|INTERRES
    55   29   30 1    
    56   29   85 1    
    57   30   31 1    
    58   30   32 1    
    59   30   86 1    
    60   31   87 1    
    61   31   88 1    
    62   31   89 1    
    63   32   33 2    
    64   32   34 am   BACKBONE|DICT|INTERRES
    65   34   35 1    
    66   34   90 1    
    67   35   36 1    
    68   35   37 1    
    69   35   91 1    
    70   36   92 1    
    71   36   93 1    
    72   36   94 1    
    73   37   38 2    
    74   37   39 am   BACKBONE|DICT|INTERRES
    75   39   40 1    
    76   39   95 1    
    77   40   41 1    
    78   40   42 1    
    79   40   96 1    
    80   41   97 1    
    81   41   98 1    
    82   41   99 1    
    83   42   43 2    
    84   42   44 am   BACKBONE|DICT|INTERRES
    85   44   45 1    
    86   44  100 1    
    87   45   46 1    
    88   45   47 1    
    89   45  101 1    
    90   46  102 1    
    91   46  103 1    
    92   46  104 1    
    93   47   48 2    
    94   47   49 am   BACKBONE|DICT|INTERRES
    95   49   50 1    
    96   49  105 1    
    97   50   51 1    
    98   50   52 1    
    99   50  106 1    
   100   51  107 1    
   101   51  108 1    
   102   51  109 1    
   103   52   53 2    
   104   52   54 am   BACKBONE|DICT|INTERRES
   105   54   55 1    
   106   54  110 1    
   107   55   56 1    
   108   55   59 1    
   109   55  111 1    
   110   56   57 am   BACKBONE|DICT|INTERRES
   111   56   58 2    
   112   57  112 1    
   113   57  113 1    
   114   59   60 1    
   115   59  114 1    
   116   59  115 1    
   117   60   61 1    
   118   61  116 1    
   119   61  117 1    
@<TRIPOS>SUBSTRUCTURE
     1 UNK         1 GROUP             0       ****    0 ROOT    
