@<TRIPOS>MOLECULE
3R8
117   119    1
SMALL
USER_CHARGES


@<TRIPOS>ATOM
      1 CA         20.3458  -28.9767  -42.0788 C.3       0 UNK        -0.2013 
      2 C          19.0450  -28.2313  -41.8324 C.2       0 UNK         0.4866 
      3 O          18.8964  -27.5877  -40.7940 O.2       0 UNK        -0.5176 
      4 N          18.0963  -28.3134  -42.7753 N.am      1 UNK        -0.4884 
      5 CA         16.7823  -27.6545  -42.6919 C.3       1 UNK         0.0853 
      6 C6         15.7714  -28.2170  -43.7218 C.3       10 UNK        -0.0849 
      7 S7         15.5663  -30.0276  -43.6324 S.3       10 UNK        -0.2776 
      8 C8         16.0584  -30.5321  -45.3119 C.3       10 UNK         0.0316 
      9 C9         17.5698  -30.6421  -45.4539 C.ar      10 UNK        -0.0863 
     10 C10        18.2018  -31.8543  -45.1678 C.ar      10 UNK        -0.1009 
     11 C11        19.5820  -31.9952  -45.3324 C.ar      10 UNK        -0.0712 
     12 C12        20.3353  -30.9054  -45.7809 C.ar      10 UNK        -0.0894 
     13 C13        19.7177  -29.6799  -46.0568 C.ar      10 UNK        -0.0745 
     14 C14        18.3325  -29.5570  -45.8987 C.ar      10 UNK        -0.0972 
     15 C15        20.5424  -28.4965  -46.5460 C.3       10 UNK         0.0209 
     16 S16        21.6487  -27.8723  -45.2428 S.3       10 UNK        -0.2568 
     17 C17        22.1628  -26.2510  -45.9196 C.3       10 UNK        -0.0983 
     18 CA         21.7730  -25.0379  -45.0296 C.3       3 UNK         0.0876 
     19 N          20.3379  -25.0198  -44.7396 N.am      3 UNK        -0.4424 
     20 C          19.6780  -24.0080  -44.1565 C.2       2 UNK         0.4918 
     21 O          20.1911  -22.9219  -43.8851 O.2       2 UNK        -0.4875 
     22 CA         18.1992  -24.2393  -43.8152 C.3       2 UNK         0.0481 
     23 CB         17.2952  -23.7503  -44.9627 C.3       2 UNK        -0.1831 
     24 N          17.9343  -25.6465  -43.5102 N.am      2 UNK        -0.4498 
     25 C          16.8684  -26.1209  -42.8544 C.2       1 UNK         0.5027 
     26 O          15.9638  -25.4123  -42.4100 O.2       1 UNK        -0.4969 
     27 C          22.6170  -24.9854  -43.7358 C.2       3 UNK         0.5005 
     28 O          22.2469  -25.6013  -42.7341 O.2       3 UNK        -0.5279 
     29 N          23.7527  -24.2771  -43.7924 N.am      4 UNK        -0.4463 
     30 CA         24.7329  -24.1982  -42.7019 C.3       4 UNK         0.0283 
     31 CB         25.4879  -22.8622  -42.8067 C.3       4 UNK        -0.1875 
     32 C          25.7258  -25.3768  -42.7047 C.2       4 UNK         0.4949 
     33 O          26.4731  -25.5399  -41.7406 O.2       4 UNK        -0.5039 
     34 N          25.7375  -26.1610  -43.7911 N.am      5 UNK        -0.4663 
     35 CA         26.6551  -27.2775  -44.0289 C.3       5 UNK         0.0242 
     36 CB         26.6647  -27.5830  -45.5369 C.3       5 UNK        -0.1982 
     37 C          26.3329  -28.5527  -43.2276 C.2       5 UNK         0.5017 
     38 O          27.1516  -29.4735  -43.2326 O.2       5 UNK        -0.5012 
     39 N          25.1638  -28.6092  -42.5796 N.am      6 UNK        -0.4439 
     40 CA         24.6873  -29.7549  -41.8112 C.3       6 UNK         0.0297 
     41 CB         23.8603  -30.6725  -42.7307 C.3       6 UNK        -0.2006 
     42 C          23.8545  -29.2762  -40.6174 C.2       6 UNK         0.4892 
     43 O          23.4221  -28.1228  -40.5853 O.2       6 UNK        -0.5089 
     44 N          23.6246  -30.1932  -39.6750 N.am      7 UNK        -0.4243 
     45 CA         22.7343  -30.0532  -38.5286 C.3       7 UNK         0.0196 
     46 CB         23.4847  -29.4246  -37.3420 C.3       7 UNK        -0.2007 
     47 C          22.2277  -31.4591  -38.1906 C.2       7 UNK         0.5020 
     48 O          22.9742  -32.4232  -38.3802 O.2       7 UNK        -0.5147 
     49 N          20.9724  -31.5550  -37.7256 N.am      8 UNK        -0.4734 
     50 CA         20.2330  -32.8022  -37.4522 C.3       8 UNK         0.0238 
     51 CB         20.8221  -33.5282  -36.2233 C.3       8 UNK        -0.1912 
     52 C          20.1226  -33.7177  -38.6934 C.2       8 UNK         0.5038 
     53 O          20.2190  -34.9409  -38.5780 O.2       8 UNK        -0.5046 
     54 N          19.9565  -33.0867  -39.8628 N.am      9 UNK        -0.4200 
     55 CA         19.9771  -33.7162  -41.1918 C.3       9 UNK         0.0839 
     56 C          18.6968  -34.5254  -41.5533 C.2       9 UNK         0.5513 
     57 N          17.5974  -34.3867  -40.8216 N.am      9 UNK        -0.7519 
     58 O          18.7031  -35.3024  -42.5036 O.2       9 UNK        -0.4960 
     59 C59        20.3258  -32.6561  -42.2716 C.3       10 UNK        -0.0876 
     60 S60        21.3822  -33.2814  -43.6214 S.3       10 UNK        -0.2414 
     61 C61        20.2439  -33.3365  -45.0421 C.3       10 UNK         0.0169 
     62 H62        21.1535  -28.2634  -42.2432 H         1 UNK         0.0903 
     63 H63        20.6035  -29.5792  -41.2094 H         1 UNK         0.0903 
     64 H64        20.2855  -29.6293  -42.9497 H         1 UNK         0.0903 
     65 H65        18.2412  -28.9026  -43.5851 H         1 UNK         0.3096 
     66 H66        16.3822  -27.8425  -41.6927 H         1 UNK         0.1121 
     67 H67        14.7864  -27.7750  -43.5571 H         1 UNK         0.0849 
     68 H68        16.0553  -27.9269  -44.7345 H         1 UNK         0.0849 
     69 H69        15.6008  -31.4986  -45.5293 H         1 UNK         0.0865 
     70 H70        15.6497  -29.8417  -46.0514 H         1 UNK         0.0865 
     71 H71        17.6138  -32.6952  -44.8247 H         1 UNK         0.1346 
     72 H72        21.4046  -31.0085  -45.9070 H         1 UNK         0.1412 
     73 H73        17.8465  -28.6205  -46.1355 H         1 UNK         0.1426 
     74 H74        19.8881  -27.6914  -46.8838 H         1 UNK         0.0716 
     75 H75        21.1371  -28.7964  -47.4099 H         1 UNK         0.0716 
     76 H76        23.2410  -26.2769  -46.0875 H         1 UNK         0.0695 
     77 H77        21.7245  -26.1227  -46.9104 H         1 UNK         0.0695 
     78 H78        21.9877  -24.1295  -45.5972 H         1 UNK         0.0983 
     79 H79        19.8504  -25.8688  -44.9714 H         1 UNK         0.3095 
     80 H80        17.9812  -23.6496  -42.9222 H         1 UNK         0.0454 
     81 H81        16.2407  -23.7996  -44.6916 H         1 UNK         0.0851 
     82 H82        17.4362  -24.3426  -45.8674 H         1 UNK         0.0851 
     83 H83        17.5118  -22.7114  -45.2149 H         1 UNK         0.0851 
     84 H84        18.6596  -26.3092  -43.7381 H         1 UNK         0.2976 
     85 H85        23.9840  -23.7816  -44.6427 H         1 UNK         0.3116 
     86 H86        24.2084  -24.2155  -41.7438 H         1 UNK         0.0646 
     87 H87        26.1997  -22.7506  -41.9875 H         1 UNK         0.0847 
     88 H88        24.8045  -22.0145  -42.7551 H         1 UNK         0.0847 
     89 H89        26.0505  -22.7857  -43.7380 H         1 UNK         0.0847 
     90 H90        25.0805  -25.9551  -44.5280 H         1 UNK         0.3040 
     91 H91        27.6595  -26.9635  -43.7357 H         1 UNK         0.1015 
     92 H92        26.9639  -26.7105  -46.1182 H         1 UNK         0.0786 
     93 H93        25.6833  -27.9036  -45.8895 H         1 UNK         0.0786 
     94 H94        27.3708  -28.3811  -45.7712 H         1 UNK         0.0786 
     95 H95        24.5676  -27.7911  -42.5470 H         1 UNK         0.3172 
     96 H96        25.5387  -30.3127  -41.4149 H         1 UNK         0.0595 
     97 H97        23.5022  -31.5510  -42.1934 H         1 UNK         0.0839 
     98 H98        24.4538  -31.0327  -43.5710 H         1 UNK         0.0839 
     99 H99        22.9884  -30.1581  -43.1373 H         1 UNK         0.0839 
    100 H100       23.9907  -31.1318  -39.7855 H         1 UNK         0.2998 
    101 H101       21.8854  -29.4229  -38.8038 H         1 UNK         0.0822 
    102 H102       23.8504  -28.4275  -37.5884 H         1 UNK         0.0787 
    103 H103       22.8312  -29.3258  -36.4744 H         1 UNK         0.0787 
    104 H104       24.3406  -30.0303  -37.0410 H         1 UNK         0.0787 
    105 H105       20.4482  -30.7004  -37.5890 H         1 UNK         0.3055 
    106 H106       19.2108  -32.5128  -37.2022 H         1 UNK         0.1106 
    107 H107       21.8269  -33.9049  -36.4171 H         1 UNK         0.0828 
    108 H108       20.8730  -32.8671  -35.3583 H         1 UNK         0.0828 
    109 H109       20.2053  -34.3821  -35.9402 H         1 UNK         0.0828 
    110 H110       19.8564  -32.0838  -39.8459 H         1 UNK         0.2931 
    111 H111       20.7912  -34.4434  -41.1634 H         1 UNK         0.0412 
    112 H112       16.7762  -34.9208  -41.0593 H         1 UNK         0.3472 
    113 H113       17.5811  -33.7598  -40.0336 H         1 UNK         0.3472 
    114 H114       20.9127  -31.8544  -41.8238 H         1 UNK         0.0970 
    115 H115       19.4277  -32.1705  -42.6546 H         1 UNK         0.0970 
    116 H116       19.4946  -34.1084  -44.8615 H         1 UNK         0.0612 
    117 H117       20.8015  -33.6551  -45.9237 H         1 UNK         0.0612 
@<TRIPOS>BOND
     1    1    2 1    
     2    1   62 1    
     3    1   63 1    
     4    1   64 1    
     5    2    3 2    
     6    2    4 am   BACKBONE|DICT|INTERRES
     7    4    5 1    
     8    4   65 1    
     9    5    6 1    
    10    5   25 1    
    11    5   66 1    
    12    6    7 1    
    13    6   67 1    
    14    6   68 1    
    15    7    8 1    
    16    8    9 1    
    17    8   69 1    
    18    8   70 1    
    19    9   10 ar   
    20    9   14 ar   
    21   10   11 ar   
    22   10   71 1    
    23   11   12 ar   
    24   11   61 1    
    25   12   13 ar   
    26   12   72 1    
    27   13   14 ar   
    28   13   15 1    
    29   14   73 1    
    30   15   16 1    
    31   15   74 1    
    32   15   75 1    
    33   16   17 1    
    34   17   18 1    
    35   17   76 1    
    36   17   77 1    
    37   18   19 1    
    38   18   27 1    
    39   18   78 1    
    40   19   20 am   BACKBONE|DICT|INTERRES
    41   19   79 1    
    42   20   21 2    
    43   20   22 1    
    44   22   23 1    
    45   22   24 1    
    46   22   80 1    
    47   23   81 1    
    48   23   82 1    
    49   23   83 1    
    50   24   25 am   BACKBONE|DICT|INTERRES
    51   24   84 1    
    52   25   26 2    
    53   27   28 2    
    54   27   29 am   BACKBONE|DICT|INTERRES
    55   29   30 1    
    56   29   85 1    
    57   30   31 1    
    58   30   32 1    
    59   30   86 1    
    60   31   87 1    
    61   31   88 1    
    62   31   89 1    
    63   32   33 2    
    64   32   34 am   BACKBONE|DICT|INTERRES
    65   34   35 1    
    66   34   90 1    
    67   35   36 1    
    68   35   37 1    
    69   35   91 1    
    70   36   92 1    
    71   36   93 1    
    72   36   94 1    
    73   37   38 2    
    74   37   39 am   BACKBONE|DICT|INTERRES
    75   39   40 1    
    76   39   95 1    
    77   40   41 1    
    78   40   42 1    
    79   40   96 1    
    80   41   97 1    
    81   41   98 1    
    82   41   99 1    
    83   42   43 2    
    84   42   44 am   BACKBONE|DICT|INTERRES
    85   44   45 1    
    86   44  100 1    
    87   45   46 1    
    88   45   47 1    
    89   45  101 1    
    90   46  102 1    
    91   46  103 1    
    92   46  104 1    
    93   47   48 2    
    94   47   49 am   BACKBONE|DICT|INTERRES
    95   49   50 1    
    96   49  105 1    
    97   50   51 1    
    98   50   52 1    
    99   50  106 1    
   100   51  107 1    
   101   51  108 1    
   102   51  109 1    
   103   52   53 2    
   104   52   54 am   BACKBONE|DICT|INTERRES
   105   54   55 1    
   106   54  110 1    
   107   55   56 1    
   108   55   59 1    
   109   55  111 1    
   110   56   57 am   BACKBONE|DICT|INTERRES
   111   56   58 2    
   112   57  112 1    
   113   57  113 1    
   114   59   60 1    
   115   59  114 1    
   116   59  115 1    
   117   60   61 1    
   118   61  116 1    
   119   61  117 1    
@<TRIPOS>SUBSTRUCTURE
     1 UNK         1 GROUP             0       ****    0 ROOT    
