@<TRIPOS>MOLECULE
3R8
117   119    1
SMALL
USER_CHARGES


@<TRIPOS>ATOM
      1 CA         14.6087  -25.6617  -40.0676 C.3       0 UNK        -0.2013 
      2 C          13.6384  -26.5526  -40.8401 C.2       0 UNK         0.4866 
      3 O          12.6603  -27.0217  -40.2608 O.2       0 UNK        -0.5176 
      4 N          13.8455  -26.8038  -42.1400 N.am      1 UNK        -0.4884 
      5 CA         14.9984  -26.4017  -42.9550 C.3       1 UNK         0.0853 
      6 C6         14.6886  -26.5228  -44.4709 C.3       10 UNK        -0.0849 
      7 S7         14.1733  -28.1969  -44.9970 S.3       10 UNK        -0.2776 
      8 C8         15.1225  -28.4224  -46.5379 C.3       10 UNK         0.0316 
      9 C9         16.6143  -28.6822  -46.3340 C.ar      10 UNK        -0.0863 
     10 C10        17.0637  -29.6637  -45.4418 C.ar      10 UNK        -0.1009 
     11 C11        18.4247  -29.9783  -45.3505 C.ar      10 UNK        -0.0712 
     12 C12        19.3376  -29.3093  -46.1712 C.ar      10 UNK        -0.0894 
     13 C13        18.9084  -28.3121  -47.0503 C.ar      10 UNK        -0.0745 
     14 C14        17.5475  -27.9988  -47.1209 C.ar      10 UNK        -0.0972 
     15 C15        19.9026  -27.6129  -47.9669 C.3       10 UNK         0.0209 
     16 S16        20.6510  -26.1472  -47.1891 S.3       10 UNK        -0.2568 
     17 C17        22.0122  -26.8760  -46.2158 C.3       10 UNK        -0.0983 
     18 CA         21.9542  -26.4864  -44.7175 C.3       3 UNK         0.0876 
     19 N          20.8082  -27.0695  -44.0248 N.am      3 UNK        -0.4424 
     20 C          19.7270  -26.4048  -43.6160 C.2       2 UNK         0.4918 
     21 O          19.5018  -25.2158  -43.8594 O.2       2 UNK        -0.4875 
     22 CA         18.7466  -27.1953  -42.7460 C.3       2 UNK         0.0481 
     23 CB         19.2100  -27.2305  -41.2772 C.3       2 UNK        -0.1831 
     24 N          17.4300  -26.5850  -42.8643 N.am      2 UNK        -0.4498 
     25 C          16.2724  -27.1864  -42.5783 C.2       1 UNK         0.5027 
     26 O          16.1858  -28.3042  -42.0626 O.2       1 UNK        -0.4969 
     27 C          23.2105  -26.9753  -43.9806 C.2       3 UNK         0.5005 
     28 O          23.1759  -28.0351  -43.3481 O.2       3 UNK        -0.5279 
     29 N          24.3117  -26.2215  -44.0972 N.am      4 UNK        -0.4463 
     30 CA         25.5926  -26.4466  -43.4119 C.3       4 UNK         0.0283 
     31 CB         26.3999  -25.1345  -43.4289 C.3       4 UNK        -0.1875 
     32 C          26.4155  -27.6468  -43.9364 C.2       4 UNK         0.4949 
     33 O          27.6458  -27.5859  -43.9504 O.2       4 UNK        -0.5039 
     34 N          25.7355  -28.7259  -44.3403 N.am      5 UNK        -0.4663 
     35 CA         26.3357  -30.0169  -44.6862 C.3       5 UNK         0.0242 
     36 CB         25.3357  -30.8259  -45.5283 C.3       5 UNK        -0.1982 
     37 C          26.7473  -30.8058  -43.4306 C.2       5 UNK         0.5017 
     38 O          27.7257  -31.5519  -43.4723 O.2       5 UNK        -0.5012 
     39 N          25.9983  -30.6070  -42.3411 N.am      6 UNK        -0.4439 
     40 CA         26.1932  -31.1572  -41.0058 C.3       6 UNK         0.0297 
     41 CB         25.8707  -32.6636  -40.9870 C.3       6 UNK        -0.2006 
     42 C          25.2729  -30.3749  -40.0604 C.2       6 UNK         0.4892 
     43 O          24.3539  -29.6986  -40.5340 O.2       6 UNK        -0.5089 
     44 N          25.5228  -30.4814  -38.7484 N.am      7 UNK        -0.4243 
     45 CA         24.7370  -29.8426  -37.6868 C.3       7 UNK         0.0196 
     46 CB         25.3813  -30.1450  -36.3232 C.3       7 UNK        -0.2007 
     47 C          23.2693  -30.3019  -37.7244 C.2       7 UNK         0.5020 
     48 O          22.9919  -31.4640  -37.4228 O.2       7 UNK        -0.5147 
     49 N          22.3785  -29.4024  -38.1685 N.am      8 UNK        -0.4734 
     50 CA         20.9530  -29.6346  -38.4510 C.3       8 UNK         0.0238 
     51 CB         20.1693  -29.8443  -37.1376 C.3       8 UNK        -0.1912 
     52 C          20.7096  -30.7641  -39.4778 C.2       8 UNK         0.5038 
     53 O          19.7124  -31.4800  -39.3709 O.2       8 UNK        -0.5046 
     54 N          21.6431  -30.9168  -40.4292 N.am      9 UNK        -0.4200 
     55 CA         21.7279  -32.0175  -41.4047 C.3       9 UNK         0.0839 
     56 C          22.0651  -33.4074  -40.7801 C.2       9 UNK         0.5513 
     57 N          22.4945  -33.4991  -39.5265 N.am      9 UNK        -0.7519 
     58 O          21.9740  -34.4279  -41.4577 O.2       9 UNK        -0.4960 
     59 C59        20.5170  -32.0885  -42.3800 C.3       10 UNK        -0.0876 
     60 S60        20.2595  -30.5497  -43.3194 S.3       10 UNK        -0.2414 
     61 C61        18.8989  -31.0809  -44.4105 C.3       10 UNK         0.0169 
     62 H62        14.2159  -25.4456  -39.0742 H         1 UNK         0.0903 
     63 H63        15.5721  -26.1541  -39.9399 H         1 UNK         0.0903 
     64 H64        14.7604  -24.7079  -40.5714 H         1 UNK         0.0903 
     65 H65        13.2052  -27.4248  -42.6150 H         1 UNK         0.3096 
     66 H66        15.1947  -25.3468  -42.7546 H         1 UNK         0.1121 
     67 H67        13.8849  -25.8326  -44.7324 H         1 UNK         0.0849 
     68 H68        15.5484  -26.2004  -45.0619 H         1 UNK         0.0849 
     69 H69        14.7030  -29.2738  -47.0754 H         1 UNK         0.0865 
     70 H70        14.9605  -27.5539  -47.1785 H         1 UNK         0.0865 
     71 H71        16.3467  -30.2010  -44.8359 H         1 UNK         0.1346 
     72 H72        20.3847  -29.5728  -46.1259 H         1 UNK         0.1412 
     73 H73        17.2123  -27.2464  -47.8222 H         1 UNK         0.1426 
     74 H74        19.3976  -27.2959  -48.8806 H         1 UNK         0.0716 
     75 H75        20.6825  -28.3063  -48.2855 H         1 UNK         0.0716 
     76 H76        22.0217  -27.9605  -46.3305 H         1 UNK         0.0695 
     77 H77        22.9420  -26.5228  -46.6657 H         1 UNK         0.0695 
     78 H78        21.9262  -25.3978  -44.6303 H         1 UNK         0.0983 
     79 H79        20.9531  -28.0235  -43.7165 H         1 UNK         0.3095 
     80 H80        18.6840  -28.2107  -43.1343 H         1 UNK         0.0454 
     81 H81        20.2092  -27.6604  -41.1962 H         1 UNK         0.0851 
     82 H82        19.2458  -26.2310  -40.8428 H         1 UNK         0.0851 
     83 H83        18.5478  -27.8413  -40.6637 H         1 UNK         0.0851 
     84 H84        17.4441  -25.6735  -43.3067 H         1 UNK         0.2976 
     85 H85        24.2670  -25.3975  -44.6804 H         1 UNK         0.3116 
     86 H86        25.3672  -26.6744  -42.3677 H         1 UNK         0.0646 
     87 H87        27.3145  -25.2256  -42.8413 H         1 UNK         0.0847 
     88 H88        25.8302  -24.3097  -43.0004 H         1 UNK         0.0847 
     89 H89        26.6902  -24.8539  -44.4420 H         1 UNK         0.0847 
     90 H90        24.7255  -28.6950  -44.2299 H         1 UNK         0.3040 
     91 H91        27.2339  -29.8431  -45.2833 H         1 UNK         0.1015 
     92 H92        25.0770  -30.3010  -46.4481 H         1 UNK         0.0786 
     93 H93        24.4115  -31.0216  -44.9825 H         1 UNK         0.0786 
     94 H94        25.7575  -31.7907  -45.8137 H         1 UNK         0.0786 
     95 H95        25.2246  -29.9516  -42.3863 H         1 UNK         0.3172 
     96 H96        27.2282  -30.9924  -40.7000 H         1 UNK         0.0595 
     97 H97        26.5882  -33.2313  -41.5793 H         1 UNK         0.0839 
     98 H98        24.8787  -32.8658  -41.3887 H         1 UNK         0.0839 
     99 H99        25.9023  -33.0670  -39.9742 H         1 UNK         0.0839 
    100 H100       26.2807  -31.0770  -38.4475 H         1 UNK         0.2998 
    101 H101       24.7750  -28.7629  -37.8460 H         1 UNK         0.0822 
    102 H102       26.3990  -29.7580  -36.2696 H         1 UNK         0.0787 
    103 H103       24.8157  -29.6806  -35.5142 H         1 UNK         0.0787 
    104 H104       25.4180  -31.2165  -36.1210 H         1 UNK         0.0787 
    105 H105       22.7284  -28.4921  -38.4370 H         1 UNK         0.3055 
    106 H106       20.5760  -28.7228  -38.9159 H         1 UNK         0.1106 
    107 H107       20.4489  -30.7759  -36.6445 H         1 UNK         0.0828 
    108 H108       20.3430  -29.0282  -36.4365 H         1 UNK         0.0828 
    109 H109       19.0953  -29.8853  -37.3238 H         1 UNK         0.0828 
    110 H110       22.4468  -30.2962  -40.4200 H         1 UNK         0.2931 
    111 H111       22.6036  -31.7773  -42.0090 H         1 UNK         0.0412 
    112 H112       22.7152  -34.4085  -39.1538 H         1 UNK         0.3472 
    113 H113       22.5795  -32.6824  -38.9303 H         1 UNK         0.3472 
    114 H114       19.5999  -32.3353  -41.8433 H         1 UNK         0.0970 
    115 H115       20.6649  -32.8895  -43.1067 H         1 UNK         0.0970 
    116 H116       18.0739  -31.4333  -43.7893 H         1 UNK         0.0612 
    117 H117       19.2287  -31.9323  -45.0074 H         1 UNK         0.0612 
@<TRIPOS>BOND
     1    1    2 1    
     2    1   62 1    
     3    1   63 1    
     4    1   64 1    
     5    2    3 2    
     6    2    4 am   BACKBONE|DICT|INTERRES
     7    4    5 1    
     8    4   65 1    
     9    5    6 1    
    10    5   25 1    
    11    5   66 1    
    12    6    7 1    
    13    6   67 1    
    14    6   68 1    
    15    7    8 1    
    16    8    9 1    
    17    8   69 1    
    18    8   70 1    
    19    9   10 ar   
    20    9   14 ar   
    21   10   11 ar   
    22   10   71 1    
    23   11   12 ar   
    24   11   61 1    
    25   12   13 ar   
    26   12   72 1    
    27   13   14 ar   
    28   13   15 1    
    29   14   73 1    
    30   15   16 1    
    31   15   74 1    
    32   15   75 1    
    33   16   17 1    
    34   17   18 1    
    35   17   76 1    
    36   17   77 1    
    37   18   19 1    
    38   18   27 1    
    39   18   78 1    
    40   19   20 am   BACKBONE|DICT|INTERRES
    41   19   79 1    
    42   20   21 2    
    43   20   22 1    
    44   22   23 1    
    45   22   24 1    
    46   22   80 1    
    47   23   81 1    
    48   23   82 1    
    49   23   83 1    
    50   24   25 am   BACKBONE|DICT|INTERRES
    51   24   84 1    
    52   25   26 2    
    53   27   28 2    
    54   27   29 am   BACKBONE|DICT|INTERRES
    55   29   30 1    
    56   29   85 1    
    57   30   31 1    
    58   30   32 1    
    59   30   86 1    
    60   31   87 1    
    61   31   88 1    
    62   31   89 1    
    63   32   33 2    
    64   32   34 am   BACKBONE|DICT|INTERRES
    65   34   35 1    
    66   34   90 1    
    67   35   36 1    
    68   35   37 1    
    69   35   91 1    
    70   36   92 1    
    71   36   93 1    
    72   36   94 1    
    73   37   38 2    
    74   37   39 am   BACKBONE|DICT|INTERRES
    75   39   40 1    
    76   39   95 1    
    77   40   41 1    
    78   40   42 1    
    79   40   96 1    
    80   41   97 1    
    81   41   98 1    
    82   41   99 1    
    83   42   43 2    
    84   42   44 am   BACKBONE|DICT|INTERRES
    85   44   45 1    
    86   44  100 1    
    87   45   46 1    
    88   45   47 1    
    89   45  101 1    
    90   46  102 1    
    91   46  103 1    
    92   46  104 1    
    93   47   48 2    
    94   47   49 am   BACKBONE|DICT|INTERRES
    95   49   50 1    
    96   49  105 1    
    97   50   51 1    
    98   50   52 1    
    99   50  106 1    
   100   51  107 1    
   101   51  108 1    
   102   51  109 1    
   103   52   53 2    
   104   52   54 am   BACKBONE|DICT|INTERRES
   105   54   55 1    
   106   54  110 1    
   107   55   56 1    
   108   55   59 1    
   109   55  111 1    
   110   56   57 am   BACKBONE|DICT|INTERRES
   111   56   58 2    
   112   57  112 1    
   113   57  113 1    
   114   59   60 1    
   115   59  114 1    
   116   59  115 1    
   117   60   61 1    
   118   61  116 1    
   119   61  117 1    
@<TRIPOS>SUBSTRUCTURE
     1 UNK         1 GROUP             0       ****    0 ROOT    
