@<TRIPOS>MOLECULE
3R8
117   119    1
SMALL
USER_CHARGES


@<TRIPOS>ATOM
      1 CA         15.9571  -24.1815  -49.8630 C.3       0 UNK        -0.2013 
      2 C          16.8634  -25.2364  -49.2460 C.2       0 UNK         0.4866 
      3 O          17.8977  -25.5700  -49.8256 O.2       0 UNK        -0.5176 
      4 N          16.4796  -25.7708  -48.0804 N.am      1 UNK        -0.4884 
      5 CA         17.2515  -26.7598  -47.3216 C.3       1 UNK         0.0853 
      6 C6         16.4134  -27.3905  -46.1840 C.3       10 UNK        -0.0849 
      7 S7         15.1033  -28.5048  -46.7828 S.3       10 UNK        -0.2776 
      8 C8         14.2317  -28.9004  -45.2255 C.3       10 UNK         0.0316 
      9 C9         15.1836  -29.2694  -44.0915 C.ar      10 UNK        -0.0863 
     10 C10        15.9505  -30.4357  -44.1616 C.ar      10 UNK        -0.1009 
     11 C11        16.8582  -30.7619  -43.1486 C.ar      10 UNK        -0.0712 
     12 C12        16.9735  -29.9076  -42.0428 C.ar      10 UNK        -0.0894 
     13 C13        16.2126  -28.7360  -41.9557 C.ar      10 UNK        -0.0745 
     14 C14        15.3184  -28.4264  -42.9845 C.ar      10 UNK        -0.0972 
     15 C15        16.3119  -27.8110  -40.7439 C.3       10 UNK         0.0209 
     16 S16        18.0058  -27.5771  -40.1035 S.3       10 UNK        -0.2568 
     17 C17        18.8021  -26.5960  -41.4230 C.3       10 UNK        -0.0983 
     18 CA         20.2023  -27.1456  -41.8190 C.3       3 UNK         0.0876 
     19 N          20.5773  -26.7477  -43.1745 N.am      3 UNK        -0.4424 
     20 C          20.2274  -27.4007  -44.2833 C.2       2 UNK         0.4918 
     21 O          19.5917  -28.4571  -44.2856 O.2       2 UNK        -0.4875 
     22 CA         20.6534  -26.7771  -45.6229 C.3       2 UNK         0.0481 
     23 CB         21.9266  -27.4472  -46.1624 C.3       2 UNK        -0.1831 
     24 N          19.5626  -26.9757  -46.5749 N.am      2 UNK        -0.4498 
     25 C          18.5220  -26.1437  -46.7040 C.2       1 UNK         0.5027 
     26 O          18.5029  -24.9863  -46.2756 O.2       1 UNK        -0.4969 
     27 C          21.3272  -26.7228  -40.8527 C.2       3 UNK         0.5005 
     28 O          22.3279  -26.1470  -41.2917 O.2       3 UNK        -0.5279 
     29 N          21.1358  -27.0336  -39.5626 N.am      4 UNK        -0.4463 
     30 CA         22.0773  -26.9270  -38.4402 C.3       4 UNK         0.0283 
     31 CB         22.6555  -25.5016  -38.3048 C.3       4 UNK        -0.1875 
     32 C          23.1842  -27.9941  -38.5057 C.2       4 UNK         0.4949 
     33 O          23.3191  -28.7014  -39.5069 O.2       4 UNK        -0.5039 
     34 N          23.9661  -28.0984  -37.4224 N.am      5 UNK        -0.4663 
     35 CA         25.0269  -29.0987  -37.2304 C.3       5 UNK         0.0242 
     36 CB         25.5802  -28.9745  -35.8014 C.3       5 UNK        -0.1982 
     37 C          26.1735  -29.0359  -38.2573 C.2       5 UNK         0.5017 
     38 O          26.8710  -30.0338  -38.4386 O.2       5 UNK        -0.5012 
     39 N          26.3355  -27.8820  -38.9199 N.am      6 UNK        -0.4439 
     40 CA         27.2586  -27.6791  -40.0380 C.3       6 UNK         0.0297 
     41 CB         27.3427  -26.1781  -40.3589 C.3       6 UNK        -0.2006 
     42 C          26.8701  -28.4764  -41.2982 C.2       6 UNK         0.4892 
     43 O          27.7611  -28.8560  -42.0590 O.2       6 UNK        -0.5089 
     44 N          25.5653  -28.7139  -41.4943 N.am      7 UNK        -0.4243 
     45 CA         25.0225  -29.5181  -42.5891 C.3       7 UNK         0.0196 
     46 CB         23.7861  -28.8162  -43.1738 C.3       7 UNK        -0.2007 
     47 C          24.6542  -30.9240  -42.1006 C.2       7 UNK         0.5020 
     48 O          24.9598  -31.9006  -42.7853 O.2       7 UNK        -0.5147 
     49 N          23.9751  -30.9983  -40.9438 N.am      8 UNK        -0.4734 
     50 CA         23.4867  -32.2067  -40.2607 C.3       8 UNK         0.0238 
     51 CB         24.6745  -33.0025  -39.6807 C.3       8 UNK        -0.1912 
     52 C          22.5509  -33.0890  -41.1170 C.2       8 UNK         0.5038 
     53 O          22.4406  -34.2887  -40.8574 O.2       8 UNK        -0.5046 
     54 N          21.9144  -32.4824  -42.1293 N.am      9 UNK        -0.4200 
     55 CA         21.1228  -33.1357  -43.1855 C.3       9 UNK         0.0839 
     56 C          21.9450  -34.0978  -44.0990 C.2       9 UNK         0.5513 
     57 N          23.2656  -33.9714  -44.1746 N.am      9 UNK        -0.7519 
     58 O          21.3799  -34.9519  -44.7776 O.2       9 UNK        -0.4960 
     59 C59        19.7990  -33.7655  -42.6614 C.3       10 UNK        -0.0876 
     60 S60        18.7103  -32.5257  -41.8826 S.3       10 UNK        -0.2414 
     61 C61        17.7131  -32.0187  -43.3274 C.3       10 UNK         0.0169 
     62 H62        15.6251  -24.5026  -50.8500 H         1 UNK         0.0903 
     63 H63        15.0736  -23.9947  -49.2526 H         1 UNK         0.0903 
     64 H64        16.4972  -23.2416  -49.9739 H         1 UNK         0.0903 
     65 H65        15.6255  -25.4550  -47.6436 H         1 UNK         0.3096 
     66 H66        17.5578  -27.5483  -48.0133 H         1 UNK         0.1121 
     67 H67        17.0552  -27.9835  -45.5280 H         1 UNK         0.0849 
     68 H68        15.9693  -26.6174  -45.5534 H         1 UNK         0.0849 
     69 H69        13.6122  -28.0470  -44.9453 H         1 UNK         0.0865 
     70 H70        13.5441  -29.7284  -45.4032 H         1 UNK         0.0865 
     71 H71        15.8587  -31.0786  -45.0268 H         1 UNK         0.1346 
     72 H72        17.6643  -30.1374  -41.2457 H         1 UNK         0.1412 
     73 H73        14.7269  -27.5227  -42.9249 H         1 UNK         0.1426 
     74 H74        15.6974  -28.2291  -39.9458 H         1 UNK         0.0716 
     75 H75        15.8923  -26.8299  -40.9722 H         1 UNK         0.0716 
     76 H76        18.1419  -26.6104  -42.2919 H         1 UNK         0.0695 
     77 H77        18.8577  -25.5506  -41.1135 H         1 UNK         0.0695 
     78 H78        20.1751  -28.2379  -41.7894 H         1 UNK         0.0983 
     79 H79        21.1882  -25.9422  -43.2203 H         1 UNK         0.3095 
     80 H80        20.8480  -25.7107  -45.4894 H         1 UNK         0.0454 
     81 H81        21.8195  -28.5306  -46.2315 H         1 UNK         0.0851 
     82 H82        22.1827  -27.0719  -47.1532 H         1 UNK         0.0851 
     83 H83        22.7771  -27.2419  -45.5129 H         1 UNK         0.0851 
     84 H84        19.4603  -27.9217  -46.9150 H         1 UNK         0.2976 
     85 H85        20.2599  -27.4902  -39.3388 H         1 UNK         0.3116 
     86 H86        21.4901  -27.1368  -37.5448 H         1 UNK         0.0646 
     87 H87        23.1713  -25.3726  -37.3529 H         1 UNK         0.0847 
     88 H88        21.8679  -24.7491  -38.3444 H         1 UNK         0.0847 
     89 H89        23.3750  -25.2733  -39.0916 H         1 UNK         0.0847 
     90 H90        23.7896  -27.4820  -36.6414 H         1 UNK         0.3040 
     91 H91        24.5682  -30.0846  -37.3354 H         1 UNK         0.1015 
     92 H92        24.7981  -29.1266  -35.0572 H         1 UNK         0.0786 
     93 H93        26.0279  -27.9955  -35.6255 H         1 UNK         0.0786 
     94 H94        26.3511  -29.7236  -35.6137 H         1 UNK         0.0786 
     95 H95        25.7220  -27.1157  -38.6848 H         1 UNK         0.3172 
     96 H96        28.2480  -28.0179  -39.7233 H         1 UNK         0.0595 
     97 H97        27.6901  -25.6056  -39.4986 H         1 UNK         0.0839 
     98 H98        26.3765  -25.7745  -40.6652 H         1 UNK         0.0839 
     99 H99        28.0449  -25.9930  -41.1731 H         1 UNK         0.0839 
    100 H100       24.9020  -28.3993  -40.7951 H         1 UNK         0.2998 
    101 H101       25.7609  -29.6206  -43.3873 H         1 UNK         0.0822 
    102 H102       24.0330  -27.8129  -43.5206 H         1 UNK         0.0787 
    103 H103       23.3880  -29.3698  -44.0251 H         1 UNK         0.0787 
    104 H104       22.9852  -28.7233  -42.4400 H         1 UNK         0.0787 
    105 H105       23.7445  -30.1243  -40.4704 H         1 UNK         0.3055 
    106 H106       22.8806  -31.8578  -39.4230 H         1 UNK         0.1106 
    107 H107       25.2934  -33.4330  -40.4685 H         1 UNK         0.0828 
    108 H108       25.3116  -32.3696  -39.0629 H         1 UNK         0.0828 
    109 H109       24.3299  -33.8239  -39.0513 H         1 UNK         0.0828 
    110 H110       22.0748  -31.4948  -42.2543 H         1 UNK         0.2931 
    111 H111       20.8391  -32.3255  -43.8581 H         1 UNK         0.0412 
    112 H112       23.7841  -34.5913  -44.7764 H         1 UNK         0.3472 
    113 H113       23.7579  -33.2660  -43.6358 H         1 UNK         0.3472 
    114 H114       20.0085  -34.5533  -41.9366 H         1 UNK         0.0970 
    115 H115       19.2469  -34.2474  -43.4703 H         1 UNK         0.0970 
    116 H116       18.3856  -31.8452  -44.1687 H         1 UNK         0.0612 
    117 H117       17.0690  -32.8536  -43.6076 H         1 UNK         0.0612 
@<TRIPOS>BOND
     1    1    2 1    
     2    1   62 1    
     3    1   63 1    
     4    1   64 1    
     5    2    3 2    
     6    2    4 am   BACKBONE|DICT|INTERRES
     7    4    5 1    
     8    4   65 1    
     9    5    6 1    
    10    5   25 1    
    11    5   66 1    
    12    6    7 1    
    13    6   67 1    
    14    6   68 1    
    15    7    8 1    
    16    8    9 1    
    17    8   69 1    
    18    8   70 1    
    19    9   10 ar   
    20    9   14 ar   
    21   10   11 ar   
    22   10   71 1    
    23   11   12 ar   
    24   11   61 1    
    25   12   13 ar   
    26   12   72 1    
    27   13   14 ar   
    28   13   15 1    
    29   14   73 1    
    30   15   16 1    
    31   15   74 1    
    32   15   75 1    
    33   16   17 1    
    34   17   18 1    
    35   17   76 1    
    36   17   77 1    
    37   18   19 1    
    38   18   27 1    
    39   18   78 1    
    40   19   20 am   BACKBONE|DICT|INTERRES
    41   19   79 1    
    42   20   21 2    
    43   20   22 1    
    44   22   23 1    
    45   22   24 1    
    46   22   80 1    
    47   23   81 1    
    48   23   82 1    
    49   23   83 1    
    50   24   25 am   BACKBONE|DICT|INTERRES
    51   24   84 1    
    52   25   26 2    
    53   27   28 2    
    54   27   29 am   BACKBONE|DICT|INTERRES
    55   29   30 1    
    56   29   85 1    
    57   30   31 1    
    58   30   32 1    
    59   30   86 1    
    60   31   87 1    
    61   31   88 1    
    62   31   89 1    
    63   32   33 2    
    64   32   34 am   BACKBONE|DICT|INTERRES
    65   34   35 1    
    66   34   90 1    
    67   35   36 1    
    68   35   37 1    
    69   35   91 1    
    70   36   92 1    
    71   36   93 1    
    72   36   94 1    
    73   37   38 2    
    74   37   39 am   BACKBONE|DICT|INTERRES
    75   39   40 1    
    76   39   95 1    
    77   40   41 1    
    78   40   42 1    
    79   40   96 1    
    80   41   97 1    
    81   41   98 1    
    82   41   99 1    
    83   42   43 2    
    84   42   44 am   BACKBONE|DICT|INTERRES
    85   44   45 1    
    86   44  100 1    
    87   45   46 1    
    88   45   47 1    
    89   45  101 1    
    90   46  102 1    
    91   46  103 1    
    92   46  104 1    
    93   47   48 2    
    94   47   49 am   BACKBONE|DICT|INTERRES
    95   49   50 1    
    96   49  105 1    
    97   50   51 1    
    98   50   52 1    
    99   50  106 1    
   100   51  107 1    
   101   51  108 1    
   102   51  109 1    
   103   52   53 2    
   104   52   54 am   BACKBONE|DICT|INTERRES
   105   54   55 1    
   106   54  110 1    
   107   55   56 1    
   108   55   59 1    
   109   55  111 1    
   110   56   57 am   BACKBONE|DICT|INTERRES
   111   56   58 2    
   112   57  112 1    
   113   57  113 1    
   114   59   60 1    
   115   59  114 1    
   116   59  115 1    
   117   60   61 1    
   118   61  116 1    
   119   61  117 1    
@<TRIPOS>SUBSTRUCTURE
     1 UNK         1 GROUP             0       ****    0 ROOT    
