@<TRIPOS>MOLECULE
3R8
117   119    1
SMALL
USER_CHARGES


@<TRIPOS>ATOM
      1 CA         18.3241  -28.7862  -41.5437 C.3       0 UNK        -0.2013 
      2 C          17.6287  -27.6150  -42.2151 C.2       0 UNK         0.4866 
      3 O          17.3567  -26.6055  -41.5630 O.2       0 UNK        -0.5176 
      4 N          17.3540  -27.7231  -43.5217 N.am      1 UNK        -0.4884 
      5 CA         16.7583  -26.6639  -44.3488 C.3       1 UNK         0.0853 
      6 C6         15.9991  -27.2206  -45.5843 C.3       10 UNK        -0.0849 
      7 S7         14.7700  -28.5049  -45.1577 S.3       10 UNK        -0.2776 
      8 C8         15.4373  -29.9738  -46.0113 C.3       10 UNK         0.0316 
      9 C9         16.8060  -30.3763  -45.4787 C.ar      10 UNK        -0.0863 
     10 C10        16.9157  -31.0989  -44.2875 C.ar      10 UNK        -0.1009 
     11 C11        18.1724  -31.4495  -43.7842 C.ar      10 UNK        -0.0712 
     12 C12        19.3247  -31.0632  -44.4775 C.ar      10 UNK        -0.0894 
     13 C13        19.2273  -30.3546  -45.6786 C.ar      10 UNK        -0.0745 
     14 C14        17.9645  -30.0262  -46.1781 C.ar      10 UNK        -0.0972 
     15 C15        20.4722  -29.9718  -46.4674 C.3       10 UNK         0.0209 
     16 S16        20.7150  -28.1673  -46.5293 S.3       10 UNK        -0.2568 
     17 C17        21.9686  -27.8842  -45.2347 C.3       10 UNK        -0.0983 
     18 CA         22.4683  -26.4125  -45.2541 C.3       3 UNK         0.0876 
     19 N          21.3934  -25.4446  -44.9663 N.am      3 UNK        -0.4424 
     20 C          20.8275  -25.2109  -43.7724 C.2       2 UNK         0.4918 
     21 O          21.1909  -25.7440  -42.7231 O.2       2 UNK        -0.4875 
     22 CA         19.6563  -24.2153  -43.7206 C.3       2 UNK         0.0481 
     23 CB         19.7123  -23.0951  -44.7845 C.3       2 UNK        -0.1831 
     24 N          18.3930  -24.9542  -43.7307 N.am      2 UNK        -0.4498 
     25 C          17.8600  -25.6556  -44.7420 C.2       1 UNK         0.5027 
     26 O          18.2431  -25.5802  -45.9105 O.2       1 UNK        -0.4969 
     27 C          23.7218  -26.1755  -44.3766 C.2       3 UNK         0.5005 
     28 O          24.3247  -27.1236  -43.8634 O.2       3 UNK        -0.5279 
     29 N          24.0396  -24.8853  -44.1664 N.am      4 UNK        -0.4463 
     30 CA         25.1049  -24.3303  -43.3167 C.3       4 UNK         0.0283 
     31 CB         26.4879  -24.6801  -43.9060 C.3       4 UNK        -0.1875 
     32 C          25.0124  -24.7183  -41.8241 C.2       4 UNK         0.4949 
     33 O          25.9824  -24.5139  -41.0941 O.2       4 UNK        -0.5039 
     34 N          23.8812  -25.3127  -41.4074 N.am      5 UNK        -0.4663 
     35 CA         23.6571  -26.0307  -40.1450 C.3       5 UNK         0.0242 
     36 CB         23.7012  -25.0648  -38.9421 C.3       5 UNK        -0.1982 
     37 C          24.5841  -27.2545  -39.9576 C.2       5 UNK         0.5017 
     38 O          24.7066  -27.7521  -38.8373 O.2       5 UNK        -0.5012 
     39 N          25.2217  -27.7167  -41.0438 N.am      6 UNK        -0.4439 
     40 CA         26.1710  -28.8281  -41.0494 C.3       6 UNK         0.0297 
     41 CB         27.1941  -28.6201  -42.1783 C.3       6 UNK        -0.2006 
     42 C          25.4457  -30.1683  -41.2079 C.2       6 UNK         0.4892 
     43 O          25.7481  -31.1153  -40.4807 O.2       6 UNK        -0.5089 
     44 N          24.4860  -30.2159  -42.1403 N.am      7 UNK        -0.4243 
     45 CA         23.6033  -31.3569  -42.3562 C.3       7 UNK         0.0196 
     46 CB         23.2045  -31.4117  -43.8394 C.3       7 UNK        -0.2007 
     47 C          22.3889  -31.2128  -41.4305 C.2       7 UNK         0.5020 
     48 O          21.3909  -30.6071  -41.8169 O.2       7 UNK        -0.5147 
     49 N          22.5156  -31.7299  -40.2036 N.am      8 UNK        -0.4734 
     50 CA         21.4644  -31.6846  -39.1818 C.3       8 UNK         0.0238 
     51 CB         22.1153  -31.7983  -37.7933 C.3       8 UNK        -0.1912 
     52 C          20.3856  -32.7690  -39.3618 C.2       8 UNK         0.5038 
     53 O          19.3128  -32.6406  -38.7715 O.2       8 UNK        -0.5046 
     54 N          20.6906  -33.8139  -40.1464 N.am      9 UNK        -0.4200 
     55 CA         19.8522  -35.0044  -40.3877 C.3       9 UNK         0.0839 
     56 C          19.6438  -35.9103  -39.1334 C.2       9 UNK         0.5513 
     57 N          20.4685  -35.8054  -38.0979 N.am      9 UNK        -0.7519 
     58 O          18.7436  -36.7460  -39.1056 O.2       9 UNK        -0.4960 
     59 C59        18.5182  -34.6841  -41.1245 C.3       10 UNK        -0.0876 
     60 S60        18.7676  -33.9556  -42.7795 S.3       10 UNK        -0.2414 
     61 C61        18.2836  -32.2293  -42.4824 C.3       10 UNK         0.0169 
     62 H62        18.8288  -28.4640  -40.6333 H         1 UNK         0.0903 
     63 H63        17.6013  -29.5572  -41.2801 H         1 UNK         0.0903 
     64 H64        19.0779  -29.2169  -42.2018 H         1 UNK         0.0903 
     65 H65        17.5908  -28.5747  -44.0159 H         1 UNK         0.3096 
     66 H66        16.0269  -26.1217  -43.7446 H         1 UNK         0.1121 
     67 H67        16.6928  -27.6122  -46.3278 H         1 UNK         0.0849 
     68 H68        15.4682  -26.4090  -46.0850 H         1 UNK         0.0849 
     69 H69        14.7397  -30.8031  -45.8852 H         1 UNK         0.0865 
     70 H70        15.4827  -29.7790  -47.0841 H         1 UNK         0.0865 
     71 H71        16.0206  -31.3803  -43.7493 H         1 UNK         0.1346 
     72 H72        20.2943  -31.3300  -44.0832 H         1 UNK         0.1412 
     73 H73        17.8901  -29.4836  -47.1109 H         1 UNK         0.1426 
     74 H74        20.3618  -30.3383  -47.4889 H         1 UNK         0.0716 
     75 H75        21.3608  -30.4615  -46.0700 H         1 UNK         0.0716 
     76 H76        22.7980  -28.5666  -45.4268 H         1 UNK         0.0695 
     77 H77        21.5541  -28.1509  -44.2605 H         1 UNK         0.0695 
     78 H78        22.8016  -26.1991  -46.2713 H         1 UNK         0.0983 
     79 H79        20.9878  -24.9930  -45.7739 H         1 UNK         0.3095 
     80 H80        19.7094  -23.7291  -42.7453 H         1 UNK         0.0454 
     81 H81        18.8921  -22.3902  -44.6489 H         1 UNK         0.0851 
     82 H82        19.6570  -23.4661  -45.8072 H         1 UNK         0.0851 
     83 H83        20.6388  -22.5264  -44.6969 H         1 UNK         0.0851 
     84 H84        18.0270  -25.1757  -42.8086 H         1 UNK         0.2976 
     85 H85        23.4527  -24.1956  -44.6160 H         1 UNK         0.3116 
     86 H86        24.9911  -23.2459  -43.3534 H         1 UNK         0.0646 
     87 H87        26.6963  -25.7486  -43.8427 H         1 UNK         0.0847 
     88 H88        26.5599  -24.3862  -44.9530 H         1 UNK         0.0847 
     89 H89        27.2865  -24.1627  -43.3729 H         1 UNK         0.0847 
     90 H90        23.1292  -25.4170  -42.0816 H         1 UNK         0.3040 
     91 H91        22.6448  -26.4341  -40.2075 H         1 UNK         0.1015 
     92 H92        23.3781  -25.5639  -38.0277 H         1 UNK         0.0786 
     93 H93        23.0398  -24.2120  -39.0941 H         1 UNK         0.0786 
     94 H94        24.7068  -24.6833  -38.7635 H         1 UNK         0.0786 
     95 H95        25.0179  -27.2851  -41.9403 H         1 UNK         0.3172 
     96 H96        26.7137  -28.8441  -40.1016 H         1 UNK         0.0595 
     97 H97        26.7178  -28.5781  -43.1589 H         1 UNK         0.0839 
     98 H98        27.9197  -29.4343  -42.2018 H         1 UNK         0.0839 
     99 H99        27.7515  -27.6935  -42.0393 H         1 UNK         0.0839 
    100 H100       24.2820  -29.3777  -42.6683 H         1 UNK         0.2998 
    101 H101       24.1236  -32.2873  -42.1169 H         1 UNK         0.0822 
    102 H102       22.5518  -32.2630  -44.0361 H         1 UNK         0.0787 
    103 H103       22.6725  -30.5112  -44.1408 H         1 UNK         0.0787 
    104 H104       24.0784  -31.5157  -44.4826 H         1 UNK         0.0787 
    105 H105       23.3975  -32.1513  -39.9423 H         1 UNK         0.3055 
    106 H106       20.9580  -30.7180  -39.2409 H         1 UNK         0.1106 
    107 H107       22.8242  -30.9878  -37.6214 H         1 UNK         0.0828 
    108 H108       21.3648  -31.7416  -37.0034 H         1 UNK         0.0828 
    109 H109       22.6477  -32.7420  -37.6699 H         1 UNK         0.0828 
    110 H110       21.5998  -33.8248  -40.5832 H         1 UNK         0.2931 
    111 H111       20.4403  -35.6266  -41.0633 H         1 UNK         0.0412 
    112 H112       20.3327  -36.4027  -37.2971 H         1 UNK         0.3472 
    113 H113       21.2236  -35.1393  -38.1085 H         1 UNK         0.3472 
    114 H114       17.9421  -35.5980  -41.2795 H         1 UNK         0.0970 
    115 H115       17.8829  -34.0399  -40.5152 H         1 UNK         0.0970 
    116 H116       19.0170  -31.7570  -41.8300 H         1 UNK         0.0612 
    117 H117       17.3334  -32.2067  -41.9468 H         1 UNK         0.0612 
@<TRIPOS>BOND
     1    1    2 1    
     2    1   62 1    
     3    1   63 1    
     4    1   64 1    
     5    2    3 2    
     6    2    4 am   BACKBONE|DICT|INTERRES
     7    4    5 1    
     8    4   65 1    
     9    5    6 1    
    10    5   25 1    
    11    5   66 1    
    12    6    7 1    
    13    6   67 1    
    14    6   68 1    
    15    7    8 1    
    16    8    9 1    
    17    8   69 1    
    18    8   70 1    
    19    9   10 ar   
    20    9   14 ar   
    21   10   11 ar   
    22   10   71 1    
    23   11   12 ar   
    24   11   61 1    
    25   12   13 ar   
    26   12   72 1    
    27   13   14 ar   
    28   13   15 1    
    29   14   73 1    
    30   15   16 1    
    31   15   74 1    
    32   15   75 1    
    33   16   17 1    
    34   17   18 1    
    35   17   76 1    
    36   17   77 1    
    37   18   19 1    
    38   18   27 1    
    39   18   78 1    
    40   19   20 am   BACKBONE|DICT|INTERRES
    41   19   79 1    
    42   20   21 2    
    43   20   22 1    
    44   22   23 1    
    45   22   24 1    
    46   22   80 1    
    47   23   81 1    
    48   23   82 1    
    49   23   83 1    
    50   24   25 am   BACKBONE|DICT|INTERRES
    51   24   84 1    
    52   25   26 2    
    53   27   28 2    
    54   27   29 am   BACKBONE|DICT|INTERRES
    55   29   30 1    
    56   29   85 1    
    57   30   31 1    
    58   30   32 1    
    59   30   86 1    
    60   31   87 1    
    61   31   88 1    
    62   31   89 1    
    63   32   33 2    
    64   32   34 am   BACKBONE|DICT|INTERRES
    65   34   35 1    
    66   34   90 1    
    67   35   36 1    
    68   35   37 1    
    69   35   91 1    
    70   36   92 1    
    71   36   93 1    
    72   36   94 1    
    73   37   38 2    
    74   37   39 am   BACKBONE|DICT|INTERRES
    75   39   40 1    
    76   39   95 1    
    77   40   41 1    
    78   40   42 1    
    79   40   96 1    
    80   41   97 1    
    81   41   98 1    
    82   41   99 1    
    83   42   43 2    
    84   42   44 am   BACKBONE|DICT|INTERRES
    85   44   45 1    
    86   44  100 1    
    87   45   46 1    
    88   45   47 1    
    89   45  101 1    
    90   46  102 1    
    91   46  103 1    
    92   46  104 1    
    93   47   48 2    
    94   47   49 am   BACKBONE|DICT|INTERRES
    95   49   50 1    
    96   49  105 1    
    97   50   51 1    
    98   50   52 1    
    99   50  106 1    
   100   51  107 1    
   101   51  108 1    
   102   51  109 1    
   103   52   53 2    
   104   52   54 am   BACKBONE|DICT|INTERRES
   105   54   55 1    
   106   54  110 1    
   107   55   56 1    
   108   55   59 1    
   109   55  111 1    
   110   56   57 am   BACKBONE|DICT|INTERRES
   111   56   58 2    
   112   57  112 1    
   113   57  113 1    
   114   59   60 1    
   115   59  114 1    
   116   59  115 1    
   117   60   61 1    
   118   61  116 1    
   119   61  117 1    
@<TRIPOS>SUBSTRUCTURE
     1 UNK         1 GROUP             0       ****    0 ROOT    
