@<TRIPOS>MOLECULE
3R8
117   119    1
SMALL
USER_CHARGES


@<TRIPOS>ATOM
      1 CA         24.8330  -29.5677  -46.9808 C.3       0 UNK        -0.2013 
      2 C          23.5068  -28.8215  -46.9661 C.2       0 UNK         0.4866 
      3 O          23.3526  -27.8494  -47.7054 O.2       0 UNK        -0.5176 
      4 N          22.5566  -29.2729  -46.1360 N.am      1 UNK        -0.4884 
      5 CA         21.2318  -28.6847  -45.9173 C.3       1 UNK         0.0853 
      6 C6         20.3718  -28.6263  -47.2175 C.3       10 UNK        -0.0849 
      7 S7         18.6051  -28.2143  -46.9838 S.3       10 UNK        -0.2776 
      8 C8         17.8389  -29.8315  -46.6561 C.3       10 UNK         0.0316 
      9 C9         17.5110  -29.9960  -45.1796 C.ar      10 UNK        -0.0863 
     10 C10        18.2263  -30.8977  -44.3869 C.ar      10 UNK        -0.1009 
     11 C11        17.8995  -31.0685  -43.0381 C.ar      10 UNK        -0.0712 
     12 C12        16.8484  -30.3306  -42.4834 C.ar      10 UNK        -0.0894 
     13 C13        16.1311  -29.4179  -43.2639 C.ar      10 UNK        -0.0745 
     14 C14        16.4658  -29.2591  -44.6121 C.ar      10 UNK        -0.0972 
     15 C15        14.9907  -28.6093  -42.6553 C.3       10 UNK         0.0209 
     16 S16        15.5583  -27.4433  -41.3716 S.3       10 UNK        -0.2568 
     17 C17        16.6620  -26.3356  -42.3133 C.3       10 UNK        -0.0983 
     18 CA         18.1459  -26.7763  -42.2162 C.3       3 UNK         0.0876 
     19 N          18.9478  -26.2839  -43.3408 N.am      3 UNK        -0.4424 
     20 C          19.7630  -25.2219  -43.4481 C.2       2 UNK         0.4918 
     21 O          19.9890  -24.4129  -42.5479 O.2       2 UNK        -0.4875 
     22 CA         20.4365  -25.0437  -44.8281 C.3       2 UNK         0.0481 
     23 CB         21.7340  -24.2102  -44.7860 C.3       2 UNK        -0.1831 
     24 N          20.6463  -26.3159  -45.5329 N.am      2 UNK        -0.4498 
     25 C          21.3630  -27.3704  -45.1133 C.2       1 UNK         0.5027 
     26 O          22.0573  -27.3583  -44.0941 O.2       1 UNK        -0.4969 
     27 C          18.7822  -26.5892  -40.8234 C.2       3 UNK         0.5005 
     28 O          19.4729  -27.4937  -40.3537 O.2       3 UNK        -0.5279 
     29 N          18.5676  -25.4191  -40.2026 N.am      4 UNK        -0.4463 
     30 CA         19.0921  -25.0266  -38.8888 C.3       4 UNK         0.0283 
     31 CB         18.5614  -23.6284  -38.5343 C.3       4 UNK        -0.1875 
     32 C          20.6285  -25.0636  -38.7660 C.2       4 UNK         0.4949 
     33 O          21.1344  -25.1820  -37.6499 O.2       4 UNK        -0.5039 
     34 N          21.3427  -24.9925  -39.8991 N.am      5 UNK        -0.4663 
     35 CA         22.7908  -25.2071  -39.9847 C.3       5 UNK         0.0242 
     36 CB         23.2719  -24.8048  -41.3859 C.3       5 UNK        -0.1982 
     37 C          23.2182  -26.6581  -39.6847 C.2       5 UNK         0.5017 
     38 O          24.3691  -26.8699  -39.3024 O.2       5 UNK        -0.5012 
     39 N          22.2990  -27.6196  -39.8725 N.am      6 UNK        -0.4439 
     40 CA         22.4393  -29.0621  -39.6405 C.3       6 UNK         0.0297 
     41 CB         22.6107  -29.3550  -38.1352 C.3       6 UNK        -0.2006 
     42 C          23.5167  -29.7553  -40.5008 C.2       6 UNK         0.4892 
     43 O          23.9855  -30.8328  -40.1269 O.2       6 UNK        -0.5089 
     44 N          23.8962  -29.1480  -41.6344 N.am      7 UNK        -0.4243 
     45 CA         24.9290  -29.6605  -42.5329 C.3       7 UNK         0.0196 
     46 CB         25.3555  -28.5583  -43.5147 C.3       7 UNK        -0.2007 
     47 C          24.4369  -30.9165  -43.2662 C.2       7 UNK         0.5020 
     48 O          23.4459  -30.8477  -43.9941 O.2       7 UNK        -0.5147 
     49 N          25.1291  -32.0408  -43.0398 N.am      8 UNK        -0.4734 
     50 CA         24.8428  -33.3856  -43.5646 C.3       8 UNK         0.0238 
     51 CB         24.9488  -33.4110  -45.1053 C.3       8 UNK        -0.1912 
     52 C          23.5195  -34.0083  -43.0656 C.2       8 UNK         0.5038 
     53 O          23.1173  -35.0497  -43.5880 O.2       8 UNK        -0.5046 
     54 N          22.8752  -33.3909  -42.0668 N.am      9 UNK        -0.4200 
     55 CA         21.6561  -33.8924  -41.4199 C.3       9 UNK         0.0839 
     56 C          21.9476  -35.0972  -40.4855 C.2       9 UNK         0.5513 
     57 N          20.9904  -36.0008  -40.3263 N.am      9 UNK        -0.7519 
     58 O          23.0106  -35.2015  -39.8762 O.2       9 UNK        -0.4960 
     59 C59        20.9092  -32.7686  -40.6573 C.3       10 UNK        -0.0876 
     60 S60        20.3240  -31.4411  -41.7646 S.3       10 UNK        -0.2414 
     61 C61        18.6699  -32.0654  -42.1870 C.3       10 UNK         0.0169 
     62 H62        25.0486  -29.9271  -47.9866 H         1 UNK         0.0903 
     63 H63        25.6411  -28.9033  -46.6769 H         1 UNK         0.0903 
     64 H64        24.8273  -30.4270  -46.3115 H         1 UNK         0.0903 
     65 H65        22.8075  -29.9977  -45.4619 H         1 UNK         0.3096 
     66 H66        20.7300  -29.3741  -45.2362 H         1 UNK         0.1121 
     67 H67        20.4340  -29.5829  -47.7383 H         1 UNK         0.0849 
     68 H68        20.7849  -27.8976  -47.9164 H         1 UNK         0.0849 
     69 H69        16.9164  -29.9044  -47.2340 H         1 UNK         0.0865 
     70 H70        18.4784  -30.6414  -47.0098 H         1 UNK         0.0865 
     71 H71        19.0352  -31.4737  -44.8159 H         1 UNK         0.1346 
     72 H72        16.5915  -30.4571  -41.4404 H         1 UNK         0.1412 
     73 H73        15.9130  -28.5607  -45.2260 H         1 UNK         0.1426 
     74 H74        14.2686  -29.2955  -42.2107 H         1 UNK         0.0716 
     75 H75        14.4501  -28.0554  -43.4246 H         1 UNK         0.0716 
     76 H76        16.5218  -25.3090  -41.9725 H         1 UNK         0.0695 
     77 H77        16.3367  -26.3415  -43.3550 H         1 UNK         0.0695 
     78 H78        18.1653  -27.8551  -42.3700 H         1 UNK         0.0983 
     79 H79        18.8812  -26.8606  -44.1666 H         1 UNK         0.3095 
     80 H80        19.7170  -24.4849  -45.4278 H         1 UNK         0.0454 
     81 H81        22.0851  -23.9853  -45.7928 H         1 UNK         0.0851 
     82 H82        22.5391  -24.7280  -44.2684 H         1 UNK         0.0851 
     83 H83        21.5788  -23.2561  -44.2810 H         1 UNK         0.0851 
     84 H84        20.0889  -26.4487  -46.3681 H         1 UNK         0.2976 
     85 H85        18.0381  -24.7166  -40.6985 H         1 UNK         0.3116 
     86 H86        18.6969  -25.7374  -38.1604 H         1 UNK         0.0646 
     87 H87        18.8981  -22.8767  -39.2495 H         1 UNK         0.0847 
     88 H88        17.4717  -23.6092  -38.5117 H         1 UNK         0.0847 
     89 H89        18.9082  -23.3171  -37.5478 H         1 UNK         0.0847 
     90 H90        20.8445  -24.8541  -40.7739 H         1 UNK         0.3040 
     91 H91        23.2742  -24.5599  -39.2495 H         1 UNK         0.1015 
     92 H92        24.3587  -24.8641  -41.4591 H         1 UNK         0.0786 
     93 H93        22.9828  -23.7831  -41.6333 H         1 UNK         0.0786 
     94 H94        22.8582  -25.4680  -42.1456 H         1 UNK         0.0786 
     95 H95        21.3651  -27.3374  -40.1642 H         1 UNK         0.3172 
     96 H96        21.4874  -29.4954  -39.9454 H         1 UNK         0.0595 
     97 H97        23.5739  -29.0049  -37.7629 H         1 UNK         0.0839 
     98 H98        22.5541  -30.4255  -37.9342 H         1 UNK         0.0839 
     99 H99        21.8283  -28.8756  -37.5469 H         1 UNK         0.0839 
    100 H100       23.4156  -28.3068  -41.9215 H         1 UNK         0.2998 
    101 H101       25.8011  -29.9183  -41.9279 H         1 UNK         0.0822 
    102 H102       26.1514  -28.9102  -44.1718 H         1 UNK         0.0787 
    103 H103       25.7339  -27.6826  -42.9871 H         1 UNK         0.0787 
    104 H104       24.5285  -28.2345  -44.1453 H         1 UNK         0.0787 
    105 H105       25.9086  -31.9908  -42.3969 H         1 UNK         0.3055 
    106 H106       25.6307  -34.0317  -43.1740 H         1 UNK         0.1106 
    107 H107       24.1303  -32.8678  -45.5782 H         1 UNK         0.0828 
    108 H108       25.8863  -32.9731  -45.4478 H         1 UNK         0.0828 
    109 H109       24.9152  -34.4337  -45.4829 H         1 UNK         0.0828 
    110 H110       23.2794  -32.5529  -41.6723 H         1 UNK         0.2931 
    111 H111       20.9933  -34.2498  -42.2111 H         1 UNK         0.0412 
    112 H112       20.1124  -35.9242  -40.8164 H         1 UNK         0.3472 
    113 H113       21.1531  -36.7842  -39.7125 H         1 UNK         0.3472 
    114 H114       20.0540  -33.1706  -40.1107 H         1 UNK         0.0970 
    115 H115       21.5607  -32.3252  -39.9021 H         1 UNK         0.0970 
    116 H116       18.7668  -33.0087  -42.7264 H         1 UNK         0.0612 
    117 H117       18.1209  -32.2853  -41.2701 H         1 UNK         0.0612 
@<TRIPOS>BOND
     1    1    2 1    
     2    1   62 1    
     3    1   63 1    
     4    1   64 1    
     5    2    3 2    
     6    2    4 am   BACKBONE|DICT|INTERRES
     7    4    5 1    
     8    4   65 1    
     9    5    6 1    
    10    5   25 1    
    11    5   66 1    
    12    6    7 1    
    13    6   67 1    
    14    6   68 1    
    15    7    8 1    
    16    8    9 1    
    17    8   69 1    
    18    8   70 1    
    19    9   10 ar   
    20    9   14 ar   
    21   10   11 ar   
    22   10   71 1    
    23   11   12 ar   
    24   11   61 1    
    25   12   13 ar   
    26   12   72 1    
    27   13   14 ar   
    28   13   15 1    
    29   14   73 1    
    30   15   16 1    
    31   15   74 1    
    32   15   75 1    
    33   16   17 1    
    34   17   18 1    
    35   17   76 1    
    36   17   77 1    
    37   18   19 1    
    38   18   27 1    
    39   18   78 1    
    40   19   20 am   BACKBONE|DICT|INTERRES
    41   19   79 1    
    42   20   21 2    
    43   20   22 1    
    44   22   23 1    
    45   22   24 1    
    46   22   80 1    
    47   23   81 1    
    48   23   82 1    
    49   23   83 1    
    50   24   25 am   BACKBONE|DICT|INTERRES
    51   24   84 1    
    52   25   26 2    
    53   27   28 2    
    54   27   29 am   BACKBONE|DICT|INTERRES
    55   29   30 1    
    56   29   85 1    
    57   30   31 1    
    58   30   32 1    
    59   30   86 1    
    60   31   87 1    
    61   31   88 1    
    62   31   89 1    
    63   32   33 2    
    64   32   34 am   BACKBONE|DICT|INTERRES
    65   34   35 1    
    66   34   90 1    
    67   35   36 1    
    68   35   37 1    
    69   35   91 1    
    70   36   92 1    
    71   36   93 1    
    72   36   94 1    
    73   37   38 2    
    74   37   39 am   BACKBONE|DICT|INTERRES
    75   39   40 1    
    76   39   95 1    
    77   40   41 1    
    78   40   42 1    
    79   40   96 1    
    80   41   97 1    
    81   41   98 1    
    82   41   99 1    
    83   42   43 2    
    84   42   44 am   BACKBONE|DICT|INTERRES
    85   44   45 1    
    86   44  100 1    
    87   45   46 1    
    88   45   47 1    
    89   45  101 1    
    90   46  102 1    
    91   46  103 1    
    92   46  104 1    
    93   47   48 2    
    94   47   49 am   BACKBONE|DICT|INTERRES
    95   49   50 1    
    96   49  105 1    
    97   50   51 1    
    98   50   52 1    
    99   50  106 1    
   100   51  107 1    
   101   51  108 1    
   102   51  109 1    
   103   52   53 2    
   104   52   54 am   BACKBONE|DICT|INTERRES
   105   54   55 1    
   106   54  110 1    
   107   55   56 1    
   108   55   59 1    
   109   55  111 1    
   110   56   57 am   BACKBONE|DICT|INTERRES
   111   56   58 2    
   112   57  112 1    
   113   57  113 1    
   114   59   60 1    
   115   59  114 1    
   116   59  115 1    
   117   60   61 1    
   118   61  116 1    
   119   61  117 1    
@<TRIPOS>SUBSTRUCTURE
     1 UNK         1 GROUP             0       ****    0 ROOT    
