@<TRIPOS>MOLECULE
3R8
117   119    1
SMALL
USER_CHARGES


@<TRIPOS>ATOM
      1 CA         18.1193  -23.9362  -47.0259 C.3       0 UNK        -0.2013 
      2 C          17.0061  -24.6053  -46.2333 C.2       0 UNK         0.4866 
      3 O          15.9073  -24.0577  -46.1540 O.2       0 UNK        -0.5176 
      4 N          17.2930  -25.7826  -45.6616 N.am      1 UNK        -0.4884 
      5 CA         16.4250  -26.5943  -44.7989 C.3       1 UNK         0.0853 
      6 C6         15.1734  -27.1291  -45.5473 C.3       10 UNK        -0.0849 
      7 S7         14.4682  -28.6069  -44.7387 S.3       10 UNK        -0.2776 
      8 C8         15.2542  -29.9602  -45.6724 C.3       10 UNK         0.0316 
      9 C9         16.7543  -30.0270  -45.4210 C.ar      10 UNK        -0.0863 
     10 C10        17.2457  -30.5886  -44.2391 C.ar      10 UNK        -0.1009 
     11 C11        18.6225  -30.6605  -44.0048 C.ar      10 UNK        -0.0712 
     12 C12        19.5117  -30.1577  -44.9601 C.ar      10 UNK        -0.0894 
     13 C13        19.0301  -29.5812  -46.1394 C.ar      10 UNK        -0.0745 
     14 C14        17.6522  -29.5270  -46.3683 C.ar      10 UNK        -0.0972 
     15 C15        19.9881  -29.0293  -47.1821 C.3       10 UNK         0.0209 
     16 S16        20.2127  -27.2331  -46.9963 S.3       10 UNK        -0.2568 
     17 C17        21.5634  -27.1404  -45.7745 C.3       10 UNK        -0.0983 
     18 CA         21.2243  -26.2046  -44.5866 C.3       3 UNK         0.0876 
     19 N          20.1018  -26.7197  -43.7910 N.am      3 UNK        -0.4424 
     20 C          19.2749  -25.9650  -43.0595 C.2       2 UNK         0.4918 
     21 O          19.3783  -24.7411  -42.9592 O.2       2 UNK        -0.4875 
     22 CA         18.1697  -26.6965  -42.2862 C.3       2 UNK         0.0481 
     23 CB         18.5497  -26.7874  -40.7991 C.3       2 UNK        -0.1831 
     24 N          16.8878  -25.9954  -42.3993 N.am      2 UNK        -0.4498 
     25 C          16.0829  -25.8707  -43.4682 C.2       1 UNK         0.5027 
     26 O          15.0624  -25.1856  -43.3989 O.2       1 UNK        -0.4969 
     27 C          22.4501  -25.9319  -43.6856 C.2       3 UNK         0.5005 
     28 O          23.4996  -26.5494  -43.8702 O.2       3 UNK        -0.5279 
     29 N          22.2756  -25.0407  -42.6952 N.am      4 UNK        -0.4463 
     30 CA         23.2380  -24.6681  -41.6449 C.3       4 UNK         0.0283 
     31 CB         24.4389  -23.9085  -42.2472 C.3       4 UNK        -0.1875 
     32 C          23.6730  -25.8619  -40.7677 C.2       4 UNK         0.4949 
     33 O          24.8055  -25.8933  -40.2822 O.2       4 UNK        -0.5039 
     34 N          22.7653  -26.8366  -40.6081 N.am      5 UNK        -0.4663 
     35 CA         22.9111  -28.1509  -39.9691 C.3       5 UNK         0.0242 
     36 CB         23.2517  -28.0343  -38.4711 C.3       5 UNK        -0.1982 
     37 C          23.8835  -29.0917  -40.7012 C.2       5 UNK         0.5017 
     38 O          23.4945  -30.2097  -41.0434 O.2       5 UNK        -0.5012 
     39 N          25.1260  -28.6296  -40.9074 N.am      6 UNK        -0.4439 
     40 CA         26.2285  -29.2511  -41.6589 C.3       6 UNK         0.0297 
     41 CB         25.8945  -29.2428  -43.1653 C.3       6 UNK        -0.2006 
     42 C          26.6463  -30.6584  -41.1794 C.2       6 UNK         0.4892 
     43 O          27.2949  -31.3835  -41.9350 O.2       6 UNK        -0.5089 
     44 N          26.2342  -31.0338  -39.9576 N.am      7 UNK        -0.4243 
     45 CA         26.2579  -32.3864  -39.3804 C.3       7 UNK         0.0196 
     46 CB         27.7060  -32.8734  -39.1598 C.3       7 UNK        -0.2007 
     47 C          25.4012  -33.4094  -40.1638 C.2       7 UNK         0.5020 
     48 O          25.5726  -34.6143  -39.9736 O.2       7 UNK        -0.5147 
     49 N          24.4937  -32.9209  -41.0197 N.am      8 UNK        -0.4734 
     50 CA         23.5845  -33.7153  -41.8425 C.3       8 UNK         0.0238 
     51 CB         23.5381  -33.1215  -43.2610 C.3       8 UNK        -0.1912 
     52 C          22.1817  -33.7399  -41.2263 C.2       8 UNK         0.5038 
     53 O          21.5614  -34.8033  -41.1867 O.2       8 UNK        -0.5046 
     54 N          21.7095  -32.5769  -40.7580 N.am      9 UNK        -0.4200 
     55 CA         20.4232  -32.4255  -40.0670 C.3       9 UNK         0.0839 
     56 C          20.4542  -33.0376  -38.6405 C.2       9 UNK         0.5513 
     57 N          19.3398  -33.5870  -38.1776 N.am      9 UNK        -0.7519 
     58 O          21.4606  -32.9789  -37.9367 O.2       9 UNK        -0.4960 
     59 C59        19.9658  -30.9433  -40.0150 C.3       10 UNK        -0.0876 
     60 S60        19.8928  -30.0684  -41.6218 S.3       10 UNK        -0.2414 
     61 C61        19.1460  -31.3019  -42.7295 C.3       10 UNK         0.0169 
     62 H62        18.2139  -22.8913  -46.7315 H         1 UNK         0.0903 
     63 H63        19.0835  -24.4168  -46.8640 H         1 UNK         0.0903 
     64 H64        17.8948  -23.9714  -48.0916 H         1 UNK         0.0903 
     65 H65        18.2157  -26.1698  -45.8136 H         1 UNK         0.3096 
     66 H66        17.0241  -27.4672  -44.5552 H         1 UNK         0.1121 
     67 H67        15.4332  -27.3898  -46.5742 H         1 UNK         0.0849 
     68 H68        14.4004  -26.3631  -45.6315 H         1 UNK         0.0849 
     69 H69        14.7962  -30.9051  -45.3760 H         1 UNK         0.0865 
     70 H70        15.0417  -29.8439  -46.7364 H         1 UNK         0.0865 
     71 H71        16.5520  -30.9735  -43.5038 H         1 UNK         0.1346 
     72 H72        20.5769  -30.2182  -44.7823 H         1 UNK         0.1412 
     73 H73        17.2802  -29.0859  -47.2833 H         1 UNK         0.1426 
     74 H74        19.5922  -29.2278  -48.1793 H         1 UNK         0.0716 
     75 H75        20.9521  -29.5385  -47.1369 H         1 UNK         0.0716 
     76 H76        22.4446  -26.7782  -46.3077 H         1 UNK         0.0695 
     77 H77        21.8180  -28.1382  -45.4137 H         1 UNK         0.0695 
     78 H78        20.9400  -25.2378  -45.0093 H         1 UNK         0.0983 
     79 H79        19.9813  -27.7230  -43.7966 H         1 UNK         0.3095 
     80 H80        18.0634  -27.7149  -42.6629 H         1 UNK         0.0454 
     81 H81        19.5142  -27.2773  -40.6650 H         1 UNK         0.0851 
     82 H82        17.8167  -27.3676  -40.2383 H         1 UNK         0.0851 
     83 H83        18.6228  -25.8019  -40.3369 H         1 UNK         0.0851 
     84 H84        16.6203  -25.4793  -41.5744 H         1 UNK         0.2976 
     85 H85        21.3573  -24.6098  -42.6275 H         1 UNK         0.3116 
     86 H86        22.7133  -23.9810  -40.9795 H         1 UNK         0.0646 
     87 H87        25.0537  -24.5551  -42.8743 H         1 UNK         0.0847 
     88 H88        24.1119  -23.0644  -42.8540 H         1 UNK         0.0847 
     89 H89        25.0840  -23.5104  -41.4630 H         1 UNK         0.0847 
     90 H90        21.8860  -26.6972  -41.0833 H         1 UNK         0.3040 
     91 H91        21.9271  -28.6111  -40.0394 H         1 UNK         0.1015 
     92 H92        23.2636  -29.0175  -37.9985 H         1 UNK         0.0786 
     93 H93        22.5109  -27.4326  -37.9447 H         1 UNK         0.0786 
     94 H94        24.2292  -27.5820  -38.3019 H         1 UNK         0.0786 
     95 H95        25.2957  -27.6779  -40.5861 H         1 UNK         0.3172 
     96 H96        27.0976  -28.6100  -41.5063 H         1 UNK         0.0595 
     97 H97        25.0553  -29.9004  -43.3953 H         1 UNK         0.0839 
     98 H98        26.7438  -29.5758  -43.7630 H         1 UNK         0.0839 
     99 H99        25.6362  -28.2407  -43.5076 H         1 UNK         0.0839 
    100 H100       25.7190  -30.3468  -39.4254 H         1 UNK         0.2998 
    101 H101       25.7885  -32.3004  -38.3993 H         1 UNK         0.0822 
    102 H102       27.7237  -33.7998  -38.5845 H         1 UNK         0.0787 
    103 H103       28.2918  -32.1395  -38.6064 H         1 UNK         0.0787 
    104 H104       28.2170  -33.0698  -40.1027 H         1 UNK         0.0787 
    105 H105       24.3810  -31.9126  -41.0777 H         1 UNK         0.3055 
    106 H106       23.9409  -34.7457  -41.9130 H         1 UNK         0.1106 
    107 H107       24.5242  -33.1343  -43.7257 H         1 UNK         0.0828 
    108 H108       22.8688  -33.6958  -43.9030 H         1 UNK         0.0828 
    109 H109       23.1844  -32.0893  -43.2597 H         1 UNK         0.0828 
    110 H110       22.2827  -31.7431  -40.8304 H         1 UNK         0.2931 
    111 H111       19.6826  -32.9881  -40.6378 H         1 UNK         0.0412 
    112 H112       19.3351  -33.9754  -37.2470 H         1 UNK         0.3472 
    113 H113       18.5056  -33.6334  -38.7424 H         1 UNK         0.3472 
    114 H114       18.9714  -30.8796  -39.5691 H         1 UNK         0.0970 
    115 H115       20.6198  -30.3754  -39.3521 H         1 UNK         0.0970 
    116 H116       19.8867  -32.0615  -42.9831 H         1 UNK         0.0612 
    117 H117       18.3365  -31.8118  -42.2052 H         1 UNK         0.0612 
@<TRIPOS>BOND
     1    1    2 1    
     2    1   62 1    
     3    1   63 1    
     4    1   64 1    
     5    2    3 2    
     6    2    4 am   BACKBONE|DICT|INTERRES
     7    4    5 1    
     8    4   65 1    
     9    5    6 1    
    10    5   25 1    
    11    5   66 1    
    12    6    7 1    
    13    6   67 1    
    14    6   68 1    
    15    7    8 1    
    16    8    9 1    
    17    8   69 1    
    18    8   70 1    
    19    9   10 ar   
    20    9   14 ar   
    21   10   11 ar   
    22   10   71 1    
    23   11   12 ar   
    24   11   61 1    
    25   12   13 ar   
    26   12   72 1    
    27   13   14 ar   
    28   13   15 1    
    29   14   73 1    
    30   15   16 1    
    31   15   74 1    
    32   15   75 1    
    33   16   17 1    
    34   17   18 1    
    35   17   76 1    
    36   17   77 1    
    37   18   19 1    
    38   18   27 1    
    39   18   78 1    
    40   19   20 am   BACKBONE|DICT|INTERRES
    41   19   79 1    
    42   20   21 2    
    43   20   22 1    
    44   22   23 1    
    45   22   24 1    
    46   22   80 1    
    47   23   81 1    
    48   23   82 1    
    49   23   83 1    
    50   24   25 am   BACKBONE|DICT|INTERRES
    51   24   84 1    
    52   25   26 2    
    53   27   28 2    
    54   27   29 am   BACKBONE|DICT|INTERRES
    55   29   30 1    
    56   29   85 1    
    57   30   31 1    
    58   30   32 1    
    59   30   86 1    
    60   31   87 1    
    61   31   88 1    
    62   31   89 1    
    63   32   33 2    
    64   32   34 am   BACKBONE|DICT|INTERRES
    65   34   35 1    
    66   34   90 1    
    67   35   36 1    
    68   35   37 1    
    69   35   91 1    
    70   36   92 1    
    71   36   93 1    
    72   36   94 1    
    73   37   38 2    
    74   37   39 am   BACKBONE|DICT|INTERRES
    75   39   40 1    
    76   39   95 1    
    77   40   41 1    
    78   40   42 1    
    79   40   96 1    
    80   41   97 1    
    81   41   98 1    
    82   41   99 1    
    83   42   43 2    
    84   42   44 am   BACKBONE|DICT|INTERRES
    85   44   45 1    
    86   44  100 1    
    87   45   46 1    
    88   45   47 1    
    89   45  101 1    
    90   46  102 1    
    91   46  103 1    
    92   46  104 1    
    93   47   48 2    
    94   47   49 am   BACKBONE|DICT|INTERRES
    95   49   50 1    
    96   49  105 1    
    97   50   51 1    
    98   50   52 1    
    99   50  106 1    
   100   51  107 1    
   101   51  108 1    
   102   51  109 1    
   103   52   53 2    
   104   52   54 am   BACKBONE|DICT|INTERRES
   105   54   55 1    
   106   54  110 1    
   107   55   56 1    
   108   55   59 1    
   109   55  111 1    
   110   56   57 am   BACKBONE|DICT|INTERRES
   111   56   58 2    
   112   57  112 1    
   113   57  113 1    
   114   59   60 1    
   115   59  114 1    
   116   59  115 1    
   117   60   61 1    
   118   61  116 1    
   119   61  117 1    
@<TRIPOS>SUBSTRUCTURE
     1 UNK         1 GROUP             0       ****    0 ROOT    
