@<TRIPOS>MOLECULE
3R8
117   119    1
SMALL
USER_CHARGES


@<TRIPOS>ATOM
      1 CA         16.0263  -22.0638  -44.6461 C.3       0 UNK        -0.2013 
      2 C          16.4786  -23.3612  -45.2990 C.2       0 UNK         0.4866 
      3 O          16.6579  -23.4036  -46.5163 O.2       0 UNK        -0.5176 
      4 N          16.6614  -24.4209  -44.4998 N.am      1 UNK        -0.4884 
      5 CA         17.0909  -25.7498  -44.9543 C.3       1 UNK         0.0853 
      6 C6         16.9242  -26.8166  -43.8436 C.3       10 UNK        -0.0849 
      7 S7         15.1879  -27.3221  -43.6225 S.3       10 UNK        -0.2776 
      8 C8         15.0213  -28.6487  -44.8688 C.3       10 UNK         0.0316 
      9 C9         16.0383  -29.7690  -44.6826 C.ar      10 UNK        -0.0863 
     10 C10        15.9780  -30.5932  -43.5546 C.ar      10 UNK        -0.1009 
     11 C11        16.9201  -31.6091  -43.3636 C.ar      10 UNK        -0.0712 
     12 C12        17.9129  -31.8114  -44.3264 C.ar      10 UNK        -0.0894 
     13 C13        18.0055  -30.9737  -45.4419 C.ar      10 UNK        -0.0745 
     14 C14        17.0559  -29.9637  -45.6236 C.ar      10 UNK        -0.0972 
     15 C15        19.1635  -31.1349  -46.4197 C.3       10 UNK         0.0209 
     16 S16        20.3912  -29.7864  -46.2866 S.3       10 UNK        -0.2568 
     17 C17        20.7772  -29.7852  -44.5007 C.3       10 UNK        -0.0983 
     18 CA         21.5685  -28.5501  -43.9955 C.3       3 UNK         0.0876 
     19 N          21.0394  -27.2911  -44.5359 N.am      3 UNK        -0.4424 
     20 C          21.6604  -26.1043  -44.5367 C.2       2 UNK         0.4918 
     21 O          22.7980  -25.9361  -44.1021 O.2       2 UNK        -0.4875 
     22 CA         20.8804  -24.8824  -45.0698 C.3       2 UNK         0.0481 
     23 CB         21.2550  -24.5820  -46.5342 C.3       2 UNK        -0.1831 
     24 N          19.4200  -24.9503  -44.8813 N.am      2 UNK        -0.4498 
     25 C          18.5424  -25.7801  -45.4670 C.2       1 UNK         0.5027 
     26 O          18.8503  -26.6048  -46.3263 O.2       1 UNK        -0.4969 
     27 C          21.5913  -28.5752  -42.4492 C.2       3 UNK         0.5005 
     28 O          22.1972  -29.4772  -41.8693 O.2       3 UNK        -0.5279 
     29 N          20.8878  -27.6352  -41.8001 N.am      4 UNK        -0.4463 
     30 CA         20.8580  -27.4657  -40.3477 C.3       4 UNK         0.0283 
     31 CB         19.7291  -26.4932  -39.9718 C.3       4 UNK        -0.1875 
     32 C          22.2138  -26.9489  -39.8458 C.2       4 UNK         0.4949 
     33 O          22.7628  -26.0207  -40.4429 O.2       4 UNK        -0.5039 
     34 N          22.7336  -27.5696  -38.7776 N.am      5 UNK        -0.4663 
     35 CA         24.0495  -27.3652  -38.1459 C.3       5 UNK         0.0242 
     36 CB         24.2014  -25.9344  -37.5930 C.3       5 UNK        -0.1982 
     37 C          25.2485  -27.7505  -39.0351 C.2       5 UNK         0.5017 
     38 O          26.1308  -28.4747  -38.5740 O.2       5 UNK        -0.5012 
     39 N          25.2510  -27.2949  -40.2933 N.am      6 UNK        -0.4439 
     40 CA         26.2099  -27.6463  -41.3383 C.3       6 UNK         0.0297 
     41 CB         26.1390  -26.5908  -42.4559 C.3       6 UNK        -0.2006 
     42 C          25.9210  -29.0639  -41.8593 C.2       6 UNK         0.4892 
     43 O          25.1743  -29.2211  -42.8245 O.2       6 UNK        -0.5089 
     44 N          26.4896  -30.0570  -41.1622 N.am      7 UNK        -0.4243 
     45 CA         26.3177  -31.5106  -41.3070 C.3       7 UNK         0.0196 
     46 CB         26.4408  -31.9894  -42.7698 C.3       7 UNK        -0.2007 
     47 C          25.0539  -32.0663  -40.6238 C.2       7 UNK         0.5020 
     48 O          24.9293  -33.2877  -40.5349 O.2       7 UNK        -0.5147 
     49 N          24.1674  -31.1899  -40.1256 N.am      8 UNK        -0.4734 
     50 CA         22.9704  -31.4779  -39.3193 C.3       8 UNK         0.0238 
     51 CB         23.3846  -31.8769  -37.8883 C.3       8 UNK        -0.1912 
     52 C          22.0322  -32.5060  -39.9812 C.2       8 UNK         0.5038 
     53 O          21.7819  -33.5731  -39.4174 O.2       8 UNK        -0.5046 
     54 N          21.5796  -32.1647  -41.1922 N.am      9 UNK        -0.4200 
     55 CA         20.8021  -33.0044  -42.1207 C.3       9 UNK         0.0839 
     56 C          21.6119  -34.1472  -42.8046 C.2       9 UNK         0.5513 
     57 N          22.8964  -34.3371  -42.5282 N.am      9 UNK        -0.7519 
     58 O          21.0671  -34.8605  -43.6430 O.2       9 UNK        -0.4960 
     59 C59        19.4520  -33.5240  -41.5419 C.3       10 UNK        -0.0876 
     60 S60        18.3092  -32.1950  -41.0218 S.3       10 UNK        -0.2414 
     61 C61        16.8688  -32.4738  -42.1107 C.3       10 UNK         0.0169 
     62 H62        15.8986  -22.1708  -43.5691 H         1 UNK         0.0903 
     63 H63        16.7604  -21.2785  -44.8242 H         1 UNK         0.0903 
     64 H64        15.0748  -21.7428  -45.0697 H         1 UNK         0.0903 
     65 H65        16.4660  -24.3356  -43.5117 H         1 UNK         0.3096 
     66 H66        16.4666  -26.0287  -45.8067 H         1 UNK         0.1121 
     67 H67        17.2941  -26.4363  -42.8896 H         1 UNK         0.0849 
     68 H68        17.5244  -27.7067  -44.0388 H         1 UNK         0.0849 
     69 H69        14.0154  -29.0665  -44.8062 H         1 UNK         0.0865 
     70 H70        15.1051  -28.2133  -45.8660 H         1 UNK         0.0865 
     71 H71        15.2046  -30.4276  -42.8167 H         1 UNK         0.1346 
     72 H72        18.6391  -32.5984  -44.1869 H         1 UNK         0.1412 
     73 H73        17.1330  -29.3108  -46.4830 H         1 UNK         0.1426 
     74 H74        18.7755  -31.1604  -47.4390 H         1 UNK         0.0716 
     75 H75        19.6710  -32.0877  -46.2616 H         1 UNK         0.0716 
     76 H76        19.8404  -29.8622  -43.9474 H         1 UNK         0.0695 
     77 H77        21.3408  -30.6941  -44.2879 H         1 UNK         0.0695 
     78 H78        22.6042  -28.6452  -44.3302 H         1 UNK         0.0983 
     79 H79        20.1556  -27.3552  -45.0296 H         1 UNK         0.3095 
     80 H80        21.2058  -24.0291  -44.4724 H         1 UNK         0.0454 
     81 H81        22.3252  -24.3943  -46.6286 H         1 UNK         0.0851 
     82 H82        20.7370  -23.6969  -46.9035 H         1 UNK         0.0851 
     83 H83        21.0163  -25.4129  -47.1987 H         1 UNK         0.0851 
     84 H84        19.0499  -24.3221  -44.1812 H         1 UNK         0.2976 
     85 H85        20.4424  -26.9181  -42.3511 H         1 UNK         0.3116 
     86 H86        20.6468  -28.4366  -39.8940 H         1 UNK         0.0646 
     87 H87        19.8847  -25.5046  -40.4062 H         1 UNK         0.0847 
     88 H88        19.6690  -26.3664  -38.8898 H         1 UNK         0.0847 
     89 H89        18.7592  -26.8601  -40.3085 H         1 UNK         0.0847 
     90 H90        22.1827  -28.3084  -38.3626 H         1 UNK         0.3040 
     91 H91        24.0734  -28.0444  -37.2913 H         1 UNK         0.1015 
     92 H92        24.2116  -25.1851  -38.3850 H         1 UNK         0.0786 
     93 H93        25.1355  -25.8302  -37.0396 H         1 UNK         0.0786 
     94 H94        23.3905  -25.6866  -36.9083 H         1 UNK         0.0786 
     95 H95        24.4498  -26.7318  -40.5735 H         1 UNK         0.3172 
     96 H96        27.2185  -27.6251  -40.9197 H         1 UNK         0.0595 
     97 H97        25.1392  -26.5250  -42.8868 H         1 UNK         0.0839 
     98 H98        26.8277  -26.8334  -43.2663 H         1 UNK         0.0839 
     99 H99        26.4079  -25.6017  -42.0855 H         1 UNK         0.0839 
    100 H100       27.0248  -29.7806  -40.3478 H         1 UNK         0.2998 
    101 H101       27.1558  -31.9463  -40.7610 H         1 UNK         0.0822 
    102 H102       26.5187  -33.0764  -42.8149 H         1 UNK         0.0787 
    103 H103       25.5718  -31.7095  -43.3658 H         1 UNK         0.0787 
    104 H104       27.3291  -31.5803  -43.2511 H         1 UNK         0.0787 
    105 H105       24.3190  -30.2158  -40.3473 H         1 UNK         0.3055 
    106 H106       22.4037  -30.5487  -39.2535 H         1 UNK         0.1106 
    107 H107       23.9939  -31.1029  -37.4212 H         1 UNK         0.0828 
    108 H108       22.5091  -32.0269  -37.2549 H         1 UNK         0.0828 
    109 H109       23.9569  -32.8052  -37.8774 H         1 UNK         0.0828 
    110 H110       21.8591  -31.2537  -41.5525 H         1 UNK         0.2931 
    111 H111       20.5521  -32.3308  -42.9376 H         1 UNK         0.0412 
    112 H112       23.3683  -33.8012  -41.8099 H         1 UNK         0.3472 
    113 H113       23.3913  -35.0760  -43.0009 H         1 UNK         0.3472 
    114 H114       19.6260  -34.1781  -40.6872 H         1 UNK         0.0970 
    115 H115       18.9463  -34.1514  -42.2767 H         1 UNK         0.0970 
    116 H116       15.9694  -32.2472  -41.5363 H         1 UNK         0.0612 
    117 H117       16.7852  -33.5252  -42.3877 H         1 UNK         0.0612 
@<TRIPOS>BOND
     1    1    2 1    
     2    1   62 1    
     3    1   63 1    
     4    1   64 1    
     5    2    3 2    
     6    2    4 am   BACKBONE|DICT|INTERRES
     7    4    5 1    
     8    4   65 1    
     9    5    6 1    
    10    5   25 1    
    11    5   66 1    
    12    6    7 1    
    13    6   67 1    
    14    6   68 1    
    15    7    8 1    
    16    8    9 1    
    17    8   69 1    
    18    8   70 1    
    19    9   10 ar   
    20    9   14 ar   
    21   10   11 ar   
    22   10   71 1    
    23   11   12 ar   
    24   11   61 1    
    25   12   13 ar   
    26   12   72 1    
    27   13   14 ar   
    28   13   15 1    
    29   14   73 1    
    30   15   16 1    
    31   15   74 1    
    32   15   75 1    
    33   16   17 1    
    34   17   18 1    
    35   17   76 1    
    36   17   77 1    
    37   18   19 1    
    38   18   27 1    
    39   18   78 1    
    40   19   20 am   BACKBONE|DICT|INTERRES
    41   19   79 1    
    42   20   21 2    
    43   20   22 1    
    44   22   23 1    
    45   22   24 1    
    46   22   80 1    
    47   23   81 1    
    48   23   82 1    
    49   23   83 1    
    50   24   25 am   BACKBONE|DICT|INTERRES
    51   24   84 1    
    52   25   26 2    
    53   27   28 2    
    54   27   29 am   BACKBONE|DICT|INTERRES
    55   29   30 1    
    56   29   85 1    
    57   30   31 1    
    58   30   32 1    
    59   30   86 1    
    60   31   87 1    
    61   31   88 1    
    62   31   89 1    
    63   32   33 2    
    64   32   34 am   BACKBONE|DICT|INTERRES
    65   34   35 1    
    66   34   90 1    
    67   35   36 1    
    68   35   37 1    
    69   35   91 1    
    70   36   92 1    
    71   36   93 1    
    72   36   94 1    
    73   37   38 2    
    74   37   39 am   BACKBONE|DICT|INTERRES
    75   39   40 1    
    76   39   95 1    
    77   40   41 1    
    78   40   42 1    
    79   40   96 1    
    80   41   97 1    
    81   41   98 1    
    82   41   99 1    
    83   42   43 2    
    84   42   44 am   BACKBONE|DICT|INTERRES
    85   44   45 1    
    86   44  100 1    
    87   45   46 1    
    88   45   47 1    
    89   45  101 1    
    90   46  102 1    
    91   46  103 1    
    92   46  104 1    
    93   47   48 2    
    94   47   49 am   BACKBONE|DICT|INTERRES
    95   49   50 1    
    96   49  105 1    
    97   50   51 1    
    98   50   52 1    
    99   50  106 1    
   100   51  107 1    
   101   51  108 1    
   102   51  109 1    
   103   52   53 2    
   104   52   54 am   BACKBONE|DICT|INTERRES
   105   54   55 1    
   106   54  110 1    
   107   55   56 1    
   108   55   59 1    
   109   55  111 1    
   110   56   57 am   BACKBONE|DICT|INTERRES
   111   56   58 2    
   112   57  112 1    
   113   57  113 1    
   114   59   60 1    
   115   59  114 1    
   116   59  115 1    
   117   60   61 1    
   118   61  116 1    
   119   61  117 1    
@<TRIPOS>SUBSTRUCTURE
     1 UNK         1 GROUP             0       ****    0 ROOT    
