@<TRIPOS>MOLECULE
3R8
117   119    1
SMALL
USER_CHARGES


@<TRIPOS>ATOM
      1 CA         15.0427  -25.5317  -46.2833 C.3       0 UNK        -0.2013 
      2 C          16.4393  -25.5699  -46.8859 C.2       0 UNK         0.4866 
      3 O          16.6142  -25.2045  -48.0489 O.2       0 UNK        -0.5176 
      4 N          17.4261  -26.0079  -46.0985 N.am      1 UNK        -0.4884 
      5 CA         18.8477  -26.0720  -46.4555 C.3       1 UNK         0.0853 
      6 C6         19.3683  -27.5342  -46.6271 C.3       10 UNK        -0.0849 
      7 S7         18.3012  -28.5816  -47.6855 S.3       10 UNK        -0.2776 
      8 C8         18.3003  -30.2046  -46.8326 C.3       10 UNK         0.0316 
      9 C9         17.9983  -30.1593  -45.3338 C.ar      10 UNK        -0.0863 
     10 C10        18.6636  -31.0418  -44.4765 C.ar      10 UNK        -0.1009 
     11 C11        18.4652  -30.9795  -43.0942 C.ar      10 UNK        -0.0712 
     12 C12        17.5874  -30.0332  -42.5648 C.ar      10 UNK        -0.0894 
     13 C13        16.9212  -29.1429  -43.4075 C.ar      10 UNK        -0.0745 
     14 C14        17.0997  -29.2337  -44.7907 C.ar      10 UNK        -0.0972 
     15 C15        16.0637  -28.0373  -42.8212 C.3       10 UNK         0.0209 
     16 S16        17.0291  -26.5002  -42.6754 S.3       10 UNK        -0.2568 
     17 C17        18.0576  -26.7944  -41.1903 C.3       10 UNK        -0.0983 
     18 CA         19.5531  -27.1229  -41.4734 C.3       3 UNK         0.0876 
     19 N          20.1537  -26.1781  -42.4227 N.am      3 UNK        -0.4424 
     20 C          21.4303  -26.1085  -42.8300 C.2       2 UNK         0.4918 
     21 O          22.3508  -26.7849  -42.3644 O.2       2 UNK        -0.4875 
     22 CA         21.7046  -25.1703  -44.0235 C.3       2 UNK         0.0481 
     23 CB         23.1914  -25.1360  -44.4170 C.3       2 UNK        -0.1831 
     24 N          20.9147  -25.5940  -45.1851 N.am      2 UNK        -0.4498 
     25 C          19.6226  -25.2913  -45.3704 C.2       1 UNK         0.5027 
     26 O          19.0325  -24.4688  -44.6632 O.2       1 UNK        -0.4969 
     27 C          20.3443  -27.1795  -40.1507 C.2       3 UNK         0.5005 
     28 O          20.3418  -26.1907  -39.4144 O.2       3 UNK        -0.5279 
     29 N          21.0543  -28.2911  -39.9002 N.am      4 UNK        -0.4463 
     30 CA         21.9440  -28.5703  -38.7597 C.3       4 UNK         0.0283 
     31 CB         21.1883  -28.4993  -37.4183 C.3       4 UNK        -0.1875 
     32 C          23.2376  -27.7307  -38.7150 C.2       4 UNK         0.4949 
     33 O          24.2318  -28.2032  -38.1641 O.2       4 UNK        -0.5039 
     34 N          23.2215  -26.5230  -39.2940 N.am      5 UNK        -0.4663 
     35 CA         24.3585  -25.6073  -39.4144 C.3       5 UNK         0.0242 
     36 CB         23.8627  -24.2559  -39.9536 C.3       5 UNK        -0.1982 
     37 C          25.4871  -26.1595  -40.3005 C.2       5 UNK         0.5017 
     38 O          26.6583  -25.9292  -39.9964 O.2       5 UNK        -0.5012 
     39 N          25.1148  -26.8887  -41.3591 N.am      6 UNK        -0.4439 
     40 CA         26.0363  -27.6188  -42.2315 C.3       6 UNK         0.0297 
     41 CB         26.5628  -26.7107  -43.3562 C.3       6 UNK        -0.2006 
     42 C          25.4049  -28.8999  -42.7929 C.2       6 UNK         0.4892 
     43 O          26.1272  -29.8780  -42.9899 O.2       6 UNK        -0.5089 
     44 N          24.0841  -28.8989  -43.0263 N.am      7 UNK        -0.4243 
     45 CA         23.3224  -30.0795  -43.4213 C.3       7 UNK         0.0196 
     46 CB         22.0470  -29.6434  -44.1660 C.3       7 UNK        -0.2007 
     47 C          22.9997  -30.9005  -42.1655 C.2       7 UNK         0.5020 
     48 O          22.0673  -30.5564  -41.4372 O.2       7 UNK        -0.5147 
     49 N          23.7884  -31.9520  -41.9237 N.am      8 UNK        -0.4734 
     50 CA         23.6316  -32.8879  -40.8093 C.3       8 UNK         0.0238 
     51 CB         25.0132  -33.1487  -40.1801 C.3       8 UNK        -0.1912 
     52 C          22.9598  -34.1731  -41.3203 C.2       8 UNK         0.5038 
     53 O          23.6040  -35.2204  -41.4092 O.2       8 UNK        -0.5046 
     54 N          21.6852  -34.0449  -41.7022 N.am      9 UNK        -0.4200 
     55 CA         20.8266  -35.1251  -42.2081 C.3       9 UNK         0.0839 
     56 C          20.4591  -36.1810  -41.1267 C.2       9 UNK         0.5513 
     57 N          20.0846  -37.3835  -41.5425 N.am      9 UNK        -0.7519 
     58 O          20.4867  -35.9197  -39.9253 O.2       9 UNK        -0.4960 
     59 C59        19.5786  -34.5596  -42.9456 C.3       10 UNK        -0.0876 
     60 S60        18.5021  -33.5005  -41.9128 S.3       10 UNK        -0.2414 
     61 C61        19.2636  -31.8688  -42.1608 C.3       10 UNK         0.0169 
     62 H62        15.0419  -25.8319  -45.2355 H         1 UNK         0.0903 
     63 H63        14.6340  -24.5236  -46.3459 H         1 UNK         0.0903 
     64 H64        14.3807  -26.2033  -46.8293 H         1 UNK         0.0903 
     65 H65        17.2331  -26.2044  -45.1243 H         1 UNK         0.3096 
     66 H66        19.0175  -25.5369  -47.3922 H         1 UNK         0.1121 
     67 H67        19.4891  -28.0085  -45.6522 H         1 UNK         0.0849 
     68 H68        20.3608  -27.5312  -47.0803 H         1 UNK         0.0849 
     69 H69        17.5669  -30.8517  -47.3151 H         1 UNK         0.0865 
     70 H70        19.2741  -30.6671  -47.0016 H         1 UNK         0.0865 
     71 H71        19.3620  -31.7609  -44.8817 H         1 UNK         0.1346 
     72 H72        17.4551  -29.9629  -41.4939 H         1 UNK         0.1412 
     73 H73        16.5786  -28.5460  -45.4411 H         1 UNK         0.1426 
     74 H74        15.6609  -28.3236  -41.8484 H         1 UNK         0.0716 
     75 H75        15.2035  -27.8571  -43.4676 H         1 UNK         0.0716 
     76 H76        17.6051  -27.5863  -40.5913 H         1 UNK         0.0695 
     77 H77        17.9790  -25.8884  -40.5859 H         1 UNK         0.0695 
     78 H78        19.5999  -28.1060  -41.9447 H         1 UNK         0.0983 
     79 H79        19.4915  -25.5657  -42.8847 H         1 UNK         0.3095 
     80 H80        21.4170  -24.1604  -43.7240 H         1 UNK         0.0454 
     81 H81        23.5402  -26.1134  -44.7515 H         1 UNK         0.0851 
     82 H82        23.8131  -24.8324  -43.5736 H         1 UNK         0.0851 
     83 H83        23.3712  -24.4235  -45.2220 H         1 UNK         0.0851 
     84 H84        21.3454  -26.2785  -45.7895 H         1 UNK         0.2976 
     85 H85        21.0877  -29.0172  -40.6118 H         1 UNK         0.3116 
     86 H86        22.2638  -29.6048  -38.8938 H         1 UNK         0.0646 
     87 H87        20.8673  -27.4848  -37.1813 H         1 UNK         0.0847 
     88 H88        21.8244  -28.8339  -36.5978 H         1 UNK         0.0847 
     89 H89        20.3060  -29.1391  -37.4251 H         1 UNK         0.0847 
     90 H90        22.3311  -26.2054  -39.6617 H         1 UNK         0.3040 
     91 H91        24.7702  -25.4528  -38.4146 H         1 UNK         0.1015 
     92 H92        23.4173  -24.3547  -40.9443 H         1 UNK         0.0786 
     93 H93        24.6841  -23.5425  -40.0342 H         1 UNK         0.0786 
     94 H94        23.1155  -23.8156  -39.2929 H         1 UNK         0.0786 
     95 H95        24.1197  -27.0007  -41.5258 H         1 UNK         0.3172 
     96 H96        26.8910  -27.9420  -41.6327 H         1 UNK         0.0595 
     97 H97        25.7623  -26.3624  -44.0060 H         1 UNK         0.0839 
     98 H98        27.2790  -27.2446  -43.9823 H         1 UNK         0.0839 
     99 H99        27.0746  -25.8359  -42.9551 H         1 UNK         0.0839 
    100 H100       23.5296  -28.0704  -42.8307 H         1 UNK         0.2998 
    101 H101       23.9173  -30.6855  -44.1083 H         1 UNK         0.0822 
    102 H102       22.2829  -29.0108  -45.0215 H         1 UNK         0.0787 
    103 H103       21.5108  -30.5126  -44.5458 H         1 UNK         0.0787 
    104 H104       21.3587  -29.0937  -43.5238 H         1 UNK         0.0787 
    105 H105       24.5400  -32.1504  -42.5705 H         1 UNK         0.3055 
    106 H106       22.9882  -32.4619  -40.0355 H         1 UNK         0.1106 
    107 H107       25.7155  -33.5723  -40.8990 H         1 UNK         0.0828 
    108 H108       24.9364  -33.8481  -39.3465 H         1 UNK         0.0828 
    109 H109       25.4487  -32.2282  -39.7910 H         1 UNK         0.0828 
    110 H110       21.2326  -33.1543  -41.5634 H         1 UNK         0.2931 
    111 H111       21.4193  -35.6539  -42.9577 H         1 UNK         0.0412 
    112 H112       19.8325  -38.0812  -40.8593 H         1 UNK         0.3472 
    113 H113       20.0560  -37.6125  -42.5242 H         1 UNK         0.3472 
    114 H114       19.8938  -33.9979  -43.8259 H         1 UNK         0.0970 
    115 H115       18.9701  -35.3767  -43.3372 H         1 UNK         0.0970 
    116 H116       19.3845  -31.3863  -41.1895 H         1 UNK         0.0612 
    117 H117       20.2643  -31.9804  -42.5719 H         1 UNK         0.0612 
@<TRIPOS>BOND
     1    1    2 1    
     2    1   62 1    
     3    1   63 1    
     4    1   64 1    
     5    2    3 2    
     6    2    4 am   BACKBONE|DICT|INTERRES
     7    4    5 1    
     8    4   65 1    
     9    5    6 1    
    10    5   25 1    
    11    5   66 1    
    12    6    7 1    
    13    6   67 1    
    14    6   68 1    
    15    7    8 1    
    16    8    9 1    
    17    8   69 1    
    18    8   70 1    
    19    9   10 ar   
    20    9   14 ar   
    21   10   11 ar   
    22   10   71 1    
    23   11   12 ar   
    24   11   61 1    
    25   12   13 ar   
    26   12   72 1    
    27   13   14 ar   
    28   13   15 1    
    29   14   73 1    
    30   15   16 1    
    31   15   74 1    
    32   15   75 1    
    33   16   17 1    
    34   17   18 1    
    35   17   76 1    
    36   17   77 1    
    37   18   19 1    
    38   18   27 1    
    39   18   78 1    
    40   19   20 am   BACKBONE|DICT|INTERRES
    41   19   79 1    
    42   20   21 2    
    43   20   22 1    
    44   22   23 1    
    45   22   24 1    
    46   22   80 1    
    47   23   81 1    
    48   23   82 1    
    49   23   83 1    
    50   24   25 am   BACKBONE|DICT|INTERRES
    51   24   84 1    
    52   25   26 2    
    53   27   28 2    
    54   27   29 am   BACKBONE|DICT|INTERRES
    55   29   30 1    
    56   29   85 1    
    57   30   31 1    
    58   30   32 1    
    59   30   86 1    
    60   31   87 1    
    61   31   88 1    
    62   31   89 1    
    63   32   33 2    
    64   32   34 am   BACKBONE|DICT|INTERRES
    65   34   35 1    
    66   34   90 1    
    67   35   36 1    
    68   35   37 1    
    69   35   91 1    
    70   36   92 1    
    71   36   93 1    
    72   36   94 1    
    73   37   38 2    
    74   37   39 am   BACKBONE|DICT|INTERRES
    75   39   40 1    
    76   39   95 1    
    77   40   41 1    
    78   40   42 1    
    79   40   96 1    
    80   41   97 1    
    81   41   98 1    
    82   41   99 1    
    83   42   43 2    
    84   42   44 am   BACKBONE|DICT|INTERRES
    85   44   45 1    
    86   44  100 1    
    87   45   46 1    
    88   45   47 1    
    89   45  101 1    
    90   46  102 1    
    91   46  103 1    
    92   46  104 1    
    93   47   48 2    
    94   47   49 am   BACKBONE|DICT|INTERRES
    95   49   50 1    
    96   49  105 1    
    97   50   51 1    
    98   50   52 1    
    99   50  106 1    
   100   51  107 1    
   101   51  108 1    
   102   51  109 1    
   103   52   53 2    
   104   52   54 am   BACKBONE|DICT|INTERRES
   105   54   55 1    
   106   54  110 1    
   107   55   56 1    
   108   55   59 1    
   109   55  111 1    
   110   56   57 am   BACKBONE|DICT|INTERRES
   111   56   58 2    
   112   57  112 1    
   113   57  113 1    
   114   59   60 1    
   115   59  114 1    
   116   59  115 1    
   117   60   61 1    
   118   61  116 1    
   119   61  117 1    
@<TRIPOS>SUBSTRUCTURE
     1 UNK         1 GROUP             0       ****    0 ROOT    
