@<TRIPOS>MOLECULE
3R8
117   119    1
SMALL
USER_CHARGES


@<TRIPOS>ATOM
      1 CA         21.7086  -24.6091  -40.4670 C.3       0 UNK        -0.2013 
      2 C          20.5415  -24.2713  -41.3818 C.2       0 UNK         0.4866 
      3 O          19.9814  -23.1790  -41.2819 O.2       0 UNK        -0.5176 
      4 N          20.1710  -25.2007  -42.2676 N.am      1 UNK        -0.4884 
      5 CA         19.1251  -25.0290  -43.2775 C.3       1 UNK         0.0853 
      6 C6         18.3947  -26.3665  -43.5712 C.3       10 UNK        -0.0849 
      7 S7         17.6322  -27.1005  -42.0860 S.3       10 UNK        -0.2776 
      8 C8         16.5853  -28.4024  -42.8126 C.3       10 UNK         0.0316 
      9 C9         17.3925  -29.4354  -43.5888 C.ar      10 UNK        -0.0863 
     10 C10        18.1600  -30.3882  -42.9118 C.ar      10 UNK        -0.1009 
     11 C11        18.8899  -31.3470  -43.6197 C.ar      10 UNK        -0.0712 
     12 C12        18.8414  -31.3549  -45.0176 C.ar      10 UNK        -0.0894 
     13 C13        18.0651  -30.4179  -45.7068 C.ar      10 UNK        -0.0745 
     14 C14        17.3460  -29.4590  -44.9861 C.ar      10 UNK        -0.0972 
     15 C15        17.9661  -30.4704  -47.2266 C.3       10 UNK         0.0209 
     16 S16        19.4205  -29.7522  -48.0528 S.3       10 UNK        -0.2568 
     17 C17        19.2292  -27.9821  -47.6442 C.3       10 UNK        -0.0983 
     18 CA         20.5018  -27.1093  -47.8504 C.3       3 UNK         0.0876 
     19 N          20.3320  -25.7642  -47.3138 N.am      3 UNK        -0.4424 
     20 C          19.4715  -24.8378  -47.7451 C.2       2 UNK         0.4918 
     21 O          18.7806  -24.9629  -48.7573 O.2       2 UNK        -0.4875 
     22 CA         19.3272  -23.5864  -46.8498 C.3       2 UNK         0.0481 
     23 CB         18.3085  -22.5739  -47.4052 C.3       2 UNK        -0.1831 
     24 N          18.9387  -23.9561  -45.4814 N.am      2 UNK        -0.4498 
     25 C          19.7655  -24.4864  -44.5693 C.2       1 UNK         0.5027 
     26 O          20.9764  -24.6278  -44.7698 O.2       1 UNK        -0.4969 
     27 C          21.7626  -27.7027  -47.1989 C.2       3 UNK         0.5005 
     28 O          22.7576  -27.9285  -47.8902 O.2       3 UNK        -0.5279 
     29 N          21.6986  -27.9351  -45.8819 N.am      4 UNK        -0.4463 
     30 CA         22.7238  -28.6000  -45.0843 C.3       4 UNK         0.0283 
     31 CB         22.6288  -30.1228  -45.2940 C.3       4 UNK        -0.1875 
     32 C          22.5682  -28.1992  -43.6099 C.2       4 UNK         0.4949 
     33 O          21.6186  -27.4973  -43.2558 O.2       4 UNK        -0.5039 
     34 N          23.5221  -28.6304  -42.7766 N.am      5 UNK        -0.4663 
     35 CA         23.7638  -28.1828  -41.3981 C.3       5 UNK         0.0242 
     36 CB         25.1868  -28.6147  -40.9975 C.3       5 UNK        -0.1982 
     37 C          22.7134  -28.5727  -40.3293 C.2       5 UNK         0.5017 
     38 O          23.0806  -28.7334  -39.1642 O.2       5 UNK        -0.5012 
     39 N          21.4332  -28.6710  -40.7097 N.am      6 UNK        -0.4439 
     40 CA         20.2566  -28.8888  -39.8593 C.3       6 UNK         0.0297 
     41 CB         19.9379  -27.6117  -39.0494 C.3       6 UNK        -0.2006 
     42 C          20.3658  -30.1579  -38.9913 C.2       6 UNK         0.4892 
     43 O          20.1741  -31.2611  -39.5005 O.2       6 UNK        -0.5089 
     44 N          20.6729  -29.9887  -37.6988 N.am      7 UNK        -0.4243 
     45 CA         20.8938  -31.0801  -36.7476 C.3       7 UNK         0.0196 
     46 CB         20.8405  -30.5151  -35.3187 C.3       7 UNK        -0.2007 
     47 C          22.2172  -31.8339  -36.9775 C.2       7 UNK         0.5020 
     48 O          22.3427  -32.9698  -36.5201 O.2       7 UNK        -0.5147 
     49 N          23.1782  -31.2020  -37.6648 N.am      8 UNK        -0.4734 
     50 CA         24.5131  -31.7386  -37.9357 C.3       8 UNK         0.0238 
     51 CB         25.5572  -30.6479  -37.6340 C.3       8 UNK        -0.1912 
     52 C          24.6561  -32.2993  -39.3636 C.2       8 UNK         0.5038 
     53 O          25.7873  -32.4843  -39.8162 O.2       8 UNK        -0.5046 
     54 N          23.5352  -32.5745  -40.0488 N.am      9 UNK        -0.4200 
     55 CA         23.4960  -33.3103  -41.3251 C.3       9 UNK         0.0839 
     56 C          24.1272  -34.7278  -41.2133 C.2       9 UNK         0.5513 
     57 N          24.8504  -35.1674  -42.2339 N.am      9 UNK        -0.7519 
     58 O          23.9252  -35.4448  -40.2351 O.2       9 UNK        -0.4960 
     59 C59        22.0522  -33.4317  -41.8750 C.3       10 UNK        -0.0876 
     60 S60        21.3815  -31.8605  -42.5002 S.3       10 UNK        -0.2414 
     61 C61        19.6873  -32.4058  -42.8737 C.3       10 UNK         0.0169 
     62 H62        22.5628  -23.9725  -40.6956 H         1 UNK         0.0903 
     63 H63        21.4296  -24.4487  -39.4259 H         1 UNK         0.0903 
     64 H64        22.0164  -25.6472  -40.5755 H         1 UNK         0.0903 
     65 H65        20.7239  -26.0456  -42.3862 H         1 UNK         0.3096 
     66 H66        18.3917  -24.2996  -42.9264 H         1 UNK         0.1121 
     67 H67        19.0836  -27.1009  -43.9920 H         1 UNK         0.0849 
     68 H68        17.6108  -26.2201  -44.3166 H         1 UNK         0.0849 
     69 H69        15.8298  -27.9406  -43.4503 H         1 UNK         0.0865 
     70 H70        16.0388  -28.9018  -42.0113 H         1 UNK         0.0865 
     71 H71        18.1808  -30.3933  -41.8314 H         1 UNK         0.1346 
     72 H72        19.3953  -32.1012  -45.5707 H         1 UNK         0.1412 
     73 H73        16.7398  -28.7362  -45.5151 H         1 UNK         0.1426 
     74 H74        17.0671  -29.9581  -47.5730 H         1 UNK         0.0716 
     75 H75        17.8622  -31.5090  -47.5440 H         1 UNK         0.0716 
     76 H76        18.9006  -27.8971  -46.6088 H         1 UNK         0.0695 
     77 H77        18.4086  -27.5936  -48.2485 H         1 UNK         0.0695 
     78 H78        20.6945  -27.0264  -48.9222 H         1 UNK         0.0983 
     79 H79        20.8748  -25.5436  -46.4823 H         1 UNK         0.3095 
     80 H80        20.3007  -23.0923  -46.8213 H         1 UNK         0.0454 
     81 H81        18.2574  -21.6803  -46.7831 H         1 UNK         0.0851 
     82 H82        17.3059  -22.9989  -47.4662 H         1 UNK         0.0851 
     83 H83        18.5870  -22.2508  -48.4092 H         1 UNK         0.0851 
     84 H84        17.9528  -23.8952  -45.2685 H         1 UNK         0.2976 
     85 H85        20.8807  -27.6635  -45.3526 H         1 UNK         0.3116 
     86 H86        23.7068  -28.2525  -45.4089 H         1 UNK         0.0646 
     87 H87        23.3314  -30.6669  -44.6624 H         1 UNK         0.0847 
     88 H88        22.8517  -30.3946  -46.3258 H         1 UNK         0.0847 
     89 H89        21.6278  -30.4898  -45.0690 H         1 UNK         0.0847 
     90 H90        24.2267  -29.2455  -43.1569 H         1 UNK         0.3040 
     91 H91        23.7597  -27.0915  -41.4215 H         1 UNK         0.1015 
     92 H92        25.2667  -29.6985  -40.9068 H         1 UNK         0.0786 
     93 H93        25.4766  -28.1793  -40.0406 H         1 UNK         0.0786 
     94 H94        25.9255  -28.2832  -41.7275 H         1 UNK         0.0786 
     95 H95        21.2438  -28.5142  -41.6955 H         1 UNK         0.3172 
     96 H96        19.4201  -29.0543  -40.5358 H         1 UNK         0.0595 
     97 H97        20.7741  -27.2891  -38.4285 H         1 UNK         0.0839 
     98 H98        19.0752  -27.7617  -38.3989 H         1 UNK         0.0839 
     99 H99        19.6867  -26.7863  -39.7148 H         1 UNK         0.0839 
    100 H100       20.8433  -29.0504  -37.3673 H         1 UNK         0.2998 
    101 H101       20.0825  -31.8027  -36.8610 H         1 UNK         0.0822 
    102 H102       19.8813  -30.0386  -35.1152 H         1 UNK         0.0787 
    103 H103       20.9694  -31.3080  -34.5805 H         1 UNK         0.0787 
    104 H104       21.6266  -29.7787  -35.1463 H         1 UNK         0.0787 
    105 H105       22.9870  -30.2792  -38.0509 H         1 UNK         0.3055 
    106 H106       24.7168  -32.5761  -37.2647 H         1 UNK         0.1106 
    107 H107       26.5731  -31.0220  -37.7675 H         1 UNK         0.0828 
    108 H108       25.4386  -29.7842  -38.2863 H         1 UNK         0.0828 
    109 H109       25.4777  -30.3001  -36.6041 H         1 UNK         0.0828 
    110 H110       22.6437  -32.3768  -39.6175 H         1 UNK         0.2931 
    111 H111       24.0888  -32.7360  -42.0403 H         1 UNK         0.0412 
    112 H112       25.0125  -34.5904  -43.0449 H         1 UNK         0.3472 
    113 H113       25.2538  -36.0905  -42.1881 H         1 UNK         0.3472 
    114 H114       21.3835  -33.8282  -41.1082 H         1 UNK         0.0970 
    115 H115       22.0150  -34.1399  -42.7058 H         1 UNK         0.0970 
    116 H116       19.7247  -33.3223  -43.4646 H         1 UNK         0.0612 
    117 H117       19.1835  -32.6621  -41.9403 H         1 UNK         0.0612 
@<TRIPOS>BOND
     1    1    2 1    
     2    1   62 1    
     3    1   63 1    
     4    1   64 1    
     5    2    3 2    
     6    2    4 am   BACKBONE|DICT|INTERRES
     7    4    5 1    
     8    4   65 1    
     9    5    6 1    
    10    5   25 1    
    11    5   66 1    
    12    6    7 1    
    13    6   67 1    
    14    6   68 1    
    15    7    8 1    
    16    8    9 1    
    17    8   69 1    
    18    8   70 1    
    19    9   10 ar   
    20    9   14 ar   
    21   10   11 ar   
    22   10   71 1    
    23   11   12 ar   
    24   11   61 1    
    25   12   13 ar   
    26   12   72 1    
    27   13   14 ar   
    28   13   15 1    
    29   14   73 1    
    30   15   16 1    
    31   15   74 1    
    32   15   75 1    
    33   16   17 1    
    34   17   18 1    
    35   17   76 1    
    36   17   77 1    
    37   18   19 1    
    38   18   27 1    
    39   18   78 1    
    40   19   20 am   BACKBONE|DICT|INTERRES
    41   19   79 1    
    42   20   21 2    
    43   20   22 1    
    44   22   23 1    
    45   22   24 1    
    46   22   80 1    
    47   23   81 1    
    48   23   82 1    
    49   23   83 1    
    50   24   25 am   BACKBONE|DICT|INTERRES
    51   24   84 1    
    52   25   26 2    
    53   27   28 2    
    54   27   29 am   BACKBONE|DICT|INTERRES
    55   29   30 1    
    56   29   85 1    
    57   30   31 1    
    58   30   32 1    
    59   30   86 1    
    60   31   87 1    
    61   31   88 1    
    62   31   89 1    
    63   32   33 2    
    64   32   34 am   BACKBONE|DICT|INTERRES
    65   34   35 1    
    66   34   90 1    
    67   35   36 1    
    68   35   37 1    
    69   35   91 1    
    70   36   92 1    
    71   36   93 1    
    72   36   94 1    
    73   37   38 2    
    74   37   39 am   BACKBONE|DICT|INTERRES
    75   39   40 1    
    76   39   95 1    
    77   40   41 1    
    78   40   42 1    
    79   40   96 1    
    80   41   97 1    
    81   41   98 1    
    82   41   99 1    
    83   42   43 2    
    84   42   44 am   BACKBONE|DICT|INTERRES
    85   44   45 1    
    86   44  100 1    
    87   45   46 1    
    88   45   47 1    
    89   45  101 1    
    90   46  102 1    
    91   46  103 1    
    92   46  104 1    
    93   47   48 2    
    94   47   49 am   BACKBONE|DICT|INTERRES
    95   49   50 1    
    96   49  105 1    
    97   50   51 1    
    98   50   52 1    
    99   50  106 1    
   100   51  107 1    
   101   51  108 1    
   102   51  109 1    
   103   52   53 2    
   104   52   54 am   BACKBONE|DICT|INTERRES
   105   54   55 1    
   106   54  110 1    
   107   55   56 1    
   108   55   59 1    
   109   55  111 1    
   110   56   57 am   BACKBONE|DICT|INTERRES
   111   56   58 2    
   112   57  112 1    
   113   57  113 1    
   114   59   60 1    
   115   59  114 1    
   116   59  115 1    
   117   60   61 1    
   118   61  116 1    
   119   61  117 1    
@<TRIPOS>SUBSTRUCTURE
     1 UNK         1 GROUP             0       ****    0 ROOT    
