@<TRIPOS>MOLECULE
3R8
117   119    1
SMALL
USER_CHARGES


@<TRIPOS>ATOM
      1 CA         16.5978  -24.5453  -45.9456 C.3       0 UNK        -0.2013 
      2 C          15.9393  -23.9002  -44.7278 C.2       0 UNK         0.4866 
      3 O          15.3615  -22.8230  -44.8548 O.2       0 UNK        -0.5176 
      4 N          16.0006  -24.5025  -43.5302 N.am      1 UNK        -0.4884 
      5 CA         16.6682  -25.7748  -43.2115 C.3       1 UNK         0.0853 
      6 C6         15.9372  -26.5443  -42.0714 C.3       10 UNK        -0.0849 
      7 S7         15.5098  -28.2623  -42.5316 S.3       10 UNK        -0.2776 
      8 C8         16.9460  -29.2094  -41.9119 C.3       10 UNK         0.0316 
      9 C9         17.7293  -29.9330  -43.0074 C.ar      10 UNK        -0.0863 
     10 C10        18.2399  -31.2120  -42.7636 C.ar      10 UNK        -0.1009 
     11 C11        18.9852  -31.8801  -43.7404 C.ar      10 UNK        -0.0712 
     12 C12        19.2288  -31.2596  -44.9693 C.ar      10 UNK        -0.0894 
     13 C13        18.7345  -29.9783  -45.2276 C.ar      10 UNK        -0.0745 
     14 C14        17.9832  -29.3288  -44.2439 C.ar      10 UNK        -0.0972 
     15 C15        18.9864  -29.3188  -46.5810 C.3       10 UNK         0.0209 
     16 S16        19.5033  -27.5724  -46.4625 S.3       10 UNK        -0.2568 
     17 C17        21.1721  -27.7377  -45.7474 C.3       10 UNK        -0.0983 
     18 CA         21.7703  -26.3588  -45.3686 C.3       3 UNK         0.0876 
     19 N          20.9706  -25.7092  -44.3289 N.am      3 UNK        -0.4424 
     20 C          20.9725  -24.4078  -44.0279 C.2       2 UNK         0.4918 
     21 O          21.6036  -23.5611  -44.6636 O.2       2 UNK        -0.4875 
     22 CA         20.0996  -23.9914  -42.8230 C.3       2 UNK         0.0481 
     23 CB         20.1894  -22.4839  -42.5219 C.3       2 UNK        -0.1831 
     24 N          18.6889  -24.3564  -42.9963 N.am      2 UNK        -0.4498 
     25 C          18.1767  -25.5941  -42.9146 C.2       1 UNK         0.5027 
     26 O          18.8603  -26.5781  -42.6329 O.2       1 UNK        -0.4969 
     27 C          23.2391  -26.4965  -44.9161 C.2       3 UNK         0.5005 
     28 O          23.5373  -26.3631  -43.7259 O.2       3 UNK        -0.5279 
     29 N          24.1341  -26.8117  -45.8651 N.am      4 UNK        -0.4463 
     30 CA         25.5815  -26.9796  -45.6541 C.3       4 UNK         0.0283 
     31 CB         26.2594  -27.2623  -47.0046 C.3       4 UNK        -0.1875 
     32 C          25.9716  -28.0603  -44.6244 C.2       4 UNK         0.4949 
     33 O          27.0556  -27.9804  -44.0472 O.2       4 UNK        -0.5039 
     34 N          25.0756  -29.0285  -44.3905 N.am      5 UNK        -0.4663 
     35 CA         25.1854  -30.0509  -43.3465 C.3       5 UNK         0.0242 
     36 CB         24.2517  -31.2176  -43.7085 C.3       5 UNK        -0.1982 
     37 C          24.8725  -29.5319  -41.9271 C.2       5 UNK         0.5017 
     38 O          25.0047  -30.3018  -40.9754 O.2       5 UNK        -0.5012 
     39 N          24.4215  -28.2719  -41.7984 N.am      6 UNK        -0.4439 
     40 CA         24.0464  -27.5792  -40.5565 C.3       6 UNK         0.0297 
     41 CB         25.2841  -27.3572  -39.6614 C.3       6 UNK        -0.2006 
     42 C          22.8821  -28.2525  -39.8017 C.2       6 UNK         0.4892 
     43 O          22.7893  -28.1244  -38.5801 O.2       6 UNK        -0.5089 
     44 N          22.0334  -28.9754  -40.5493 N.am      7 UNK        -0.4243 
     45 CA         20.9063  -29.7990  -40.0972 C.3       7 UNK         0.0196 
     46 CB         19.8199  -28.9264  -39.4347 C.3       7 UNK        -0.2007 
     47 C          21.3073  -31.0006  -39.2141 C.2       7 UNK         0.5020 
     48 O          20.4274  -31.6158  -38.6105 O.2       7 UNK        -0.5147 
     49 N          22.6024  -31.3585  -39.1711 N.am      8 UNK        -0.4734 
     50 CA         23.1328  -32.4882  -38.3910 C.3       8 UNK         0.0238 
     51 CB         24.6685  -32.4338  -38.3966 C.3       8 UNK        -0.1912 
     52 C          22.6387  -33.8600  -38.8865 C.2       8 UNK         0.5038 
     53 O          22.5932  -34.8134  -38.1086 O.2       8 UNK        -0.5046 
     54 N          22.2549  -33.9117  -40.1650 N.am      9 UNK        -0.4200 
     55 CA         21.5269  -35.0006  -40.8249 C.3       9 UNK         0.0839 
     56 C          20.0596  -35.1994  -40.3393 C.2       9 UNK         0.5513 
     57 N          19.4700  -34.2914  -39.5692 N.am      9 UNK        -0.7519 
     58 O          19.4439  -36.2100  -40.6678 O.2       9 UNK        -0.4960 
     59 C59        21.6086  -34.8588  -42.3710 C.3       10 UNK        -0.0876 
     60 S60        21.2799  -33.1600  -42.9653 S.3       10 UNK        -0.2414 
     61 C61        19.5390  -33.2675  -43.4640 C.3       10 UNK         0.0169 
     62 H62        17.6432  -24.7879  -45.7576 H         1 UNK         0.0903 
     63 H63        16.0709  -25.4553  -46.2312 H         1 UNK         0.0903 
     64 H64        16.5691  -23.8663  -46.7977 H         1 UNK         0.0903 
     65 H65        15.5571  -24.0433  -42.7462 H         1 UNK         0.3096 
     66 H66        16.6234  -26.3920  -44.1079 H         1 UNK         0.1121 
     67 H67        14.9905  -26.0573  -41.8312 H         1 UNK         0.0849 
     68 H68        16.4935  -26.5355  -41.1315 H         1 UNK         0.0849 
     69 H69        17.6303  -28.5535  -41.3765 H         1 UNK         0.0865 
     70 H70        16.5794  -29.9271  -41.1764 H         1 UNK         0.0865 
     71 H71        18.0655  -31.6887  -41.8083 H         1 UNK         0.1346 
     72 H72        19.8086  -31.7774  -45.7213 H         1 UNK         0.1412 
     73 H73        17.6032  -28.3411  -44.4459 H         1 UNK         0.1426 
     74 H74        18.0662  -29.3689  -47.1642 H         1 UNK         0.0716 
     75 H75        19.7403  -29.8684  -47.1469 H         1 UNK         0.0716 
     76 H76        21.7947  -28.2510  -46.4824 H         1 UNK         0.0695 
     77 H77        21.1221  -28.3891  -44.8722 H         1 UNK         0.0695 
     78 H78        21.7616  -25.7177  -46.2531 H         1 UNK         0.0983 
     79 H79        20.3989  -26.3189  -43.7521 H         1 UNK         0.3095 
     80 H80        20.4866  -24.5236  -41.9514 H         1 UNK         0.0454 
     81 H81        19.8117  -21.8825  -43.3497 H         1 UNK         0.0851 
     82 H82        21.2225  -22.1818  -42.3442 H         1 UNK         0.0851 
     83 H83        19.6212  -22.2222  -41.6293 H         1 UNK         0.0851 
     84 H84        18.0578  -23.6055  -43.2373 H         1 UNK         0.2976 
     85 H85        23.8102  -26.9150  -46.8168 H         1 UNK         0.3116 
     86 H86        25.9632  -26.0292  -45.2752 H         1 UNK         0.0646 
     87 H87        25.8950  -28.1869  -47.4541 H         1 UNK         0.0847 
     88 H88        27.3394  -27.3627  -46.8864 H         1 UNK         0.0847 
     89 H89        26.0896  -26.4521  -47.7139 H         1 UNK         0.0847 
     90 H90        24.2210  -29.0194  -44.9272 H         1 UNK         0.3040 
     91 H91        26.2119  -30.4239  -43.3294 H         1 UNK         0.1015 
     92 H92        23.2085  -30.9015  -43.7478 H         1 UNK         0.0786 
     93 H93        24.3211  -32.0216  -42.9741 H         1 UNK         0.0786 
     94 H94        24.5084  -31.6471  -44.6770 H         1 UNK         0.0786 
     95 H95        24.2952  -27.7143  -42.6413 H         1 UNK         0.3172 
     96 H96        23.6789  -26.5979  -40.8601 H         1 UNK         0.0595 
     97 H97        25.6671  -28.2960  -39.2601 H         1 UNK         0.0839 
     98 H98        25.0444  -26.7156  -38.8126 H         1 UNK         0.0839 
     99 H99        26.0905  -26.8737  -40.2127 H         1 UNK         0.0839 
    100 H100       22.2161  -29.0028  -41.5423 H         1 UNK         0.2998 
    101 H101       20.4738  -30.2286  -41.0023 H         1 UNK         0.0822 
    102 H102       19.5680  -28.0673  -40.0567 H         1 UNK         0.0787 
    103 H103       18.9032  -29.4959  -39.2772 H         1 UNK         0.0787 
    104 H104       20.1391  -28.5522  -38.4617 H         1 UNK         0.0787 
    105 H105       23.2776  -30.8189  -39.7018 H         1 UNK         0.3055 
    106 H106       22.7871  -32.3735  -37.3612 H         1 UNK         0.1106 
    107 H107       25.0728  -32.5601  -39.4018 H         1 UNK         0.0828 
    108 H108       25.0896  -33.2246  -37.7743 H         1 UNK         0.0828 
    109 H109       25.0345  -31.4841  -38.0060 H         1 UNK         0.0828 
    110 H110       22.3335  -33.0660  -40.7104 H         1 UNK         0.2931 
    111 H111       22.0439  -35.9249  -40.5606 H         1 UNK         0.0412 
    112 H112       19.9506  -33.4463  -39.2809 H         1 UNK         0.3472 
    113 H113       18.5231  -34.4514  -39.2651 H         1 UNK         0.3472 
    114 H114       20.9545  -35.5706  -42.8787 H         1 UNK         0.0970 
    115 H115       22.6175  -35.1185  -42.6949 H         1 UNK         0.0970 
    116 H116       19.4524  -33.8931  -44.3536 H         1 UNK         0.0612 
    117 H117       18.9587  -33.7557  -42.6801 H         1 UNK         0.0612 
@<TRIPOS>BOND
     1    1    2 1    
     2    1   62 1    
     3    1   63 1    
     4    1   64 1    
     5    2    3 2    
     6    2    4 am   BACKBONE|DICT|INTERRES
     7    4    5 1    
     8    4   65 1    
     9    5    6 1    
    10    5   25 1    
    11    5   66 1    
    12    6    7 1    
    13    6   67 1    
    14    6   68 1    
    15    7    8 1    
    16    8    9 1    
    17    8   69 1    
    18    8   70 1    
    19    9   10 ar   
    20    9   14 ar   
    21   10   11 ar   
    22   10   71 1    
    23   11   12 ar   
    24   11   61 1    
    25   12   13 ar   
    26   12   72 1    
    27   13   14 ar   
    28   13   15 1    
    29   14   73 1    
    30   15   16 1    
    31   15   74 1    
    32   15   75 1    
    33   16   17 1    
    34   17   18 1    
    35   17   76 1    
    36   17   77 1    
    37   18   19 1    
    38   18   27 1    
    39   18   78 1    
    40   19   20 am   BACKBONE|DICT|INTERRES
    41   19   79 1    
    42   20   21 2    
    43   20   22 1    
    44   22   23 1    
    45   22   24 1    
    46   22   80 1    
    47   23   81 1    
    48   23   82 1    
    49   23   83 1    
    50   24   25 am   BACKBONE|DICT|INTERRES
    51   24   84 1    
    52   25   26 2    
    53   27   28 2    
    54   27   29 am   BACKBONE|DICT|INTERRES
    55   29   30 1    
    56   29   85 1    
    57   30   31 1    
    58   30   32 1    
    59   30   86 1    
    60   31   87 1    
    61   31   88 1    
    62   31   89 1    
    63   32   33 2    
    64   32   34 am   BACKBONE|DICT|INTERRES
    65   34   35 1    
    66   34   90 1    
    67   35   36 1    
    68   35   37 1    
    69   35   91 1    
    70   36   92 1    
    71   36   93 1    
    72   36   94 1    
    73   37   38 2    
    74   37   39 am   BACKBONE|DICT|INTERRES
    75   39   40 1    
    76   39   95 1    
    77   40   41 1    
    78   40   42 1    
    79   40   96 1    
    80   41   97 1    
    81   41   98 1    
    82   41   99 1    
    83   42   43 2    
    84   42   44 am   BACKBONE|DICT|INTERRES
    85   44   45 1    
    86   44  100 1    
    87   45   46 1    
    88   45   47 1    
    89   45  101 1    
    90   46  102 1    
    91   46  103 1    
    92   46  104 1    
    93   47   48 2    
    94   47   49 am   BACKBONE|DICT|INTERRES
    95   49   50 1    
    96   49  105 1    
    97   50   51 1    
    98   50   52 1    
    99   50  106 1    
   100   51  107 1    
   101   51  108 1    
   102   51  109 1    
   103   52   53 2    
   104   52   54 am   BACKBONE|DICT|INTERRES
   105   54   55 1    
   106   54  110 1    
   107   55   56 1    
   108   55   59 1    
   109   55  111 1    
   110   56   57 am   BACKBONE|DICT|INTERRES
   111   56   58 2    
   112   57  112 1    
   113   57  113 1    
   114   59   60 1    
   115   59  114 1    
   116   59  115 1    
   117   60   61 1    
   118   61  116 1    
   119   61  117 1    
@<TRIPOS>SUBSTRUCTURE
     1 UNK         1 GROUP             0       ****    0 ROOT    
