@<TRIPOS>MOLECULE
3R8
117   119    1
SMALL
USER_CHARGES


@<TRIPOS>ATOM
      1 CA         14.6079  -26.8356  -47.0345 C.3       0 UNK        -0.2013 
      2 C          15.8552  -27.2689  -46.2786 C.2       0 UNK         0.4866 
      3 O          16.9074  -27.4479  -46.8914 O.2       0 UNK        -0.5176 
      4 N          15.7391  -27.4454  -44.9557 N.am      1 UNK        -0.4884 
      5 CA         16.8283  -27.8296  -44.0493 C.3       1 UNK         0.0853 
      6 C6         16.2853  -28.2206  -42.6495 C.3       10 UNK        -0.0849 
      7 S7         15.7415  -29.9656  -42.6452 S.3       10 UNK        -0.2776 
      8 C8         16.8680  -30.7753  -41.4524 C.3       10 UNK         0.0316 
      9 C9         18.3106  -30.2955  -41.5570 C.ar      10 UNK        -0.0863 
     10 C10        19.0678  -30.5548  -42.7022 C.ar      10 UNK        -0.1009 
     11 C11        20.3762  -30.0745  -42.8113 C.ar      10 UNK        -0.0712 
     12 C12        20.9274  -29.3301  -41.7625 C.ar      10 UNK        -0.0894 
     13 C13        20.1739  -29.0541  -40.6164 C.ar      10 UNK        -0.0745 
     14 C14        18.8744  -29.5560  -40.5140 C.ar      10 UNK        -0.0972 
     15 C15        20.7407  -28.2095  -39.4831 C.3       10 UNK         0.0209 
     16 S16        19.9212  -26.5830  -39.4012 S.3       10 UNK        -0.2568 
     17 C17        21.2111  -25.4747  -40.0575 C.3       10 UNK        -0.0983 
     18 CA         21.4033  -25.5839  -41.5943 C.3       3 UNK         0.0876 
     19 N          20.1800  -25.3729  -42.3762 N.am      3 UNK        -0.4424 
     20 C          19.4604  -24.2509  -42.4892 C.2       2 UNK         0.4918 
     21 O          19.7092  -23.2126  -41.8762 O.2       2 UNK        -0.4875 
     22 CA         18.2688  -24.2643  -43.4723 C.3       2 UNK         0.0481 
     23 CB         18.7270  -23.7995  -44.8684 C.3       2 UNK        -0.1831 
     24 N          17.5008  -25.5192  -43.5696 N.am      2 UNK        -0.4498 
     25 C          17.9092  -26.7353  -43.9665 C.2       1 UNK         0.5027 
     26 O          19.0710  -27.0064  -44.2739 O.2       1 UNK        -0.4969 
     27 C          22.5754  -24.7258  -42.1184 C.2       3 UNK         0.5005 
     28 O          23.3658  -24.2030  -41.3296 O.2       3 UNK        -0.5279 
     29 N          22.6773  -24.6071  -43.4520 N.am      4 UNK        -0.4463 
     30 CA         23.7813  -23.9345  -44.1464 C.3       4 UNK         0.0283 
     31 CB         23.4137  -23.7455  -45.6268 C.3       4 UNK        -0.1875 
     32 C          25.1164  -24.6909  -44.0108 C.2       4 UNK         0.4949 
     33 O          26.1739  -24.0608  -43.9968 O.2       4 UNK        -0.5039 
     34 N          25.0363  -26.0199  -43.8888 N.am      5 UNK        -0.4663 
     35 CA         26.1319  -26.9338  -43.5936 C.3       5 UNK         0.0242 
     36 CB         26.9192  -27.2525  -44.8782 C.3       5 UNK        -0.1982 
     37 C          25.5261  -28.2049  -42.9855 C.2       5 UNK         0.5017 
     38 O          24.3615  -28.5076  -43.2631 O.2       5 UNK        -0.5012 
     39 N          26.3355  -28.9245  -42.1949 N.am      6 UNK        -0.4439 
     40 CA         26.0190  -30.1909  -41.5189 C.3       6 UNK         0.0297 
     41 CB         25.8717  -31.3249  -42.5593 C.3       6 UNK        -0.2006 
     42 C          24.8229  -30.0875  -40.5447 C.2       6 UNK         0.4892 
     43 O          24.5165  -28.9957  -40.0591 O.2       6 UNK        -0.5089 
     44 N          24.1942  -31.2284  -40.2438 N.am      7 UNK        -0.4243 
     45 CA         23.0144  -31.3511  -39.3962 C.3       7 UNK         0.0196 
     46 CB         23.4251  -31.4504  -37.9169 C.3       7 UNK        -0.2007 
     47 C          22.2348  -32.5908  -39.8391 C.2       7 UNK         0.5020 
     48 O          22.8564  -33.5821  -40.2317 O.2       7 UNK        -0.5147 
     49 N          20.8993  -32.5140  -39.7593 N.am      8 UNK        -0.4734 
     50 CA         19.8885  -33.5246  -40.1157 C.3       8 UNK         0.0238 
     51 CB         20.0281  -34.7942  -39.2528 C.3       8 UNK        -0.1912 
     52 C          19.8257  -33.8734  -41.6146 C.2       8 UNK         0.5038 
     53 O          18.7355  -33.8572  -42.1864 O.2       8 UNK        -0.5046 
     54 N          20.9839  -34.1695  -42.2149 N.am      9 UNK        -0.4200 
     55 CA         21.2058  -34.4144  -43.6491 C.3       9 UNK         0.0839 
     56 C          20.4455  -35.6422  -44.2385 C.2       9 UNK         0.5513 
     57 N          20.0391  -36.6127  -43.4287 N.am      9 UNK        -0.7519 
     58 O          20.2493  -35.7393  -45.4475 O.2       9 UNK        -0.4960 
     59 C59        21.0406  -33.1222  -44.4986 C.3       10 UNK        -0.0876 
     60 S60        22.2044  -31.8100  -43.9844 S.3       10 UNK        -0.2414 
     61 C61        21.1788  -30.3111  -44.0817 C.3       10 UNK         0.0169 
     62 H62        14.3551  -27.5736  -47.7953 H         1 UNK         0.0903 
     63 H63        13.7482  -26.7217  -46.3744 H         1 UNK         0.0903 
     64 H64        14.7829  -25.8813  -47.5304 H         1 UNK         0.0903 
     65 H65        14.8378  -27.3059  -44.5212 H         1 UNK         0.3096 
     66 H66        17.3282  -28.6986  -44.4850 H         1 UNK         0.1121 
     67 H67        17.0257  -28.0582  -41.8663 H         1 UNK         0.0849 
     68 H68        15.4405  -27.5907  -42.3662 H         1 UNK         0.0849 
     69 H69        16.8366  -31.8538  -41.6135 H         1 UNK         0.0865 
     70 H70        16.4816  -30.6098  -40.4455 H         1 UNK         0.0865 
     71 H71        18.6264  -31.1157  -43.5139 H         1 UNK         0.1346 
     72 H72        21.9402  -28.9594  -41.8491 H         1 UNK         0.1412 
     73 H73        18.2895  -29.3361  -39.6309 H         1 UNK         0.1426 
     74 H74        21.8199  -28.0868  -39.5879 H         1 UNK         0.0716 
     75 H75        20.5843  -28.7285  -38.5364 H         1 UNK         0.0716 
     76 H76        22.1428  -25.6984  -39.5344 H         1 UNK         0.0695 
     77 H77        20.9499  -24.4525  -39.7792 H         1 UNK         0.0695 
     78 H78        21.7072  -26.6085  -41.8041 H         1 UNK         0.0983 
     79 H79        19.8881  -26.1535  -42.9624 H         1 UNK         0.3095 
     80 H80        17.5601  -23.5227  -43.1003 H         1 UNK         0.0454 
     81 H81        17.8809  -23.6906  -45.5468 H         1 UNK         0.0851 
     82 H82        19.4300  -24.4989  -45.3218 H         1 UNK         0.0851 
     83 H83        19.2244  -22.8301  -44.8143 H         1 UNK         0.0851 
     84 H84        16.5239  -25.4284  -43.3272 H         1 UNK         0.2976 
     85 H85        21.9775  -25.0518  -44.0288 H         1 UNK         0.3116 
     86 H86        23.9123  -22.9472  -43.6980 H         1 UNK         0.0646 
     87 H87        24.2082  -23.2219  -46.1604 H         1 UNK         0.0847 
     88 H88        22.5057  -23.1527  -45.7390 H         1 UNK         0.0847 
     89 H89        23.2581  -24.6999  -46.1314 H         1 UNK         0.0847 
     90 H90        24.1276  -26.4669  -43.8870 H         1 UNK         0.3040 
     91 H91        26.7929  -26.4705  -42.8574 H         1 UNK         0.1015 
     92 H92        27.3598  -26.3535  -45.3095 H         1 UNK         0.0786 
     93 H93        26.2814  -27.7093  -45.6361 H         1 UNK         0.0786 
     94 H94        27.7356  -27.9469  -44.6761 H         1 UNK         0.0786 
     95 H95        27.2606  -28.5614  -42.0114 H         1 UNK         0.3172 
     96 H96        26.8868  -30.4237  -40.9001 H         1 UNK         0.0595 
     97 H97        24.9679  -31.2066  -43.1568 H         1 UNK         0.0839 
     98 H98        25.8326  -32.3075  -42.0885 H         1 UNK         0.0839 
     99 H99        26.7185  -31.3412  -43.2455 H         1 UNK         0.0839 
    100 H100       24.4726  -32.0915  -40.6935 H         1 UNK         0.2998 
    101 H101       22.3846  -30.4740  -39.5358 H         1 UNK         0.0822 
    102 H102       24.0703  -32.3112  -37.7363 H         1 UNK         0.0787 
    103 H103       23.9591  -30.5572  -37.5924 H         1 UNK         0.0787 
    104 H104       22.5499  -31.5560  -37.2744 H         1 UNK         0.0787 
    105 H105       20.5084  -31.6290  -39.4666 H         1 UNK         0.3055 
    106 H106       18.9260  -33.0715  -39.8711 H         1 UNK         0.1106 
    107 H107       19.2217  -35.4977  -39.4640 H         1 UNK         0.0828 
    108 H108       20.9679  -35.3156  -39.4361 H         1 UNK         0.0828 
    109 H109       19.9795  -34.5570  -38.1901 H         1 UNK         0.0828 
    110 H110       21.8185  -34.1350  -41.6348 H         1 UNK         0.2931 
    111 H111       22.2553  -34.7024  -43.7204 H         1 UNK         0.0412 
    112 H112       20.2009  -36.5486  -42.4364 H         1 UNK         0.3472 
    113 H113       19.5573  -37.4101  -43.8136 H         1 UNK         0.3472 
    114 H114       21.2339  -33.3249  -45.5533 H         1 UNK         0.0970 
    115 H115       20.0128  -32.7635  -44.4441 H         1 UNK         0.0970 
    116 H116       20.5190  -30.3669  -44.9489 H         1 UNK         0.0612 
    117 H117       21.8345  -29.4572  -44.2591 H         1 UNK         0.0612 
@<TRIPOS>BOND
     1    1    2 1    
     2    1   62 1    
     3    1   63 1    
     4    1   64 1    
     5    2    3 2    
     6    2    4 am   BACKBONE|DICT|INTERRES
     7    4    5 1    
     8    4   65 1    
     9    5    6 1    
    10    5   25 1    
    11    5   66 1    
    12    6    7 1    
    13    6   67 1    
    14    6   68 1    
    15    7    8 1    
    16    8    9 1    
    17    8   69 1    
    18    8   70 1    
    19    9   10 ar   
    20    9   14 ar   
    21   10   11 ar   
    22   10   71 1    
    23   11   12 ar   
    24   11   61 1    
    25   12   13 ar   
    26   12   72 1    
    27   13   14 ar   
    28   13   15 1    
    29   14   73 1    
    30   15   16 1    
    31   15   74 1    
    32   15   75 1    
    33   16   17 1    
    34   17   18 1    
    35   17   76 1    
    36   17   77 1    
    37   18   19 1    
    38   18   27 1    
    39   18   78 1    
    40   19   20 am   BACKBONE|DICT|INTERRES
    41   19   79 1    
    42   20   21 2    
    43   20   22 1    
    44   22   23 1    
    45   22   24 1    
    46   22   80 1    
    47   23   81 1    
    48   23   82 1    
    49   23   83 1    
    50   24   25 am   BACKBONE|DICT|INTERRES
    51   24   84 1    
    52   25   26 2    
    53   27   28 2    
    54   27   29 am   BACKBONE|DICT|INTERRES
    55   29   30 1    
    56   29   85 1    
    57   30   31 1    
    58   30   32 1    
    59   30   86 1    
    60   31   87 1    
    61   31   88 1    
    62   31   89 1    
    63   32   33 2    
    64   32   34 am   BACKBONE|DICT|INTERRES
    65   34   35 1    
    66   34   90 1    
    67   35   36 1    
    68   35   37 1    
    69   35   91 1    
    70   36   92 1    
    71   36   93 1    
    72   36   94 1    
    73   37   38 2    
    74   37   39 am   BACKBONE|DICT|INTERRES
    75   39   40 1    
    76   39   95 1    
    77   40   41 1    
    78   40   42 1    
    79   40   96 1    
    80   41   97 1    
    81   41   98 1    
    82   41   99 1    
    83   42   43 2    
    84   42   44 am   BACKBONE|DICT|INTERRES
    85   44   45 1    
    86   44  100 1    
    87   45   46 1    
    88   45   47 1    
    89   45  101 1    
    90   46  102 1    
    91   46  103 1    
    92   46  104 1    
    93   47   48 2    
    94   47   49 am   BACKBONE|DICT|INTERRES
    95   49   50 1    
    96   49  105 1    
    97   50   51 1    
    98   50   52 1    
    99   50  106 1    
   100   51  107 1    
   101   51  108 1    
   102   51  109 1    
   103   52   53 2    
   104   52   54 am   BACKBONE|DICT|INTERRES
   105   54   55 1    
   106   54  110 1    
   107   55   56 1    
   108   55   59 1    
   109   55  111 1    
   110   56   57 am   BACKBONE|DICT|INTERRES
   111   56   58 2    
   112   57  112 1    
   113   57  113 1    
   114   59   60 1    
   115   59  114 1    
   116   59  115 1    
   117   60   61 1    
   118   61  116 1    
   119   61  117 1    
@<TRIPOS>SUBSTRUCTURE
     1 UNK         1 GROUP             0       ****    0 ROOT    
