@<TRIPOS>MOLECULE
3R8
117   119    1
SMALL
USER_CHARGES


@<TRIPOS>ATOM
      1 CA         16.2727  -27.4694  -48.5740 C.3       0 UNK        -0.2013 
      2 C          16.8027  -27.2884  -47.1602 C.2       0 UNK         0.4866 
      3 O          17.9234  -27.7055  -46.8650 O.2       0 UNK        -0.5176 
      4 N          16.0181  -26.6522  -46.2812 N.am      1 UNK        -0.4884 
      5 CA         16.3243  -26.4188  -44.8614 C.3       1 UNK         0.0853 
      6 C6         15.0325  -26.2507  -44.0202 C.3       10 UNK        -0.0849 
      7 S7         14.0253  -27.7739  -44.0390 S.3       10 UNK        -0.2776 
      8 C8         14.3193  -28.4513  -42.3711 C.3       10 UNK         0.0316 
      9 C9         15.7946  -28.7124  -42.0896 C.ar      10 UNK        -0.0863 
     10 C10        16.4673  -29.7536  -42.7382 C.ar      10 UNK        -0.1009 
     11 C11        17.8168  -30.0025  -42.4674 C.ar      10 UNK        -0.0712 
     12 C12        18.4855  -29.2158  -41.5246 C.ar      10 UNK        -0.0894 
     13 C13        17.8320  -28.1593  -40.8853 C.ar      10 UNK        -0.0745 
     14 C14        16.4850  -27.9162  -41.1697 C.ar      10 UNK        -0.0972 
     15 C15        18.5673  -27.2818  -39.8811 C.3       10 UNK         0.0209 
     16 S16        19.0902  -25.7046  -40.6314 S.3       10 UNK        -0.2568 
     17 C17        20.8324  -26.0266  -41.0755 C.3       10 UNK        -0.0983 
     18 CA         21.0034  -26.7566  -42.4362 C.3       3 UNK         0.0876 
     19 N          20.3188  -26.1133  -43.5620 N.am      3 UNK        -0.4424 
     20 C          20.5327  -24.8869  -44.0589 C.2       2 UNK         0.4918 
     21 O          21.4041  -24.1181  -43.6531 O.2       2 UNK        -0.4875 
     22 CA         19.6242  -24.4508  -45.2256 C.3       2 UNK         0.0481 
     23 CB         20.4148  -24.4375  -46.5440 C.3       2 UNK        -0.1831 
     24 N          18.4576  -25.3257  -45.3812 N.am      2 UNK        -0.4498 
     25 C          17.3295  -25.2597  -44.6614 C.2       1 UNK         0.5027 
     26 O          17.0839  -24.3486  -43.8693 O.2       1 UNK        -0.4969 
     27 C          22.4655  -27.1435  -42.7426 C.2       3 UNK         0.5005 
     28 O          23.2536  -27.3421  -41.8165 O.2       3 UNK        -0.5279 
     29 N          22.7990  -27.3099  -44.0284 N.am      4 UNK        -0.4463 
     30 CA         24.0523  -27.9173  -44.4676 C.3       4 UNK         0.0283 
     31 CB         24.4385  -27.3460  -45.8412 C.3       4 UNK        -0.1875 
     32 C          23.8602  -29.4458  -44.5544 C.2       4 UNK         0.4949 
     33 O          22.8155  -29.8713  -45.0458 O.2       4 UNK        -0.5039 
     34 N          24.8199  -30.2836  -44.1410 N.am      5 UNK        -0.4663 
     35 CA         26.0500  -29.9633  -43.4174 C.3       5 UNK         0.0242 
     36 CB         27.1064  -31.0296  -43.7502 C.3       5 UNK        -0.1982 
     37 C          25.7789  -29.9535  -41.9046 C.2       5 UNK         0.5017 
     38 O          25.2074  -30.9216  -41.3973 O.2       5 UNK        -0.5012 
     39 N          26.2244  -28.8874  -41.2219 N.am      6 UNK        -0.4439 
     40 CA         26.3332  -28.7270  -39.7611 C.3       6 UNK         0.0297 
     41 CB         27.5657  -29.5094  -39.2594 C.3       6 UNK        -0.2006 
     42 C          25.0657  -29.0637  -38.9427 C.2       6 UNK         0.4892 
     43 O          25.1833  -29.5700  -37.8255 O.2       6 UNK        -0.5089 
     44 N          23.8811  -28.8090  -39.5184 N.am      7 UNK        -0.4243 
     45 CA         22.5436  -29.1553  -39.0132 C.3       7 UNK         0.0196 
     46 CB         22.2127  -28.3660  -37.7296 C.3       7 UNK        -0.2007 
     47 C          22.2793  -30.6694  -38.8599 C.2       7 UNK         0.5020 
     48 O          21.2566  -31.0459  -38.2872 O.2       7 UNK        -0.5147 
     49 N          23.1677  -31.5119  -39.4028 N.am      8 UNK        -0.4734 
     50 CA         23.0338  -32.9697  -39.4597 C.3       8 UNK         0.0238 
     51 CB         24.4192  -33.5972  -39.2269 C.3       8 UNK        -0.1912 
     52 C          22.4450  -33.4372  -40.8029 C.2       8 UNK         0.5038 
     53 O          22.2061  -34.6340  -40.9680 O.2       8 UNK        -0.5046 
     54 N          22.2381  -32.4935  -41.7320 N.am      9 UNK        -0.4200 
     55 CA         21.7252  -32.6893  -43.0970 C.3       9 UNK         0.0839 
     56 C          22.7352  -33.3858  -44.0572 C.2       9 UNK         0.5513 
     57 N          24.0245  -33.4279  -43.7349 N.am      9 UNK        -0.7519 
     58 O          22.3563  -33.8699  -45.1204 O.2       9 UNK        -0.4960 
     59 C59        20.2960  -33.3089  -43.1529 C.3       10 UNK        -0.0876 
     60 S60        19.0909  -32.4327  -42.0959 S.3       10 UNK        -0.2414 
     61 C61        18.5702  -31.0950  -43.2118 C.3       10 UNK         0.0169 
     62 H62        16.9331  -26.9780  -49.2879 H         1 UNK         0.0903 
     63 H63        16.2284  -28.5290  -48.8239 H         1 UNK         0.0903 
     64 H64        15.2732  -27.0511  -48.6918 H         1 UNK         0.0903 
     65 H65        15.1145  -26.3167  -46.5844 H         1 UNK         0.3096 
     66 H66        16.8349  -27.3067  -44.4808 H         1 UNK         0.1121 
     67 H67        15.2655  -25.9951  -42.9850 H         1 UNK         0.0849 
     68 H68        14.4296  -25.4255  -44.4032 H         1 UNK         0.0849 
     69 H69        13.8981  -27.7687  -41.6311 H         1 UNK         0.0865 
     70 H70        13.7655  -29.3855  -42.2679 H         1 UNK         0.0865 
     71 H71        15.9398  -30.3611  -43.4612 H         1 UNK         0.1346 
     72 H72        19.5195  -29.4305  -41.2943 H         1 UNK         0.1412 
     73 H73        15.9756  -27.1029  -40.6704 H         1 UNK         0.1426 
     74 H74        19.4238  -27.8076  -39.4570 H         1 UNK         0.0716 
     75 H75        17.9046  -27.0640  -39.0422 H         1 UNK         0.0716 
     76 H76        21.3535  -25.0684  -41.0976 H         1 UNK         0.0695 
     77 H77        21.2928  -26.5895  -40.2632 H         1 UNK         0.0695 
     78 H78        20.5132  -27.7203  -42.3391 H         1 UNK         0.0983 
     79 H79        19.5755  -26.6533  -43.9784 H         1 UNK         0.3095 
     80 H80        19.2831  -23.4342  -45.0195 H         1 UNK         0.0454 
     81 H81        20.7819  -25.4301  -46.8076 H         1 UNK         0.0851 
     82 H82        21.2805  -23.7773  -46.4745 H         1 UNK         0.0851 
     83 H83        19.8012  -24.0772  -47.3698 H         1 UNK         0.0851 
     84 H84        18.5422  -26.1056  -46.0294 H         1 UNK         0.2976 
     85 H85        22.0842  -27.1916  -44.7313 H         1 UNK         0.3116 
     86 H86        24.8298  -27.6430  -43.7569 H         1 UNK         0.0646 
     87 H87        23.6939  -27.5802  -46.6033 H         1 UNK         0.0847 
     88 H88        25.3903  -27.7579  -46.1790 H         1 UNK         0.0847 
     89 H89        24.5495  -26.2622  -45.8034 H         1 UNK         0.0847 
     90 H90        24.6305  -31.2728  -44.2260 H         1 UNK         0.3040 
     91 H91        26.4598  -29.0061  -43.7406 H         1 UNK         0.1015 
     92 H92        26.7880  -32.0285  -43.4487 H         1 UNK         0.0786 
     93 H93        28.0466  -30.8206  -43.2377 H         1 UNK         0.0786 
     94 H94        27.3203  -31.0558  -44.8190 H         1 UNK         0.0786 
     95 H95        26.6263  -28.1275  -41.7534 H         1 UNK         0.3172 
     96 H96        26.5224  -27.6668  -39.5871 H         1 UNK         0.0595 
     97 H97        27.4265  -30.5860  -39.3672 H         1 UNK         0.0839 
     98 H98        27.7612  -29.3090  -38.2051 H         1 UNK         0.0839 
     99 H99        28.4653  -29.2314  -39.8084 H         1 UNK         0.0839 
    100 H100       23.8822  -28.3509  -40.4296 H         1 UNK         0.2998 
    101 H101       21.8485  -28.8267  -39.7857 H         1 UNK         0.0822 
    102 H102       22.3645  -27.2962  -37.8726 H         1 UNK         0.0787 
    103 H103       21.1709  -28.5070  -37.4392 H         1 UNK         0.0787 
    104 H104       22.8288  -28.6839  -36.8883 H         1 UNK         0.0787 
    105 H105       23.9771  -31.1251  -39.8821 H         1 UNK         0.3055 
    106 H106       22.3610  -33.3150  -38.6716 H         1 UNK         0.1106 
    107 H107       24.3604  -34.6864  -39.2193 H         1 UNK         0.0828 
    108 H108       25.1280  -33.3139  -40.0060 H         1 UNK         0.0828 
    109 H109       24.8363  -33.2892  -38.2680 H         1 UNK         0.0828 
    110 H110       22.5050  -31.5500  -41.4965 H         1 UNK         0.2931 
    111 H111       21.6362  -31.6801  -43.4965 H         1 UNK         0.0412 
    112 H112       24.6686  -33.8968  -44.3528 H         1 UNK         0.3472 
    113 H113       24.3394  -33.0728  -42.8448 H         1 UNK         0.3472 
    114 H114       19.9194  -33.3133  -44.1774 H         1 UNK         0.0970 
    115 H115       20.3235  -34.3546  -42.8434 H         1 UNK         0.0970 
    116 H116       17.9600  -31.5156  -44.0127 H         1 UNK         0.0612 
    117 H117       19.4462  -30.6524  -43.6880 H         1 UNK         0.0612 
@<TRIPOS>BOND
     1    1    2 1    
     2    1   62 1    
     3    1   63 1    
     4    1   64 1    
     5    2    3 2    
     6    2    4 am   BACKBONE|DICT|INTERRES
     7    4    5 1    
     8    4   65 1    
     9    5    6 1    
    10    5   25 1    
    11    5   66 1    
    12    6    7 1    
    13    6   67 1    
    14    6   68 1    
    15    7    8 1    
    16    8    9 1    
    17    8   69 1    
    18    8   70 1    
    19    9   10 ar   
    20    9   14 ar   
    21   10   11 ar   
    22   10   71 1    
    23   11   12 ar   
    24   11   61 1    
    25   12   13 ar   
    26   12   72 1    
    27   13   14 ar   
    28   13   15 1    
    29   14   73 1    
    30   15   16 1    
    31   15   74 1    
    32   15   75 1    
    33   16   17 1    
    34   17   18 1    
    35   17   76 1    
    36   17   77 1    
    37   18   19 1    
    38   18   27 1    
    39   18   78 1    
    40   19   20 am   BACKBONE|DICT|INTERRES
    41   19   79 1    
    42   20   21 2    
    43   20   22 1    
    44   22   23 1    
    45   22   24 1    
    46   22   80 1    
    47   23   81 1    
    48   23   82 1    
    49   23   83 1    
    50   24   25 am   BACKBONE|DICT|INTERRES
    51   24   84 1    
    52   25   26 2    
    53   27   28 2    
    54   27   29 am   BACKBONE|DICT|INTERRES
    55   29   30 1    
    56   29   85 1    
    57   30   31 1    
    58   30   32 1    
    59   30   86 1    
    60   31   87 1    
    61   31   88 1    
    62   31   89 1    
    63   32   33 2    
    64   32   34 am   BACKBONE|DICT|INTERRES
    65   34   35 1    
    66   34   90 1    
    67   35   36 1    
    68   35   37 1    
    69   35   91 1    
    70   36   92 1    
    71   36   93 1    
    72   36   94 1    
    73   37   38 2    
    74   37   39 am   BACKBONE|DICT|INTERRES
    75   39   40 1    
    76   39   95 1    
    77   40   41 1    
    78   40   42 1    
    79   40   96 1    
    80   41   97 1    
    81   41   98 1    
    82   41   99 1    
    83   42   43 2    
    84   42   44 am   BACKBONE|DICT|INTERRES
    85   44   45 1    
    86   44  100 1    
    87   45   46 1    
    88   45   47 1    
    89   45  101 1    
    90   46  102 1    
    91   46  103 1    
    92   46  104 1    
    93   47   48 2    
    94   47   49 am   BACKBONE|DICT|INTERRES
    95   49   50 1    
    96   49  105 1    
    97   50   51 1    
    98   50   52 1    
    99   50  106 1    
   100   51  107 1    
   101   51  108 1    
   102   51  109 1    
   103   52   53 2    
   104   52   54 am   BACKBONE|DICT|INTERRES
   105   54   55 1    
   106   54  110 1    
   107   55   56 1    
   108   55   59 1    
   109   55  111 1    
   110   56   57 am   BACKBONE|DICT|INTERRES
   111   56   58 2    
   112   57  112 1    
   113   57  113 1    
   114   59   60 1    
   115   59  114 1    
   116   59  115 1    
   117   60   61 1    
   118   61  116 1    
   119   61  117 1    
@<TRIPOS>SUBSTRUCTURE
     1 UNK         1 GROUP             0       ****    0 ROOT    
