@<TRIPOS>MOLECULE
3R8
117   119    1
SMALL
USER_CHARGES


@<TRIPOS>ATOM
      1 CA         19.7339  -27.5249  -51.0110 C.3       0 UNK        -0.2013 
      2 C          20.1591  -27.7493  -49.5675 C.2       0 UNK         0.4866 
      3 O          21.3106  -27.4845  -49.2199 O.2       0 UNK        -0.5176 
      4 N          19.2422  -28.2438  -48.7277 N.am      1 UNK        -0.4884 
      5 CA         19.4453  -28.4502  -47.2904 C.3       1 UNK         0.0853 
      6 C6         18.4330  -29.4730  -46.7122 C.3       10 UNK        -0.0849 
      7 S7         16.6779  -29.0763  -47.0187 S.3       10 UNK        -0.2776 
      8 C8         15.8630  -30.3440  -45.9959 C.3       10 UNK         0.0316 
      9 C9         16.0179  -30.0687  -44.5060 C.ar      10 UNK        -0.0863 
     10 C10        16.8818  -30.8418  -43.7228 C.ar      10 UNK        -0.1009 
     11 C11        16.9956  -30.6076  -42.3484 C.ar      10 UNK        -0.0712 
     12 C12        16.2299  -29.5972  -41.7577 C.ar      10 UNK        -0.0894 
     13 C13        15.3959  -28.7909  -42.5375 C.ar      10 UNK        -0.0745 
     14 C14        15.2832  -29.0418  -43.9076 C.ar      10 UNK        -0.0972 
     15 C15        14.6226  -27.6387  -41.9146 C.3       10 UNK         0.0209 
     16 S16        15.4309  -26.0415  -42.2595 S.3       10 UNK        -0.2568 
     17 C17        16.6381  -25.9040  -40.8972 C.3       10 UNK        -0.0983 
     18 CA         18.0201  -26.5319  -41.2081 C.3       3 UNK         0.0876 
     19 N          18.6137  -26.0362  -42.4509 N.am      3 UNK        -0.4424 
     20 C          19.7156  -26.5472  -43.0123 C.2       2 UNK         0.4918 
     21 O          20.4029  -27.4332  -42.5023 O.2       2 UNK        -0.4875 
     22 CA         20.0998  -26.0047  -44.3897 C.3       2 UNK         0.0481 
     23 CB         21.5122  -25.3977  -44.3805 C.3       2 UNK        -0.1831 
     24 N          20.0542  -27.1224  -45.3271 N.am      2 UNK        -0.4498 
     25 C          19.4351  -27.1153  -46.5122 C.2       1 UNK         0.5027 
     26 O          18.8658  -26.1255  -46.9829 O.2       1 UNK        -0.4969 
     27 C          18.9731  -26.3617  -40.0093 C.2       3 UNK         0.5005 
     28 O          19.4256  -25.2452  -39.7449 O.2       3 UNK        -0.5279 
     29 N          19.2407  -27.4759  -39.3137 N.am      4 UNK        -0.4463 
     30 CA         20.0966  -27.6108  -38.1301 C.3       4 UNK         0.0283 
     31 CB         19.5378  -26.7952  -36.9441 C.3       4 UNK        -0.1875 
     32 C          21.5926  -27.3354  -38.3860 C.2       4 UNK         0.4949 
     33 O          22.3275  -27.0888  -37.4280 O.2       4 UNK        -0.5039 
     34 N          22.0401  -27.4069  -39.6488 N.am      5 UNK        -0.4663 
     35 CA         23.4559  -27.3299  -40.0111 C.3       5 UNK         0.0242 
     36 CB         23.5920  -27.0261  -41.5117 C.3       5 UNK        -0.1982 
     37 C          24.1569  -28.6464  -39.6441 C.2       5 UNK         0.5017 
     38 O          23.7929  -29.6923  -40.1813 O.2       5 UNK        -0.5012 
     39 N          25.1467  -28.5808  -38.7448 N.am      6 UNK        -0.4439 
     40 CA         25.8544  -29.7440  -38.1926 C.3       6 UNK         0.0297 
     41 CB         26.7492  -29.2797  -37.0314 C.3       6 UNK        -0.2006 
     42 C          26.6796  -30.5524  -39.2136 C.2       6 UNK         0.4892 
     43 O          27.0119  -31.7049  -38.9346 O.2       6 UNK        -0.5089 
     44 N          27.0062  -29.9411  -40.3604 N.am      7 UNK        -0.4243 
     45 CA         27.8033  -30.5380  -41.4326 C.3       7 UNK         0.0196 
     46 CB         28.2288  -29.4339  -42.4146 C.3       7 UNK        -0.2007 
     47 C          27.0984  -31.6789  -42.1886 C.2       7 UNK         0.5020 
     48 O          27.7901  -32.5704  -42.6819 O.2       7 UNK        -0.5147 
     49 N          25.7612  -31.6360  -42.2847 N.am      8 UNK        -0.4734 
     50 CA         24.9503  -32.6136  -43.0264 C.3       8 UNK         0.0238 
     51 CB         25.2359  -32.5426  -44.5432 C.3       8 UNK        -0.1912 
     52 C          23.4441  -32.4349  -42.7946 C.2       8 UNK         0.5038 
     53 O          22.7170  -33.4286  -42.8141 O.2       8 UNK        -0.5046 
     54 N          23.0038  -31.1842  -42.6076 N.am      9 UNK        -0.4200 
     55 CA         21.6041  -30.7495  -42.5301 C.3       9 UNK         0.0839 
     56 C          20.9429  -30.7920  -43.9318 C.2       9 UNK         0.5513 
     57 N          20.3811  -31.9191  -44.3493 N.am      9 UNK        -0.7519 
     58 O          20.9664  -29.8001  -44.6555 O.2       9 UNK        -0.4960 
     59 C59        20.7935  -31.4322  -41.3906 C.3       10 UNK        -0.0876 
     60 S60        19.3390  -30.4535  -40.8802 S.3       10 UNK        -0.2414 
     61 C61        17.9397  -31.4463  -41.4984 C.3       10 UNK         0.0169 
     62 H62        18.6971  -27.8149  -51.1807 H         1 UNK         0.0903 
     63 H63        19.8386  -26.4724  -51.2732 H         1 UNK         0.0903 
     64 H64        20.3632  -28.1080  -51.6829 H         1 UNK         0.0903 
     65 H65        18.2989  -28.4082  -49.0510 H         1 UNK         0.3096 
     66 H66        20.4438  -28.8760  -47.1631 H         1 UNK         0.1121 
     67 H67        18.5792  -29.5822  -45.6373 H         1 UNK         0.0849 
     68 H68        18.6342  -30.4574  -47.1371 H         1 UNK         0.0849 
     69 H69        14.8014  -30.3686  -46.2464 H         1 UNK         0.0865 
     70 H70        16.2566  -31.3286  -46.2535 H         1 UNK         0.0865 
     71 H71        17.4645  -31.6282  -44.1825 H         1 UNK         0.1346 
     72 H72        16.3121  -29.4178  -40.6945 H         1 UNK         0.1412 
     73 H73        14.6319  -28.4263  -44.5138 H         1 UNK         0.1426 
     74 H74        14.5018  -27.7800  -40.8396 H         1 UNK         0.0716 
     75 H75        13.6146  -27.6167  -42.3314 H         1 UNK         0.0716 
     76 H76        16.2081  -26.3520  -39.9994 H         1 UNK         0.0695 
     77 H77        16.7517  -24.8413  -40.6738 H         1 UNK         0.0695 
     78 H78        17.8742  -27.5996  -41.3622 H         1 UNK         0.0983 
     79 H79        18.1013  -25.3093  -42.9278 H         1 UNK         0.3095 
     80 H80        19.3874  -25.2275  -44.6740 H         1 UNK         0.0454 
     81 H81        22.2704  -26.1446  -44.1427 H         1 UNK         0.0851 
     82 H82        21.5912  -24.6011  -43.6397 H         1 UNK         0.0851 
     83 H83        21.7620  -24.9675  -45.3503 H         1 UNK         0.0851 
     84 H84        20.4446  -27.9982  -44.9802 H         1 UNK         0.2976 
     85 H85        18.8678  -28.3505  -39.6622 H         1 UNK         0.3116 
     86 H86        20.0413  -28.6641  -37.8511 H         1 UNK         0.0646 
     87 H87        19.6320  -25.7217  -37.1098 H         1 UNK         0.0847 
     88 H88        20.0725  -27.0269  -36.0221 H         1 UNK         0.0847 
     89 H89        18.4854  -27.0175  -36.7685 H         1 UNK         0.0847 
     90 H90        21.3887  -27.6246  -40.3934 H         1 UNK         0.3040 
     91 H91        23.9154  -26.5073  -39.4583 H         1 UNK         0.1015 
     92 H92        23.1148  -26.0791  -41.7636 H         1 UNK         0.0786 
     93 H93        23.1374  -27.8016  -42.1285 H         1 UNK         0.0786 
     94 H94        24.6403  -26.9492  -41.8027 H         1 UNK         0.0786 
     95 H95        25.3779  -27.6823  -38.3444 H         1 UNK         0.3172 
     96 H96        25.1000  -30.4219  -37.7876 H         1 UNK         0.0595 
     97 H97        27.5130  -28.5765  -37.3659 H         1 UNK         0.0839 
     98 H98        27.2645  -30.1247  -36.5722 H         1 UNK         0.0839 
     99 H99        26.1658  -28.7967  -36.2472 H         1 UNK         0.0839 
    100 H100       26.6970  -28.9899  -40.4944 H         1 UNK         0.2998 
    101 H101       28.7057  -30.9573  -40.9819 H         1 UNK         0.0822 
    102 H102       28.8136  -28.6611  -41.9153 H         1 UNK         0.0787 
    103 H103       28.8499  -29.8409  -43.2140 H         1 UNK         0.0787 
    104 H104       27.3677  -28.9556  -42.8833 H         1 UNK         0.0787 
    105 H105       25.2631  -30.9346  -41.7515 H         1 UNK         0.3055 
    106 H106       25.2120  -33.6113  -42.6665 H         1 UNK         0.1106 
    107 H107       24.5739  -33.2090  -45.0987 H         1 UNK         0.0828 
    108 H108       25.0855  -31.5357  -44.9339 H         1 UNK         0.0828 
    109 H109       26.2547  -32.8453  -44.7828 H         1 UNK         0.0828 
    110 H110       23.6712  -30.4295  -42.6300 H         1 UNK         0.2931 
    111 H111       21.6814  -29.6960  -42.2638 H         1 UNK         0.0412 
    112 H112       20.4508  -32.7556  -43.7908 H         1 UNK         0.3472 
    113 H113       19.9783  -31.9598  -45.2705 H         1 UNK         0.3472 
    114 H114       20.5121  -32.4544  -41.6434 H         1 UNK         0.0970 
    115 H115       21.4293  -31.5189  -40.5081 H         1 UNK         0.0970 
    116 H116       17.3940  -31.8547  -40.6468 H         1 UNK         0.0612 
    117 H117       18.2986  -32.3033  -42.0690 H         1 UNK         0.0612 
@<TRIPOS>BOND
     1    1    2 1    
     2    1   62 1    
     3    1   63 1    
     4    1   64 1    
     5    2    3 2    
     6    2    4 am   BACKBONE|DICT|INTERRES
     7    4    5 1    
     8    4   65 1    
     9    5    6 1    
    10    5   25 1    
    11    5   66 1    
    12    6    7 1    
    13    6   67 1    
    14    6   68 1    
    15    7    8 1    
    16    8    9 1    
    17    8   69 1    
    18    8   70 1    
    19    9   10 ar   
    20    9   14 ar   
    21   10   11 ar   
    22   10   71 1    
    23   11   12 ar   
    24   11   61 1    
    25   12   13 ar   
    26   12   72 1    
    27   13   14 ar   
    28   13   15 1    
    29   14   73 1    
    30   15   16 1    
    31   15   74 1    
    32   15   75 1    
    33   16   17 1    
    34   17   18 1    
    35   17   76 1    
    36   17   77 1    
    37   18   19 1    
    38   18   27 1    
    39   18   78 1    
    40   19   20 am   BACKBONE|DICT|INTERRES
    41   19   79 1    
    42   20   21 2    
    43   20   22 1    
    44   22   23 1    
    45   22   24 1    
    46   22   80 1    
    47   23   81 1    
    48   23   82 1    
    49   23   83 1    
    50   24   25 am   BACKBONE|DICT|INTERRES
    51   24   84 1    
    52   25   26 2    
    53   27   28 2    
    54   27   29 am   BACKBONE|DICT|INTERRES
    55   29   30 1    
    56   29   85 1    
    57   30   31 1    
    58   30   32 1    
    59   30   86 1    
    60   31   87 1    
    61   31   88 1    
    62   31   89 1    
    63   32   33 2    
    64   32   34 am   BACKBONE|DICT|INTERRES
    65   34   35 1    
    66   34   90 1    
    67   35   36 1    
    68   35   37 1    
    69   35   91 1    
    70   36   92 1    
    71   36   93 1    
    72   36   94 1    
    73   37   38 2    
    74   37   39 am   BACKBONE|DICT|INTERRES
    75   39   40 1    
    76   39   95 1    
    77   40   41 1    
    78   40   42 1    
    79   40   96 1    
    80   41   97 1    
    81   41   98 1    
    82   41   99 1    
    83   42   43 2    
    84   42   44 am   BACKBONE|DICT|INTERRES
    85   44   45 1    
    86   44  100 1    
    87   45   46 1    
    88   45   47 1    
    89   45  101 1    
    90   46  102 1    
    91   46  103 1    
    92   46  104 1    
    93   47   48 2    
    94   47   49 am   BACKBONE|DICT|INTERRES
    95   49   50 1    
    96   49  105 1    
    97   50   51 1    
    98   50   52 1    
    99   50  106 1    
   100   51  107 1    
   101   51  108 1    
   102   51  109 1    
   103   52   53 2    
   104   52   54 am   BACKBONE|DICT|INTERRES
   105   54   55 1    
   106   54  110 1    
   107   55   56 1    
   108   55   59 1    
   109   55  111 1    
   110   56   57 am   BACKBONE|DICT|INTERRES
   111   56   58 2    
   112   57  112 1    
   113   57  113 1    
   114   59   60 1    
   115   59  114 1    
   116   59  115 1    
   117   60   61 1    
   118   61  116 1    
   119   61  117 1    
@<TRIPOS>SUBSTRUCTURE
     1 UNK         1 GROUP             0       ****    0 ROOT    
