@<TRIPOS>MOLECULE
3R8
117   119    1
SMALL
USER_CHARGES


@<TRIPOS>ATOM
      1 CA         16.8498  -23.1333  -41.9025 C.3       0 UNK        -0.2013 
      2 C          17.2535  -24.3508  -42.7211 C.2       0 UNK         0.4866 
      3 O          16.9482  -25.4755  -42.3264 O.2       0 UNK        -0.5176 
      4 N          17.9326  -24.1269  -43.8555 N.am      1 UNK        -0.4884 
      5 CA         18.4651  -25.1446  -44.7730 C.3       1 UNK         0.0853 
      6 C6         17.3528  -26.0581  -45.3631 C.3       10 UNK        -0.0849 
      7 S7         17.7879  -26.8246  -46.9674 S.3       10 UNK        -0.2776 
      8 C8         16.6862  -28.2765  -47.0163 C.3       10 UNK         0.0316 
      9 C9         17.1090  -29.3767  -46.0492 C.ar      10 UNK        -0.0863 
     10 C10        17.9903  -30.3866  -46.4546 C.ar      10 UNK        -0.1009 
     11 C11        18.3230  -31.4313  -45.5833 C.ar      10 UNK        -0.0712 
     12 C12        17.7870  -31.4452  -44.2923 C.ar      10 UNK        -0.0894 
     13 C13        16.9316  -30.4263  -43.8674 C.ar      10 UNK        -0.0745 
     14 C14        16.5761  -29.4128  -44.7579 C.ar      10 UNK        -0.0972 
     15 C15        16.3748  -30.4171  -42.4530 C.3       10 UNK         0.0209 
     16 S16        17.2976  -29.2659  -41.3849 S.3       10 UNK        -0.2568 
     17 C17        18.8327  -30.2037  -41.0735 C.3       10 UNK        -0.0983 
     18 CA         20.1372  -29.4064  -41.3208 C.3       3 UNK         0.0876 
     19 N          20.2312  -28.8432  -42.6745 N.am      3 UNK        -0.4424 
     20 C          21.3773  -28.3988  -43.2094 C.2       2 UNK         0.4918 
     21 O          22.4597  -28.4552  -42.6279 O.2       2 UNK        -0.4875 
     22 CA         21.3250  -27.7268  -44.5887 C.3       2 UNK         0.0481 
     23 CB         21.5358  -28.7525  -45.7072 C.3       2 UNK        -0.1831 
     24 N          20.1066  -26.9651  -44.8583 N.am      2 UNK        -0.4498 
     25 C          19.6536  -25.9216  -44.1544 C.2       1 UNK         0.5027 
     26 O          20.1686  -25.5508  -43.0958 O.2       1 UNK        -0.4969 
     27 C          20.4127  -28.3771  -40.1998 C.2       3 UNK         0.5005 
     28 O          20.7860  -28.7899  -39.1008 O.2       3 UNK        -0.5279 
     29 N          20.2637  -27.0766  -40.4895 N.am      4 UNK        -0.4463 
     30 CA         20.6469  -25.9863  -39.5937 C.3       4 UNK         0.0283 
     31 CB         19.5975  -24.8653  -39.6710 C.3       4 UNK        -0.1875 
     32 C          22.0394  -25.4448  -39.9506 C.2       4 UNK         0.4949 
     33 O          22.8515  -25.2303  -39.0511 O.2       4 UNK        -0.5039 
     34 N          22.2803  -25.2051  -41.2477 N.am      5 UNK        -0.4663 
     35 CA         23.4764  -24.5319  -41.7577 C.3       5 UNK         0.0242 
     36 CB         23.2131  -24.0466  -43.1928 C.3       5 UNK        -0.1982 
     37 C          24.7524  -25.3863  -41.7013 C.2       5 UNK         0.5017 
     38 O          25.7989  -24.8692  -41.3081 O.2       5 UNK        -0.5012 
     39 N          24.6523  -26.6560  -42.1139 N.am      6 UNK        -0.4439 
     40 CA         25.7741  -27.5979  -42.1857 C.3       6 UNK         0.0297 
     41 CB         25.7862  -28.2668  -43.5711 C.3       6 UNK        -0.2006 
     42 C          25.7004  -28.6624  -41.0812 C.2       6 UNK         0.4892 
     43 O          26.7490  -29.0689  -40.5790 O.2       6 UNK        -0.5089 
     44 N          24.4717  -29.0749  -40.7334 N.am      7 UNK        -0.4243 
     45 CA         24.0869  -30.1538  -39.8162 C.3       7 UNK         0.0196 
     46 CB         24.7388  -29.9976  -38.4262 C.3       7 UNK        -0.2007 
     47 C          24.3220  -31.5535  -40.4122 C.2       7 UNK         0.5020 
     48 O          25.0574  -31.7121  -41.3880 O.2       7 UNK        -0.5147 
     49 N          23.6494  -32.5494  -39.8163 N.am      8 UNK        -0.4734 
     50 CA         23.6740  -33.9801  -40.1674 C.3       8 UNK         0.0238 
     51 CB         25.0775  -34.5782  -39.9273 C.3       8 UNK        -0.1912 
     52 C          23.1268  -34.3160  -41.5732 C.2       8 UNK         0.5038 
     53 O          23.3911  -35.4090  -42.0776 O.2       8 UNK        -0.5046 
     54 N          22.3637  -33.3926  -42.1733 N.am      9 UNK        -0.4200 
     55 CA         21.6646  -33.5788  -43.4507 C.3       9 UNK         0.0839 
     56 C          20.4637  -34.5471  -43.2841 C.2       9 UNK         0.5513 
     57 N          20.3745  -35.5853  -44.1034 N.am      9 UNK        -0.7519 
     58 O          19.5976  -34.3377  -42.4376 O.2       9 UNK        -0.4960 
     59 C59        21.2300  -32.2136  -44.0464 C.3       10 UNK        -0.0876 
     60 S60        20.9903  -32.2642  -45.8570 S.3       10 UNK        -0.2414 
     61 C61        19.2050  -32.5824  -46.0512 C.3       10 UNK         0.0169 
     62 H62        15.7639  -23.0546  -41.8601 H         1 UNK         0.0903 
     63 H63        17.2417  -22.2081  -42.3246 H         1 UNK         0.0903 
     64 H64        17.2236  -23.2246  -40.8831 H         1 UNK         0.0903 
     65 H65        18.1717  -23.1747  -44.0963 H         1 UNK         0.3096 
     66 H66        18.8954  -24.5742  -45.5981 H         1 UNK         0.1121 
     67 H67        17.0806  -26.8160  -44.6327 H         1 UNK         0.0849 
     68 H68        16.4463  -25.4746  -45.5319 H         1 UNK         0.0849 
     69 H69        15.6621  -27.9614  -46.8091 H         1 UNK         0.0865 
     70 H70        16.6757  -28.6709  -48.0336 H         1 UNK         0.0865 
     71 H71        18.3957  -30.3760  -47.4573 H         1 UNK         0.1346 
     72 H72        18.0304  -32.2562  -43.6194 H         1 UNK         0.1412 
     73 H73        15.8789  -28.6512  -44.4368 H         1 UNK         0.1426 
     74 H74        16.3906  -31.4181  -42.0190 H         1 UNK         0.0716 
     75 H75        15.3275  -30.1123  -42.4758 H         1 UNK         0.0716 
     76 H76        18.7993  -30.5768  -40.0480 H         1 UNK         0.0695 
     77 H77        18.8428  -31.0985  -41.6945 H         1 UNK         0.0695 
     78 H78        20.9499  -30.1312  -41.2384 H         1 UNK         0.0983 
     79 H79        19.3670  -28.7514  -43.1905 H         1 UNK         0.3095 
     80 H80        22.1577  -27.0225  -44.6273 H         1 UNK         0.0454 
     81 H81        22.4077  -29.3792  -45.5136 H         1 UNK         0.0851 
     82 H82        20.6715  -29.4074  -45.8090 H         1 UNK         0.0851 
     83 H83        21.6970  -28.2642  -46.6682 H         1 UNK         0.0851 
     84 H84        19.6000  -27.2061  -45.7022 H         1 UNK         0.2976 
     85 H85        19.9660  -26.8118  -41.4217 H         1 UNK         0.3116 
     86 H86        20.6766  -26.3398  -38.5607 H         1 UNK         0.0646 
     87 H87        19.8361  -24.0602  -38.9748 H         1 UNK         0.0847 
     88 H88        18.6042  -25.2339  -39.4145 H         1 UNK         0.0847 
     89 H89        19.5433  -24.4274  -40.6678 H         1 UNK         0.0847 
     90 H90        21.5352  -25.3758  -41.9205 H         1 UNK         0.3040 
     91 H91        23.6512  -23.6506  -41.1359 H         1 UNK         0.1015 
     92 H92        22.3636  -23.3643  -43.2301 H         1 UNK         0.0786 
     93 H93        23.0043  -24.8751  -43.8698 H         1 UNK         0.0786 
     94 H94        24.0767  -23.5105  -43.5891 H         1 UNK         0.0786 
     95 H95        23.7418  -27.0162  -42.3797 H         1 UNK         0.3172 
     96 H96        26.7218  -27.0683  -42.0677 H         1 UNK         0.0595 
     97 H97        26.6283  -28.9542  -43.6624 H         1 UNK         0.0839 
     98 H98        25.8828  -27.5283  -44.3671 H         1 UNK         0.0839 
     99 H99        24.8784  -28.8422  -43.7556 H         1 UNK         0.0839 
    100 H100       23.7061  -28.7191  -41.2989 H         1 UNK         0.2998 
    101 H101       23.0109  -30.0458  -39.6867 H         1 UNK         0.0822 
    102 H102       25.8072  -30.2140  -38.4477 H         1 UNK         0.0787 
    103 H103       24.6070  -28.9873  -38.0385 H         1 UNK         0.0787 
    104 H104       24.2901  -30.6801  -37.7039 H         1 UNK         0.0787 
    105 H105       23.0614  -32.3143  -39.0272 H         1 UNK         0.3055 
    106 H106       22.9917  -34.4708  -39.4711 H         1 UNK         0.1106 
    107 H107       25.8089  -34.1947  -40.6392 H         1 UNK         0.0828 
    108 H108       25.4380  -34.3554  -38.9231 H         1 UNK         0.0828 
    109 H109       25.0656  -35.6640  -40.0298 H         1 UNK         0.0828 
    110 H110       22.1768  -32.5383  -41.6737 H         1 UNK         0.2931 
    111 H111       22.3850  -34.0282  -44.1381 H         1 UNK         0.0412 
    112 H112       19.5951  -36.2181  -44.0130 H         1 UNK         0.3472 
    113 H113       21.0812  -35.7564  -44.8021 H         1 UNK         0.3472 
    114 H114       22.0180  -31.4784  -43.8748 H         1 UNK         0.0970 
    115 H115       20.3524  -31.8116  -43.5432 H         1 UNK         0.0970 
    116 H116       19.0080  -32.7783  -47.1061 H         1 UNK         0.0612 
    117 H117       18.9365  -33.5000  -45.5277 H         1 UNK         0.0612 
@<TRIPOS>BOND
     1    1    2 1    
     2    1   62 1    
     3    1   63 1    
     4    1   64 1    
     5    2    3 2    
     6    2    4 am   BACKBONE|DICT|INTERRES
     7    4    5 1    
     8    4   65 1    
     9    5    6 1    
    10    5   25 1    
    11    5   66 1    
    12    6    7 1    
    13    6   67 1    
    14    6   68 1    
    15    7    8 1    
    16    8    9 1    
    17    8   69 1    
    18    8   70 1    
    19    9   10 ar   
    20    9   14 ar   
    21   10   11 ar   
    22   10   71 1    
    23   11   12 ar   
    24   11   61 1    
    25   12   13 ar   
    26   12   72 1    
    27   13   14 ar   
    28   13   15 1    
    29   14   73 1    
    30   15   16 1    
    31   15   74 1    
    32   15   75 1    
    33   16   17 1    
    34   17   18 1    
    35   17   76 1    
    36   17   77 1    
    37   18   19 1    
    38   18   27 1    
    39   18   78 1    
    40   19   20 am   BACKBONE|DICT|INTERRES
    41   19   79 1    
    42   20   21 2    
    43   20   22 1    
    44   22   23 1    
    45   22   24 1    
    46   22   80 1    
    47   23   81 1    
    48   23   82 1    
    49   23   83 1    
    50   24   25 am   BACKBONE|DICT|INTERRES
    51   24   84 1    
    52   25   26 2    
    53   27   28 2    
    54   27   29 am   BACKBONE|DICT|INTERRES
    55   29   30 1    
    56   29   85 1    
    57   30   31 1    
    58   30   32 1    
    59   30   86 1    
    60   31   87 1    
    61   31   88 1    
    62   31   89 1    
    63   32   33 2    
    64   32   34 am   BACKBONE|DICT|INTERRES
    65   34   35 1    
    66   34   90 1    
    67   35   36 1    
    68   35   37 1    
    69   35   91 1    
    70   36   92 1    
    71   36   93 1    
    72   36   94 1    
    73   37   38 2    
    74   37   39 am   BACKBONE|DICT|INTERRES
    75   39   40 1    
    76   39   95 1    
    77   40   41 1    
    78   40   42 1    
    79   40   96 1    
    80   41   97 1    
    81   41   98 1    
    82   41   99 1    
    83   42   43 2    
    84   42   44 am   BACKBONE|DICT|INTERRES
    85   44   45 1    
    86   44  100 1    
    87   45   46 1    
    88   45   47 1    
    89   45  101 1    
    90   46  102 1    
    91   46  103 1    
    92   46  104 1    
    93   47   48 2    
    94   47   49 am   BACKBONE|DICT|INTERRES
    95   49   50 1    
    96   49  105 1    
    97   50   51 1    
    98   50   52 1    
    99   50  106 1    
   100   51  107 1    
   101   51  108 1    
   102   51  109 1    
   103   52   53 2    
   104   52   54 am   BACKBONE|DICT|INTERRES
   105   54   55 1    
   106   54  110 1    
   107   55   56 1    
   108   55   59 1    
   109   55  111 1    
   110   56   57 am   BACKBONE|DICT|INTERRES
   111   56   58 2    
   112   57  112 1    
   113   57  113 1    
   114   59   60 1    
   115   59  114 1    
   116   59  115 1    
   117   60   61 1    
   118   61  116 1    
   119   61  117 1    
@<TRIPOS>SUBSTRUCTURE
     1 UNK         1 GROUP             0       ****    0 ROOT    
