@<TRIPOS>MOLECULE
3R8
117   119    1
SMALL
USER_CHARGES


@<TRIPOS>ATOM
      1 CA         20.7666  -25.1013  -39.5863 C.3       0 UNK        -0.2013 
      2 C          19.6424  -25.0224  -40.6055 C.2       0 UNK         0.4866 
      3 O          18.5634  -24.5208  -40.2879 O.2       0 UNK        -0.5176 
      4 N          19.8909  -25.5201  -41.8199 N.am      1 UNK        -0.4884 
      5 CA         18.9425  -25.5647  -42.9352 C.3       1 UNK         0.0853 
      6 C6         18.5417  -27.0275  -43.2720 C.3       10 UNK        -0.0849 
      7 S7         17.6752  -27.8585  -41.8971 S.3       10 UNK        -0.2776 
      8 C8         16.6807  -29.1067  -42.7767 C.3       10 UNK         0.0316 
      9 C9         17.5432  -30.0352  -43.6204 C.ar      10 UNK        -0.0863 
     10 C10        18.4179  -30.9355  -43.0049 C.ar      10 UNK        -0.1009 
     11 C11        19.2268  -31.7780  -43.7723 C.ar      10 UNK        -0.0712 
     12 C12        19.1519  -31.7198  -45.1669 C.ar      10 UNK        -0.0894 
     13 C13        18.2806  -30.8236  -45.7948 C.ar      10 UNK        -0.0745 
     14 C14        17.4728  -29.9895  -45.0162 C.ar      10 UNK        -0.0972 
     15 C15        18.2312  -30.7414  -47.3153 C.3       10 UNK         0.0209 
     16 S16        18.8402  -29.1424  -47.9475 S.3       10 UNK        -0.2568 
     17 C17        20.5184  -29.0786  -47.2316 C.3       10 UNK        -0.0983 
     18 CA         21.1881  -27.6881  -47.3591 C.3       3 UNK         0.0876 
     19 N          20.3304  -26.6157  -46.8487 N.am      3 UNK        -0.4424 
     20 C          20.4543  -25.3171  -47.1544 C.2       2 UNK         0.4918 
     21 O          21.3460  -24.8609  -47.8701 O.2       2 UNK        -0.4875 
     22 CA         19.3906  -24.3662  -46.5687 C.3       2 UNK         0.0481 
     23 CB         18.2319  -24.1852  -47.5621 C.3       2 UNK        -0.1831 
     24 N          18.8607  -24.8286  -45.2803 N.am      2 UNK        -0.4498 
     25 C          19.5825  -24.8628  -44.1510 C.2       1 UNK         0.5027 
     26 O          20.7170  -24.3845  -44.0723 O.2       1 UNK        -0.4969 
     27 C          22.5665  -27.7230  -46.6694 C.2       3 UNK         0.5005 
     28 O          23.5547  -28.0646  -47.3218 O.2       3 UNK        -0.5279 
     29 N          22.6107  -27.4111  -45.3666 N.am      4 UNK        -0.4463 
     30 CA         23.7931  -27.5251  -44.5172 C.3       4 UNK         0.0283 
     31 CB         24.0160  -28.9966  -44.1171 C.3       4 UNK        -0.1875 
     32 C          23.6169  -26.6558  -43.2694 C.2       4 UNK         0.4949 
     33 O          22.4895  -26.4489  -42.8158 O.2       4 UNK        -0.5039 
     34 N          24.7484  -26.2032  -42.7140 N.am      5 UNK        -0.4663 
     35 CA         24.8334  -25.3260  -41.5395 C.3       5 UNK         0.0242 
     36 CB         26.2684  -24.7833  -41.4301 C.3       5 UNK        -0.1982 
     37 C          24.3998  -25.9748  -40.2105 C.2       5 UNK         0.5017 
     38 O          24.2180  -25.2523  -39.2300 O.2       5 UNK        -0.5012 
     39 N          24.2307  -27.3015  -40.1968 N.am      6 UNK        -0.4439 
     40 CA         23.6392  -28.0699  -39.1073 C.3       6 UNK         0.0297 
     41 CB         24.6708  -29.0741  -38.5669 C.3       6 UNK        -0.2006 
     42 C          22.4156  -28.8015  -39.6678 C.2       6 UNK         0.4892 
     43 O          22.4980  -29.3694  -40.7587 O.2       6 UNK        -0.5089 
     44 N          21.3150  -28.7872  -38.9058 N.am      7 UNK        -0.4243 
     45 CA         20.0589  -29.4558  -39.2611 C.3       7 UNK         0.0196 
     46 CB         18.9064  -28.8117  -38.4738 C.3       7 UNK        -0.2007 
     47 C          20.0935  -30.9778  -39.0289 C.2       7 UNK         0.5020 
     48 O          19.2446  -31.6886  -39.5654 O.2       7 UNK        -0.5147 
     49 N          21.0592  -31.4587  -38.2344 N.am      8 UNK        -0.4734 
     50 CA         21.3296  -32.8791  -38.0240 C.3       8 UNK         0.0238 
     51 CB         22.1461  -33.0535  -36.7310 C.3       8 UNK        -0.1912 
     52 C          22.0733  -33.4433  -39.2446 C.2       8 UNK         0.5038 
     53 O          23.2675  -33.1774  -39.3987 O.2       8 UNK        -0.5046 
     54 N          21.3466  -34.1693  -40.1016 N.am      9 UNK        -0.4200 
     55 CA         21.8637  -34.7964  -41.3261 C.3       9 UNK         0.0839 
     56 C          22.9452  -35.8760  -41.0437 C.2       9 UNK         0.5513 
     57 N          23.9371  -36.0035  -41.9144 N.am      9 UNK        -0.7519 
     58 O          22.8651  -36.6264  -40.0730 O.2       9 UNK        -0.4960 
     59 C59        20.7196  -35.3970  -42.1877 C.3       10 UNK        -0.0876 
     60 S60        19.3395  -34.2657  -42.5887 S.3       10 UNK        -0.2414 
     61 C61        20.1905  -32.7401  -43.0960 C.3       10 UNK         0.0169 
     62 H62        21.5174  -25.8289  -39.8880 H         1 UNK         0.0903 
     63 H63        21.2504  -24.1312  -39.4767 H         1 UNK         0.0903 
     64 H64        20.3781  -25.4048  -38.6147 H         1 UNK         0.0903 
     65 H65        20.8291  -25.8359  -42.0622 H         1 UNK         0.3096 
     66 H66        18.0408  -24.9992  -42.6899 H         1 UNK         0.1121 
     67 H67        19.4224  -27.6213  -43.5262 H         1 UNK         0.0849 
     68 H68        17.8851  -27.0612  -44.1424 H         1 UNK         0.0849 
     69 H69        16.1271  -29.6972  -42.0453 H         1 UNK         0.0865 
     70 H70        15.9328  -28.6021  -43.3903 H         1 UNK         0.0865 
     71 H71        18.4744  -30.9736  -41.9261 H         1 UNK         0.1346 
     72 H72        19.7811  -32.3663  -45.7634 H         1 UNK         0.1412 
     73 H73        16.8036  -29.2929  -45.5027 H         1 UNK         0.1426 
     74 H74        17.2027  -30.8856  -47.6490 H         1 UNK         0.0716 
     75 H75        18.8157  -31.5444  -47.7673 H         1 UNK         0.0716 
     76 H76        21.1248  -29.8424  -47.7227 H         1 UNK         0.0695 
     77 H77        20.4624  -29.3615  -46.1793 H         1 UNK         0.0695 
     78 H78        21.3630  -27.4969  -48.4205 H         1 UNK         0.0983 
     79 H79        19.5403  -26.9080  -46.2954 H         1 UNK         0.3095 
     80 H80        19.8615  -23.3925  -46.4171 H         1 UNK         0.0454 
     81 H81        18.5963  -23.8150  -48.5215 H         1 UNK         0.0851 
     82 H82        17.5026  -23.4628  -47.1954 H         1 UNK         0.0851 
     83 H83        17.7102  -25.1239  -47.7537 H         1 UNK         0.0851 
     84 H84        17.9170  -25.1890  -45.2796 H         1 UNK         0.2976 
     85 H85        21.7836  -27.0695  -44.8944 H         1 UNK         0.3116 
     86 H86        24.6616  -27.1615  -45.0709 H         1 UNK         0.0646 
     87 H87        24.8888  -29.1029  -43.4718 H         1 UNK         0.0847 
     88 H88        23.1590  -29.3978  -43.5736 H         1 UNK         0.0847 
     89 H89        24.1841  -29.6288  -44.9890 H         1 UNK         0.0847 
     90 H90        25.6275  -26.4482  -43.1481 H         1 UNK         0.3040 
     91 H91        24.1600  -24.4823  -41.7081 H         1 UNK         0.1015 
     92 H92        26.3634  -24.0914  -40.5918 H         1 UNK         0.0786 
     93 H93        26.5573  -24.2379  -42.3288 H         1 UNK         0.0786 
     94 H94        26.9919  -25.5846  -41.2740 H         1 UNK         0.0786 
     95 H95        24.3245  -27.7999  -41.0714 H         1 UNK         0.3172 
     96 H96        23.3241  -27.4131  -38.2936 H         1 UNK         0.0595 
     97 H97        24.9926  -29.7782  -39.3358 H         1 UNK         0.0839 
     98 H98        24.2558  -29.6579  -37.7444 H         1 UNK         0.0839 
     99 H99        25.5571  -28.5647  -38.1883 H         1 UNK         0.0839 
    100 H100       21.3349  -28.3023  -38.0197 H         1 UNK         0.2998 
    101 H101       19.8729  -29.2975  -40.3260 H         1 UNK         0.0822 
    102 H102       17.9519  -29.2674  -38.7412 H         1 UNK         0.0787 
    103 H103       19.0348  -28.9276  -37.3970 H         1 UNK         0.0787 
    104 H104       18.8239  -27.7470  -38.6941 H         1 UNK         0.0787 
    105 H105       21.7314  -30.8087  -37.8559 H         1 UNK         0.3055 
    106 H106       20.3838  -33.4123  -37.9006 H         1 UNK         0.1106 
    107 H107       21.5943  -32.6937  -35.8624 H         1 UNK         0.0828 
    108 H108       22.3749  -34.1056  -36.5559 H         1 UNK         0.0828 
    109 H109       23.0950  -32.5168  -36.7708 H         1 UNK         0.0828 
    110 H110       20.3621  -34.3014  -39.9220 H         1 UNK         0.2931 
    111 H111       22.3448  -34.0037  -41.9018 H         1 UNK         0.0412 
    112 H112       24.6391  -36.7103  -41.7575 H         1 UNK         0.3472 
    113 H113       24.0069  -35.4001  -42.7194 H         1 UNK         0.3472 
    114 H114       21.1216  -35.7686  -43.1323 H         1 UNK         0.0970 
    115 H115       20.2901  -36.2671  -41.6870 H         1 UNK         0.0970 
    116 H116       21.0115  -32.9874  -43.7708 H         1 UNK         0.0612 
    117 H117       20.6346  -32.2598  -42.2224 H         1 UNK         0.0612 
@<TRIPOS>BOND
     1    1    2 1    
     2    1   62 1    
     3    1   63 1    
     4    1   64 1    
     5    2    3 2    
     6    2    4 am   BACKBONE|DICT|INTERRES
     7    4    5 1    
     8    4   65 1    
     9    5    6 1    
    10    5   25 1    
    11    5   66 1    
    12    6    7 1    
    13    6   67 1    
    14    6   68 1    
    15    7    8 1    
    16    8    9 1    
    17    8   69 1    
    18    8   70 1    
    19    9   10 ar   
    20    9   14 ar   
    21   10   11 ar   
    22   10   71 1    
    23   11   12 ar   
    24   11   61 1    
    25   12   13 ar   
    26   12   72 1    
    27   13   14 ar   
    28   13   15 1    
    29   14   73 1    
    30   15   16 1    
    31   15   74 1    
    32   15   75 1    
    33   16   17 1    
    34   17   18 1    
    35   17   76 1    
    36   17   77 1    
    37   18   19 1    
    38   18   27 1    
    39   18   78 1    
    40   19   20 am   BACKBONE|DICT|INTERRES
    41   19   79 1    
    42   20   21 2    
    43   20   22 1    
    44   22   23 1    
    45   22   24 1    
    46   22   80 1    
    47   23   81 1    
    48   23   82 1    
    49   23   83 1    
    50   24   25 am   BACKBONE|DICT|INTERRES
    51   24   84 1    
    52   25   26 2    
    53   27   28 2    
    54   27   29 am   BACKBONE|DICT|INTERRES
    55   29   30 1    
    56   29   85 1    
    57   30   31 1    
    58   30   32 1    
    59   30   86 1    
    60   31   87 1    
    61   31   88 1    
    62   31   89 1    
    63   32   33 2    
    64   32   34 am   BACKBONE|DICT|INTERRES
    65   34   35 1    
    66   34   90 1    
    67   35   36 1    
    68   35   37 1    
    69   35   91 1    
    70   36   92 1    
    71   36   93 1    
    72   36   94 1    
    73   37   38 2    
    74   37   39 am   BACKBONE|DICT|INTERRES
    75   39   40 1    
    76   39   95 1    
    77   40   41 1    
    78   40   42 1    
    79   40   96 1    
    80   41   97 1    
    81   41   98 1    
    82   41   99 1    
    83   42   43 2    
    84   42   44 am   BACKBONE|DICT|INTERRES
    85   44   45 1    
    86   44  100 1    
    87   45   46 1    
    88   45   47 1    
    89   45  101 1    
    90   46  102 1    
    91   46  103 1    
    92   46  104 1    
    93   47   48 2    
    94   47   49 am   BACKBONE|DICT|INTERRES
    95   49   50 1    
    96   49  105 1    
    97   50   51 1    
    98   50   52 1    
    99   50  106 1    
   100   51  107 1    
   101   51  108 1    
   102   51  109 1    
   103   52   53 2    
   104   52   54 am   BACKBONE|DICT|INTERRES
   105   54   55 1    
   106   54  110 1    
   107   55   56 1    
   108   55   59 1    
   109   55  111 1    
   110   56   57 am   BACKBONE|DICT|INTERRES
   111   56   58 2    
   112   57  112 1    
   113   57  113 1    
   114   59   60 1    
   115   59  114 1    
   116   59  115 1    
   117   60   61 1    
   118   61  116 1    
   119   61  117 1    
@<TRIPOS>SUBSTRUCTURE
     1 UNK         1 GROUP             0       ****    0 ROOT    
