@<TRIPOS>MOLECULE
3R8
117   119    1
SMALL
USER_CHARGES


@<TRIPOS>ATOM
      1 CA         14.6228  -28.0963  -40.6335 C.3       0 UNK        -0.2013 
      2 C          14.6835  -27.3466  -41.9564 C.2       0 UNK         0.4866 
      3 O          13.8049  -26.5304  -42.2387 O.2       0 UNK        -0.5176 
      4 N          15.7106  -27.6249  -42.7639 N.am      1 UNK        -0.4884 
      5 CA         15.9846  -26.9891  -44.0548 C.3       1 UNK         0.0853 
      6 C6         16.4033  -28.0421  -45.1200 C.3       10 UNK        -0.0849 
      7 S7         15.1818  -29.3772  -45.3445 S.3       10 UNK        -0.2776 
      8 C8         15.9839  -30.3627  -46.6506 C.3       10 UNK         0.0316 
      9 C9         17.3428  -30.9030  -46.2220 C.ar      10 UNK        -0.0863 
     10 C10        17.4257  -31.9278  -45.2746 C.ar      10 UNK        -0.1009 
     11 C11        18.6676  -32.4487  -44.8997 C.ar      10 UNK        -0.0712 
     12 C12        19.8339  -31.9282  -45.4706 C.ar      10 UNK        -0.0894 
     13 C13        19.7656  -30.9049  -46.4209 C.ar      10 UNK        -0.0745 
     14 C14        18.5160  -30.3979  -46.7930 C.ar      10 UNK        -0.0972 
     15 C15        21.0341  -30.3944  -47.0943 C.3       10 UNK         0.0209 
     16 S16        21.3334  -28.6238  -46.7951 S.3       10 UNK        -0.2568 
     17 C17        21.9486  -28.6391  -45.0777 C.3       10 UNK        -0.0983 
     18 CA         22.4686  -27.2403  -44.6310 C.3       3 UNK         0.0876 
     19 N          21.4597  -26.1779  -44.7995 N.am      3 UNK        -0.4424 
     20 C          20.2903  -26.0953  -44.1492 C.2       2 UNK         0.4918 
     21 O          19.9998  -26.8159  -43.1946 O.2       2 UNK        -0.4875 
     22 CA         19.2584  -25.0615  -44.6475 C.3       2 UNK         0.0481 
     23 CB         19.6331  -24.3859  -45.9827 C.3       2 UNK        -0.1831 
     24 N          17.9766  -25.7478  -44.8055 N.am      2 UNK        -0.4498 
     25 C          17.0576  -25.8946  -43.8402 C.2       1 UNK         0.5027 
     26 O          17.0517  -25.2191  -42.8065 O.2       1 UNK        -0.4969 
     27 C          23.1087  -27.2781  -43.2213 C.2       3 UNK         0.5005 
     28 O          23.6618  -28.3079  -42.8324 O.2       3 UNK        -0.5279 
     29 N          23.0341  -26.1574  -42.4858 N.am      4 UNK        -0.4463 
     30 CA         23.5219  -25.9974  -41.1141 C.3       4 UNK         0.0283 
     31 CB         23.1744  -24.5855  -40.6165 C.3       4 UNK        -0.1875 
     32 C          25.0310  -26.2557  -40.9868 C.2       4 UNK         0.4949 
     33 O          25.7871  -25.9474  -41.9108 O.2       4 UNK        -0.5039 
     34 N          25.4306  -26.8388  -39.8495 N.am      5 UNK        -0.4663 
     35 CA         26.7775  -27.3019  -39.4771 C.3       5 UNK         0.0242 
     36 CB         27.8129  -26.1600  -39.5103 C.3       5 UNK        -0.1982 
     37 C          27.2656  -28.5271  -40.2737 C.2       5 UNK         0.5017 
     38 O          27.9073  -29.3986  -39.6862 O.2       5 UNK        -0.5012 
     39 N          26.9370  -28.5979  -41.5707 N.am      6 UNK        -0.4439 
     40 CA         27.1562  -29.7611  -42.4322 C.3       6 UNK         0.0297 
     41 CB         26.9452  -29.3659  -43.9026 C.3       6 UNK        -0.2006 
     42 C          26.2525  -30.9451  -42.0457 C.2       6 UNK         0.4892 
     43 O          26.7145  -32.0867  -42.0697 O.2       6 UNK        -0.5089 
     44 N          25.0015  -30.6522  -41.6711 N.am      7 UNK        -0.4243 
     45 CA         24.0288  -31.6039  -41.1482 C.3       7 UNK         0.0196 
     46 CB         23.1559  -32.1228  -42.3034 C.3       7 UNK        -0.2007 
     47 C          23.1719  -30.9104  -40.0820 C.2       7 UNK         0.5020 
     48 O          23.0263  -29.6865  -40.1033 O.2       7 UNK        -0.5147 
     49 N          22.5852  -31.7070  -39.1795 N.am      8 UNK        -0.4734 
     50 CA         21.6570  -31.2279  -38.1457 C.3       8 UNK         0.0238 
     51 CB         21.4794  -32.3174  -37.0756 C.3       8 UNK        -0.1912 
     52 C          20.2905  -30.8031  -38.7153 C.2       8 UNK         0.5038 
     53 O          19.6306  -29.9423  -38.1325 O.2       8 UNK        -0.5046 
     54 N          19.9029  -31.4146  -39.8402 N.am      9 UNK        -0.4200 
     55 CA         18.7073  -31.0982  -40.6332 C.3       9 UNK         0.0839 
     56 C          18.8225  -29.8161  -41.5064 C.2       9 UNK         0.5513 
     57 N          19.9784  -29.1725  -41.6082 N.am      9 UNK        -0.7519 
     58 O          17.8246  -29.3816  -42.0742 O.2       9 UNK        -0.4960 
     59 C59        18.2256  -32.3303  -41.4491 C.3       10 UNK        -0.0876 
     60 S60        19.5644  -33.1719  -42.3665 S.3       10 UNK        -0.2414 
     61 C61        18.7494  -33.6173  -43.9285 C.3       10 UNK         0.0169 
     62 H62        15.4558  -28.7907  -40.5220 H         1 UNK         0.0903 
     63 H63        14.6540  -27.3932  -39.8017 H         1 UNK         0.0903 
     64 H64        13.6960  -28.6653  -40.5663 H         1 UNK         0.0903 
     65 H65        16.4271  -28.2854  -42.4625 H         1 UNK         0.3096 
     66 H66        15.0885  -26.4808  -44.4171 H         1 UNK         0.1121 
     67 H67        17.3557  -28.4980  -44.8385 H         1 UNK         0.0849 
     68 H68        16.5480  -27.5748  -46.0955 H         1 UNK         0.0849 
     69 H69        15.3325  -31.1977  -46.9127 H         1 UNK         0.0865 
     70 H70        16.0742  -29.7554  -47.5527 H         1 UNK         0.0865 
     71 H71        16.5189  -32.3275  -44.8414 H         1 UNK         0.1346 
     72 H72        20.7933  -32.3395  -45.1874 H         1 UNK         0.1412 
     73 H73        18.4613  -29.6142  -47.5363 H         1 UNK         0.1426 
     74 H74        20.9434  -30.5528  -48.1697 H         1 UNK         0.0716 
     75 H75        21.9073  -30.9663  -46.7762 H         1 UNK         0.0716 
     76 H76        22.7450  -29.3831  -45.0150 H         1 UNK         0.0695 
     77 H77        21.1500  -28.9885  -44.4205 H         1 UNK         0.0695 
     78 H78        23.2900  -26.9755  -45.2987 H         1 UNK         0.0983 
     79 H79        21.6251  -25.5432  -45.5671 H         1 UNK         0.3095 
     80 H80        19.1787  -24.2836  -43.8858 H         1 UNK         0.0454 
     81 H81        19.7773  -25.1111  -46.7850 H         1 UNK         0.0851 
     82 H82        20.5473  -23.7984  -45.8894 H         1 UNK         0.0851 
     83 H83        18.8510  -23.6968  -46.3021 H         1 UNK         0.0851 
     84 H84        17.9066  -26.3484  -45.6136 H         1 UNK         0.2976 
     85 H85        22.5838  -25.3563  -42.9014 H         1 UNK         0.3116 
     86 H86        22.9907  -26.7267  -40.4982 H         1 UNK         0.0646 
     87 H87        22.0992  -24.4072  -40.6428 H         1 UNK         0.0847 
     88 H88        23.6594  -23.8156  -41.2181 H         1 UNK         0.0847 
     89 H89        23.4986  -24.4433  -39.5846 H         1 UNK         0.0847 
     90 H90        24.7088  -27.0785  -39.1823 H         1 UNK         0.3040 
     91 H91        26.6932  -27.6296  -38.4393 H         1 UNK         0.1015 
     92 H92        28.0039  -25.8060  -40.5236 H         1 UNK         0.0786 
     93 H93        28.7682  -26.4934  -39.1026 H         1 UNK         0.0786 
     94 H94        27.4851  -25.3093  -38.9130 H         1 UNK         0.0786 
     95 H95        26.4280  -27.8116  -41.9640 H         1 UNK         0.3172 
     96 H96        28.1942  -30.0788  -42.3124 H         1 UNK         0.0595 
     97 H97        25.9260  -29.0268  -44.0902 H         1 UNK         0.0839 
     98 H98        27.1321  -30.2136  -44.5632 H         1 UNK         0.0839 
     99 H99        27.6245  -28.5671  -44.2006 H         1 UNK         0.0839 
    100 H100       24.6693  -29.6912  -41.7183 H         1 UNK         0.2998 
    101 H101       24.5510  -32.4404  -40.6786 H         1 UNK         0.0822 
    102 H102       23.7630  -32.5613  -43.0954 H         1 UNK         0.0787 
    103 H103       22.4736  -32.8981  -41.9563 H         1 UNK         0.0787 
    104 H104       22.5558  -31.3251  -42.7452 H         1 UNK         0.0787 
    105 H105       22.7555  -32.7025  -39.2160 H         1 UNK         0.3055 
    106 H106       22.0968  -30.3481  -37.6698 H         1 UNK         0.1106 
    107 H107       21.0507  -33.2296  -37.4923 H         1 UNK         0.0828 
    108 H108       20.8128  -31.9781  -36.2814 H         1 UNK         0.0828 
    109 H109       22.4304  -32.5746  -36.6087 H         1 UNK         0.0828 
    110 H110       20.5182  -32.1009  -40.2507 H         1 UNK         0.2931 
    111 H111       17.9103  -30.8740  -39.9214 H         1 UNK         0.0412 
    112 H112       20.8057  -29.4902  -41.1270 H         1 UNK         0.3472 
    113 H113       20.0094  -28.3264  -42.1724 H         1 UNK         0.3472 
    114 H114       17.4183  -32.0559  -42.1312 H         1 UNK         0.0970 
    115 H115       17.7909  -33.0626  -40.7674 H         1 UNK         0.0970 
    116 H116       19.3184  -34.4212  -44.3974 H         1 UNK         0.0612 
    117 H117       17.7607  -34.0281  -43.7178 H         1 UNK         0.0612 
@<TRIPOS>BOND
     1    1    2 1    
     2    1   62 1    
     3    1   63 1    
     4    1   64 1    
     5    2    3 2    
     6    2    4 am   BACKBONE|DICT|INTERRES
     7    4    5 1    
     8    4   65 1    
     9    5    6 1    
    10    5   25 1    
    11    5   66 1    
    12    6    7 1    
    13    6   67 1    
    14    6   68 1    
    15    7    8 1    
    16    8    9 1    
    17    8   69 1    
    18    8   70 1    
    19    9   10 ar   
    20    9   14 ar   
    21   10   11 ar   
    22   10   71 1    
    23   11   12 ar   
    24   11   61 1    
    25   12   13 ar   
    26   12   72 1    
    27   13   14 ar   
    28   13   15 1    
    29   14   73 1    
    30   15   16 1    
    31   15   74 1    
    32   15   75 1    
    33   16   17 1    
    34   17   18 1    
    35   17   76 1    
    36   17   77 1    
    37   18   19 1    
    38   18   27 1    
    39   18   78 1    
    40   19   20 am   BACKBONE|DICT|INTERRES
    41   19   79 1    
    42   20   21 2    
    43   20   22 1    
    44   22   23 1    
    45   22   24 1    
    46   22   80 1    
    47   23   81 1    
    48   23   82 1    
    49   23   83 1    
    50   24   25 am   BACKBONE|DICT|INTERRES
    51   24   84 1    
    52   25   26 2    
    53   27   28 2    
    54   27   29 am   BACKBONE|DICT|INTERRES
    55   29   30 1    
    56   29   85 1    
    57   30   31 1    
    58   30   32 1    
    59   30   86 1    
    60   31   87 1    
    61   31   88 1    
    62   31   89 1    
    63   32   33 2    
    64   32   34 am   BACKBONE|DICT|INTERRES
    65   34   35 1    
    66   34   90 1    
    67   35   36 1    
    68   35   37 1    
    69   35   91 1    
    70   36   92 1    
    71   36   93 1    
    72   36   94 1    
    73   37   38 2    
    74   37   39 am   BACKBONE|DICT|INTERRES
    75   39   40 1    
    76   39   95 1    
    77   40   41 1    
    78   40   42 1    
    79   40   96 1    
    80   41   97 1    
    81   41   98 1    
    82   41   99 1    
    83   42   43 2    
    84   42   44 am   BACKBONE|DICT|INTERRES
    85   44   45 1    
    86   44  100 1    
    87   45   46 1    
    88   45   47 1    
    89   45  101 1    
    90   46  102 1    
    91   46  103 1    
    92   46  104 1    
    93   47   48 2    
    94   47   49 am   BACKBONE|DICT|INTERRES
    95   49   50 1    
    96   49  105 1    
    97   50   51 1    
    98   50   52 1    
    99   50  106 1    
   100   51  107 1    
   101   51  108 1    
   102   51  109 1    
   103   52   53 2    
   104   52   54 am   BACKBONE|DICT|INTERRES
   105   54   55 1    
   106   54  110 1    
   107   55   56 1    
   108   55   59 1    
   109   55  111 1    
   110   56   57 am   BACKBONE|DICT|INTERRES
   111   56   58 2    
   112   57  112 1    
   113   57  113 1    
   114   59   60 1    
   115   59  114 1    
   116   59  115 1    
   117   60   61 1    
   118   61  116 1    
   119   61  117 1    
@<TRIPOS>SUBSTRUCTURE
     1 UNK         1 GROUP             0       ****    0 ROOT    
