@<TRIPOS>MOLECULE
3R8
117   119    1
SMALL
USER_CHARGES


@<TRIPOS>ATOM
      1 CA         15.4598  -23.5861  -41.0584 C.3       0 UNK        -0.2013 
      2 C          15.6152  -24.1498  -42.4632 C.2       0 UNK         0.4866 
      3 O          14.6710  -24.1012  -43.2520 O.2       0 UNK        -0.5176 
      4 N          16.7987  -24.6820  -42.7818 N.am      1 UNK        -0.4884 
      5 CA         17.1623  -25.2429  -44.0814 C.3       1 UNK         0.0853 
      6 C6         16.6063  -26.6782  -44.2696 C.3       10 UNK        -0.0849 
      7 S7         16.3667  -27.1056  -46.0257 S.3       10 UNK        -0.2776 
      8 C8         15.5280  -28.7178  -45.8773 C.3       10 UNK         0.0316 
      9 C9         16.4427  -29.7593  -45.2507 C.ar      10 UNK        -0.0863 
     10 C10        16.2657  -30.1548  -43.9201 C.ar      10 UNK        -0.1009 
     11 C11        17.1440  -31.0634  -43.3183 C.ar      10 UNK        -0.0712 
     12 C12        18.1975  -31.5858  -44.0789 C.ar      10 UNK        -0.0894 
     13 C13        18.3999  -31.1770  -45.3995 C.ar      10 UNK        -0.0745 
     14 C14        17.5049  -30.2841  -45.9903 C.ar      10 UNK        -0.0972 
     15 C15        19.6542  -31.6094  -46.1430 C.3       10 UNK         0.0209 
     16 S16        20.8783  -30.2551  -46.2128 S.3       10 UNK        -0.2568 
     17 C17        21.0236  -29.7865  -44.4524 C.3       10 UNK        -0.0983 
     18 CA         21.7676  -28.4511  -44.2378 C.3       3 UNK         0.0876 
     19 N          21.0749  -27.3389  -44.8962 N.am      3 UNK        -0.4424 
     20 C          21.5753  -26.1075  -45.0545 C.2       2 UNK         0.4918 
     21 O          22.6927  -25.7673  -44.6653 O.2       2 UNK        -0.4875 
     22 CA         20.6587  -25.0699  -45.7298 C.3       2 UNK         0.0481 
     23 CB         20.8570  -25.0974  -47.2535 C.3       2 UNK        -0.1831 
     24 N          19.2284  -25.2182  -45.4205 N.am      2 UNK        -0.4498 
     25 C          18.6971  -25.1887  -44.1896 C.2       1 UNK         0.5027 
     26 O          19.3723  -25.1334  -43.1577 O.2       1 UNK        -0.4969 
     27 C          21.9687  -28.2220  -42.7252 C.2       3 UNK         0.5005 
     28 O          22.9232  -28.7620  -42.1662 O.2       3 UNK        -0.5279 
     29 N          21.0860  -27.4341  -42.0866 N.am      4 UNK        -0.4463 
     30 CA         21.0860  -27.1736  -40.6408 C.3       4 UNK         0.0283 
     31 CB         19.7228  -26.5954  -40.2187 C.3       4 UNK        -0.1875 
     32 C          22.2390  -26.2651  -40.1696 C.2       4 UNK         0.4949 
     33 O          22.4557  -26.1457  -38.9635 O.2       4 UNK        -0.5039 
     34 N          22.9776  -25.6647  -41.1145 N.am      5 UNK        -0.4663 
     35 CA         24.2468  -24.9729  -40.8699 C.3       5 UNK         0.0242 
     36 CB         24.5799  -24.1037  -42.0942 C.3       5 UNK        -0.1982 
     37 C          25.4103  -25.9394  -40.5585 C.2       5 UNK         0.5017 
     38 O          26.4601  -25.4819  -40.1033 O.2       5 UNK        -0.5012 
     39 N          25.2138  -27.2405  -40.8112 N.am      6 UNK        -0.4439 
     40 CA         26.1450  -28.3288  -40.5336 C.3       6 UNK         0.0297 
     41 CB         26.8095  -28.7541  -41.8594 C.3       6 UNK        -0.2006 
     42 C          25.3791  -29.4814  -39.8583 C.2       6 UNK         0.4892 
     43 O          24.2491  -29.2949  -39.4013 O.2       6 UNK        -0.5089 
     44 N          26.0016  -30.6654  -39.8179 N.am      7 UNK        -0.4243 
     45 CA         25.4010  -31.9146  -39.3360 C.3       7 UNK         0.0196 
     46 CB         26.4936  -32.7486  -38.6410 C.3       7 UNK        -0.2007 
     47 C          24.7205  -32.7147  -40.4670 C.2       7 UNK         0.5020 
     48 O          24.4220  -33.8936  -40.2757 O.2       7 UNK        -0.5147 
     49 N          24.5015  -32.0888  -41.6329 N.am      8 UNK        -0.4734 
     50 CA         24.0355  -32.7282  -42.8691 C.3       8 UNK         0.0238 
     51 CB         24.2163  -31.7490  -44.0415 C.3       8 UNK        -0.1912 
     52 C          22.6076  -33.3078  -42.8226 C.2       8 UNK         0.5038 
     53 O          22.2999  -34.1752  -43.6414 O.2       8 UNK        -0.5046 
     54 N          21.7766  -32.8572  -41.8710 N.am      9 UNK        -0.4200 
     55 CA         20.4846  -33.4882  -41.5438 C.3       9 UNK         0.0839 
     56 C          20.6159  -34.7724  -40.6639 C.2       9 UNK         0.5513 
     57 N          21.7851  -35.1145  -40.1344 N.am      9 UNK        -0.7519 
     58 O          19.6417  -35.4944  -40.4713 O.2       9 UNK        -0.4960 
     59 C59        19.4759  -32.4580  -40.9563 C.3       10 UNK        -0.0876 
     60 S60        17.7285  -32.9344  -41.2407 S.3       10 UNK        -0.2414 
     61 C61        16.9563  -31.3871  -41.8336 C.3       10 UNK         0.0169 
     62 H62        14.6511  -24.0966  -40.5369 H         1 UNK         0.0903 
     63 H63        16.3691  -23.7025  -40.4696 H         1 UNK         0.0903 
     64 H64        15.2192  -22.5246  -41.1040 H         1 UNK         0.0903 
     65 H65        17.5733  -24.6603  -42.1281 H         1 UNK         0.3096 
     66 H66        16.7518  -24.5829  -44.8497 H         1 UNK         0.1121 
     67 H67        17.2471  -27.4197  -43.7877 H         1 UNK         0.0849 
     68 H68        15.6318  -26.7711  -43.7871 H         1 UNK         0.0849 
     69 H69        14.6108  -28.6018  -45.2971 H         1 UNK         0.0865 
     70 H70        15.2214  -29.0533  -46.8693 H         1 UNK         0.0865 
     71 H71        15.4586  -29.7278  -43.3393 H         1 UNK         0.1346 
     72 H72        18.9110  -32.2612  -43.6359 H         1 UNK         0.1412 
     73 H73        17.6722  -29.9488  -47.0052 H         1 UNK         0.1426 
     74 H74        20.1105  -32.4783  -45.6647 H         1 UNK         0.0716 
     75 H75        19.3954  -31.9144  -47.1582 H         1 UNK         0.0716 
     76 H76        21.5068  -30.6092  -43.9246 H         1 UNK         0.0695 
     77 H77        20.0308  -29.6905  -44.0143 H         1 UNK         0.0695 
     78 H78        22.7618  -28.5335  -44.6827 H         1 UNK         0.0983 
     79 H79        20.1581  -27.5404  -45.2680 H         1 UNK         0.3095 
     80 H80        20.9650  -24.0862  -45.3673 H         1 UNK         0.0454 
     81 H81        20.5299  -26.0436  -47.6872 H         1 UNK         0.0851 
     82 H82        20.3043  -24.2943  -47.7414 H         1 UNK         0.0851 
     83 H83        21.9089  -24.9666  -47.5132 H         1 UNK         0.0851 
     84 H84        18.6030  -25.3043  -46.2102 H         1 UNK         0.2976 
     85 H85        20.3811  -26.9465  -42.6277 H         1 UNK         0.3116 
     86 H86        21.2127  -28.1347  -40.1356 H         1 UNK         0.0646 
     87 H87        18.8957  -27.2133  -40.5723 H         1 UNK         0.0847 
     88 H88        19.6445  -26.5433  -39.1316 H         1 UNK         0.0847 
     89 H89        19.5786  -25.5824  -40.5968 H         1 UNK         0.0847 
     90 H90        22.7155  -25.8002  -42.0821 H         1 UNK         0.3040 
     91 H91        24.1249  -24.3185  -40.0030 H         1 UNK         0.1015 
     92 H92        24.7257  -24.7096  -42.9903 H         1 UNK         0.0786 
     93 H93        25.4971  -23.5338  -41.9328 H         1 UNK         0.0786 
     94 H94        23.7851  -23.3854  -42.2998 H         1 UNK         0.0786 
     95 H95        24.2960  -27.5467  -41.1233 H         1 UNK         0.3172 
     96 H96        26.9154  -27.9987  -39.8337 H         1 UNK         0.0595 
     97 H97        26.0839  -29.1768  -42.5563 H         1 UNK         0.0839 
     98 H98        27.5925  -29.4967  -41.7021 H         1 UNK         0.0839 
     99 H99        27.2808  -27.9026  -42.3515 H         1 UNK         0.0839 
    100 H100       26.9286  -30.7393  -40.2135 H         1 UNK         0.2998 
    101 H101       24.6291  -31.6911  -38.5958 H         1 UNK         0.0822 
    102 H102       27.2742  -33.0544  -39.3394 H         1 UNK         0.0787 
    103 H103       26.9657  -32.1890  -37.8331 H         1 UNK         0.0787 
    104 H104       26.0768  -33.6555  -38.1998 H         1 UNK         0.0787 
    105 H105       24.7238  -31.1053  -41.6895 H         1 UNK         0.3055 
    106 H106       24.6899  -33.5834  -43.0536 H         1 UNK         0.1106 
    107 H107       25.2728  -31.5923  -44.2596 H         1 UNK         0.0828 
    108 H108       23.7533  -32.1263  -44.9548 H         1 UNK         0.0828 
    109 H109       23.7801  -30.7747  -43.8288 H         1 UNK         0.0828 
    110 H110       22.1180  -32.1564  -41.2298 H         1 UNK         0.2931 
    111 H111       20.0644  -33.8399  -42.4876 H         1 UNK         0.0412 
    112 H112       21.8379  -35.9539  -39.5794 H         1 UNK         0.3472 
    113 H113       22.6272  -34.5682  -40.2880 H         1 UNK         0.3472 
    114 H114       19.6392  -32.3153  -39.8860 H         1 UNK         0.0970 
    115 H115       19.6385  -31.4787  -41.4107 H         1 UNK         0.0970 
    116 H116       15.8880  -31.4620  -41.6244 H         1 UNK         0.0612 
    117 H117       17.3259  -30.5512  -41.2378 H         1 UNK         0.0612 
@<TRIPOS>BOND
     1    1    2 1    
     2    1   62 1    
     3    1   63 1    
     4    1   64 1    
     5    2    3 2    
     6    2    4 am   BACKBONE|DICT|INTERRES
     7    4    5 1    
     8    4   65 1    
     9    5    6 1    
    10    5   25 1    
    11    5   66 1    
    12    6    7 1    
    13    6   67 1    
    14    6   68 1    
    15    7    8 1    
    16    8    9 1    
    17    8   69 1    
    18    8   70 1    
    19    9   10 ar   
    20    9   14 ar   
    21   10   11 ar   
    22   10   71 1    
    23   11   12 ar   
    24   11   61 1    
    25   12   13 ar   
    26   12   72 1    
    27   13   14 ar   
    28   13   15 1    
    29   14   73 1    
    30   15   16 1    
    31   15   74 1    
    32   15   75 1    
    33   16   17 1    
    34   17   18 1    
    35   17   76 1    
    36   17   77 1    
    37   18   19 1    
    38   18   27 1    
    39   18   78 1    
    40   19   20 am   BACKBONE|DICT|INTERRES
    41   19   79 1    
    42   20   21 2    
    43   20   22 1    
    44   22   23 1    
    45   22   24 1    
    46   22   80 1    
    47   23   81 1    
    48   23   82 1    
    49   23   83 1    
    50   24   25 am   BACKBONE|DICT|INTERRES
    51   24   84 1    
    52   25   26 2    
    53   27   28 2    
    54   27   29 am   BACKBONE|DICT|INTERRES
    55   29   30 1    
    56   29   85 1    
    57   30   31 1    
    58   30   32 1    
    59   30   86 1    
    60   31   87 1    
    61   31   88 1    
    62   31   89 1    
    63   32   33 2    
    64   32   34 am   BACKBONE|DICT|INTERRES
    65   34   35 1    
    66   34   90 1    
    67   35   36 1    
    68   35   37 1    
    69   35   91 1    
    70   36   92 1    
    71   36   93 1    
    72   36   94 1    
    73   37   38 2    
    74   37   39 am   BACKBONE|DICT|INTERRES
    75   39   40 1    
    76   39   95 1    
    77   40   41 1    
    78   40   42 1    
    79   40   96 1    
    80   41   97 1    
    81   41   98 1    
    82   41   99 1    
    83   42   43 2    
    84   42   44 am   BACKBONE|DICT|INTERRES
    85   44   45 1    
    86   44  100 1    
    87   45   46 1    
    88   45   47 1    
    89   45  101 1    
    90   46  102 1    
    91   46  103 1    
    92   46  104 1    
    93   47   48 2    
    94   47   49 am   BACKBONE|DICT|INTERRES
    95   49   50 1    
    96   49  105 1    
    97   50   51 1    
    98   50   52 1    
    99   50  106 1    
   100   51  107 1    
   101   51  108 1    
   102   51  109 1    
   103   52   53 2    
   104   52   54 am   BACKBONE|DICT|INTERRES
   105   54   55 1    
   106   54  110 1    
   107   55   56 1    
   108   55   59 1    
   109   55  111 1    
   110   56   57 am   BACKBONE|DICT|INTERRES
   111   56   58 2    
   112   57  112 1    
   113   57  113 1    
   114   59   60 1    
   115   59  114 1    
   116   59  115 1    
   117   60   61 1    
   118   61  116 1    
   119   61  117 1    
@<TRIPOS>SUBSTRUCTURE
     1 UNK         1 GROUP             0       ****    0 ROOT    
