@<TRIPOS>MOLECULE
3R8
117   119    1
SMALL
USER_CHARGES


@<TRIPOS>ATOM
      1 CA         14.9550  -24.7336  -48.0094 C.3       0 UNK        -0.2013 
      2 C          15.4889  -24.6440  -46.5877 C.2       0 UNK         0.4866 
      3 O          15.3357  -23.6068  -45.9432 O.2       0 UNK        -0.5176 
      4 N          16.1227  -25.7211  -46.1008 N.am      1 UNK        -0.4884 
      5 CA         16.7000  -25.8540  -44.7529 C.3       1 UNK         0.0853 
      6 C6         15.6287  -25.7393  -43.6291 C.3       10 UNK        -0.0849 
      7 S7         16.0255  -26.6029  -42.0658 S.3       10 UNK        -0.2776 
      8 C8         15.6414  -28.3521  -42.4167 C.3       10 UNK         0.0316 
      9 C9         16.9096  -29.1369  -42.7239 C.ar      10 UNK        -0.0863 
     10 C10        17.7421  -29.5659  -41.6837 C.ar      10 UNK        -0.1009 
     11 C11        18.9419  -30.2301  -41.9601 C.ar      10 UNK        -0.0712 
     12 C12        19.3147  -30.4447  -43.2905 C.ar      10 UNK        -0.0894 
     13 C13        18.4752  -30.0533  -44.3348 C.ar      10 UNK        -0.0745 
     14 C14        17.2642  -29.4200  -44.0450 C.ar      10 UNK        -0.0972 
     15 C15        18.8702  -30.3055  -45.7793 C.3       10 UNK         0.0209 
     16 S16        19.4044  -28.7703  -46.5946 S.3       10 UNK        -0.2568 
     17 C17        21.1747  -28.6539  -46.1360 C.3       10 UNK        -0.0983 
     18 CA         21.5611  -27.4263  -45.2591 C.3       3 UNK         0.0876 
     19 N          20.7693  -26.2418  -45.5962 N.am      3 UNK        -0.4424 
     20 C          21.0448  -24.9640  -45.3071 C.2       2 UNK         0.4918 
     21 O          22.0798  -24.5931  -44.7542 O.2       2 UNK        -0.4875 
     22 CA         19.9411  -23.9433  -45.6505 C.3       2 UNK         0.0481 
     23 CB         20.2055  -23.3052  -47.0228 C.3       2 UNK        -0.1831 
     24 N          18.6015  -24.5489  -45.6423 N.am      2 UNK        -0.4498 
     25 C          17.9733  -24.9965  -44.5421 C.2       1 UNK         0.5027 
     26 O          18.4205  -24.8175  -43.4103 O.2       1 UNK        -0.4969 
     27 C          21.6065  -27.7504  -43.7469 C.2       3 UNK         0.5005 
     28 O          22.3694  -28.6360  -43.3586 O.2       3 UNK        -0.5279 
     29 N          20.8724  -27.0026  -42.9043 N.am      4 UNK        -0.4463 
     30 CA         20.9038  -27.0879  -41.4370 C.3       4 UNK         0.0283 
     31 CB         19.8195  -26.1766  -40.8452 C.3       4 UNK        -0.1875 
     32 C          22.2719  -26.7886  -40.7936 C.2       4 UNK         0.4949 
     33 O          22.4629  -27.1018  -39.6186 O.2       4 UNK        -0.5039 
     34 N          23.2053  -26.2146  -41.5663 N.am      5 UNK        -0.4663 
     35 CA         24.6156  -26.0592  -41.2060 C.3       5 UNK         0.0242 
     36 CB         25.3094  -25.1908  -42.2675 C.3       5 UNK        -0.1982 
     37 C          25.3580  -27.4005  -41.0354 C.2       5 UNK         0.5017 
     38 O          26.3395  -27.4433  -40.2922 O.2       5 UNK        -0.5012 
     39 N          24.8869  -28.4663  -41.7019 N.am      6 UNK        -0.4439 
     40 CA         25.3661  -29.8323  -41.5041 C.3       6 UNK         0.0297 
     41 CB         25.1236  -30.6555  -42.7813 C.3       6 UNK        -0.2006 
     42 C          24.6229  -30.4409  -40.3089 C.2       6 UNK         0.4892 
     43 O          23.4113  -30.6397  -40.3942 O.2       6 UNK        -0.5089 
     44 N          25.3504  -30.7361  -39.2236 N.am      7 UNK        -0.4243 
     45 CA         24.7980  -31.2611  -37.9667 C.3       7 UNK         0.0196 
     46 CB         25.9130  -31.3245  -36.9105 C.3       7 UNK        -0.2007 
     47 C          24.1034  -32.6301  -38.0982 C.2       7 UNK         0.5020 
     48 O          23.1764  -32.9134  -37.3397 O.2       7 UNK        -0.5147 
     49 N          24.5535  -33.4444  -39.0610 N.am      8 UNK        -0.4734 
     50 CA         23.9641  -34.7420  -39.4027 C.3       8 UNK         0.0238 
     51 CB         25.0857  -35.6708  -39.9004 C.3       8 UNK        -0.1912 
     52 C          22.8405  -34.6421  -40.4542 C.2       8 UNK         0.5038 
     53 O          22.2380  -35.6695  -40.7702 O.2       8 UNK        -0.5046 
     54 N          22.5929  -33.4390  -40.9929 N.am      9 UNK        -0.4200 
     55 CA         21.6875  -33.1571  -42.1178 C.3       9 UNK         0.0839 
     56 C          22.1277  -33.8535  -43.4430 C.2       9 UNK         0.5513 
     57 N          21.2318  -34.0449  -44.4035 N.am      9 UNK        -0.7519 
     58 O          23.2989  -34.1728  -43.6389 O.2       9 UNK        -0.4960 
     59 C59        20.1812  -33.3527  -41.7574 C.3       10 UNK        -0.0876 
     60 S60        19.6160  -32.3913  -40.3087 S.3       10 UNK        -0.2414 
     61 C61        19.8638  -30.6601  -40.8258 C.3       10 UNK         0.0169 
     62 H62        15.1660  -25.7004  -48.4661 H         1 UNK         0.0903 
     63 H63        13.8754  -24.5858  -48.0137 H         1 UNK         0.0903 
     64 H64        15.4068  -23.9598  -48.6297 H         1 UNK         0.0903 
     65 H65        16.2158  -26.5380  -46.6904 H         1 UNK         0.3096 
     66 H66        17.0808  -26.8713  -44.7260 H         1 UNK         0.1121 
     67 H67        14.6747  -26.1339  -43.9819 H         1 UNK         0.0849 
     68 H68        15.4379  -24.6896  -43.3994 H         1 UNK         0.0849 
     69 H69        15.1518  -28.7862  -41.5437 H         1 UNK         0.0865 
     70 H70        14.9238  -28.4296  -43.2349 H         1 UNK         0.0865 
     71 H71        17.4665  -29.3601  -40.6584 H         1 UNK         0.1346 
     72 H72        20.2614  -30.9131  -43.5161 H         1 UNK         0.1412 
     73 H73        16.6146  -29.1197  -44.8557 H         1 UNK         0.1426 
     74 H74        19.6518  -31.0635  -45.8519 H         1 UNK         0.0716 
     75 H75        18.0106  -30.7059  -46.3187 H         1 UNK         0.0716 
     76 H76        21.7217  -28.5863  -47.0775 H         1 UNK         0.0695 
     77 H77        21.5101  -29.5920  -45.6896 H         1 UNK         0.0695 
     78 H78        22.5964  -27.1806  -45.5070 H         1 UNK         0.0983 
     79 H79        19.8978  -26.4470  -46.0633 H         1 UNK         0.3095 
     80 H80        19.9670  -23.1556  -44.8948 H         1 UNK         0.0454 
     81 H81        19.4659  -22.5380  -47.2528 H         1 UNK         0.0851 
     82 H82        20.1856  -24.0435  -47.8254 H         1 UNK         0.0851 
     83 H83        21.1849  -22.8253  -47.0464 H         1 UNK         0.0851 
     84 H84        18.1627  -24.7109  -46.5374 H         1 UNK         0.2976 
     85 H85        20.2683  -26.2901  -43.2921 H         1 UNK         0.3116 
     86 H86        20.6604  -28.1132  -41.1697 H         1 UNK         0.0646 
     87 H87        18.8303  -26.4662  -41.1970 H         1 UNK         0.0847 
     88 H88        19.8023  -26.2390  -39.7564 H         1 UNK         0.0847 
     89 H89        19.9802  -25.1314  -41.1114 H         1 UNK         0.0847 
     90 H90        22.9456  -25.9567  -42.5082 H         1 UNK         0.3040 
     91 H91        24.6614  -25.5381  -40.2471 H         1 UNK         0.1015 
     92 H92        25.2777  -25.6561  -43.2537 H         1 UNK         0.0786 
     93 H93        26.3588  -25.0302  -42.0157 H         1 UNK         0.0786 
     94 H94        24.8422  -24.2087  -42.3449 H         1 UNK         0.0786 
     95 H95        24.0299  -28.3723  -42.2407 H         1 UNK         0.3172 
     96 H96        26.4401  -29.8244  -41.3056 H         1 UNK         0.0595 
     97 H97        24.0643  -30.7118  -43.0360 H         1 UNK         0.0839 
     98 H98        25.4809  -31.6790  -42.6606 H         1 UNK         0.0839 
     99 H99        25.6481  -30.2263  -43.6349 H         1 UNK         0.0839 
    100 H100       26.3397  -30.5308  -39.2327 H         1 UNK         0.2998 
    101 H101       24.0423  -30.5512  -37.6230 H         1 UNK         0.0822 
    102 H102       25.5268  -31.6859  -35.9562 H         1 UNK         0.0787 
    103 H103       26.7173  -31.9969  -37.2119 H         1 UNK         0.0787 
    104 H104       26.3460  -30.3404  -36.7298 H         1 UNK         0.0787 
    105 H105       25.3257  -33.1292  -39.6307 H         1 UNK         0.3055 
    106 H106       23.5247  -35.1888  -38.5077 H         1 UNK         0.1106 
    107 H107       25.8698  -35.7841  -39.1516 H         1 UNK         0.0828 
    108 H108       24.7017  -36.6690  -40.1158 H         1 UNK         0.0828 
    109 H109       25.5447  -35.2953  -40.8159 H         1 UNK         0.0828 
    110 H110       23.0998  -32.6330  -40.6459 H         1 UNK         0.2931 
    111 H111       21.8470  -32.1017  -42.3296 H         1 UNK         0.0412 
    112 H112       20.2651  -33.7899  -44.2853 H         1 UNK         0.3472 
    113 H113       21.5313  -34.4763  -45.2642 H         1 UNK         0.3472 
    114 H114       19.9807  -34.4062  -41.5572 H         1 UNK         0.0970 
    115 H115       19.5327  -33.0894  -42.5921 H         1 UNK         0.0970 
    116 H116       19.6958  -30.0235  -39.9559 H         1 UNK         0.0612 
    117 H117       20.9029  -30.4975  -41.1080 H         1 UNK         0.0612 
@<TRIPOS>BOND
     1    1    2 1    
     2    1   62 1    
     3    1   63 1    
     4    1   64 1    
     5    2    3 2    
     6    2    4 am   BACKBONE|DICT|INTERRES
     7    4    5 1    
     8    4   65 1    
     9    5    6 1    
    10    5   25 1    
    11    5   66 1    
    12    6    7 1    
    13    6   67 1    
    14    6   68 1    
    15    7    8 1    
    16    8    9 1    
    17    8   69 1    
    18    8   70 1    
    19    9   10 ar   
    20    9   14 ar   
    21   10   11 ar   
    22   10   71 1    
    23   11   12 ar   
    24   11   61 1    
    25   12   13 ar   
    26   12   72 1    
    27   13   14 ar   
    28   13   15 1    
    29   14   73 1    
    30   15   16 1    
    31   15   74 1    
    32   15   75 1    
    33   16   17 1    
    34   17   18 1    
    35   17   76 1    
    36   17   77 1    
    37   18   19 1    
    38   18   27 1    
    39   18   78 1    
    40   19   20 am   BACKBONE|DICT|INTERRES
    41   19   79 1    
    42   20   21 2    
    43   20   22 1    
    44   22   23 1    
    45   22   24 1    
    46   22   80 1    
    47   23   81 1    
    48   23   82 1    
    49   23   83 1    
    50   24   25 am   BACKBONE|DICT|INTERRES
    51   24   84 1    
    52   25   26 2    
    53   27   28 2    
    54   27   29 am   BACKBONE|DICT|INTERRES
    55   29   30 1    
    56   29   85 1    
    57   30   31 1    
    58   30   32 1    
    59   30   86 1    
    60   31   87 1    
    61   31   88 1    
    62   31   89 1    
    63   32   33 2    
    64   32   34 am   BACKBONE|DICT|INTERRES
    65   34   35 1    
    66   34   90 1    
    67   35   36 1    
    68   35   37 1    
    69   35   91 1    
    70   36   92 1    
    71   36   93 1    
    72   36   94 1    
    73   37   38 2    
    74   37   39 am   BACKBONE|DICT|INTERRES
    75   39   40 1    
    76   39   95 1    
    77   40   41 1    
    78   40   42 1    
    79   40   96 1    
    80   41   97 1    
    81   41   98 1    
    82   41   99 1    
    83   42   43 2    
    84   42   44 am   BACKBONE|DICT|INTERRES
    85   44   45 1    
    86   44  100 1    
    87   45   46 1    
    88   45   47 1    
    89   45  101 1    
    90   46  102 1    
    91   46  103 1    
    92   46  104 1    
    93   47   48 2    
    94   47   49 am   BACKBONE|DICT|INTERRES
    95   49   50 1    
    96   49  105 1    
    97   50   51 1    
    98   50   52 1    
    99   50  106 1    
   100   51  107 1    
   101   51  108 1    
   102   51  109 1    
   103   52   53 2    
   104   52   54 am   BACKBONE|DICT|INTERRES
   105   54   55 1    
   106   54  110 1    
   107   55   56 1    
   108   55   59 1    
   109   55  111 1    
   110   56   57 am   BACKBONE|DICT|INTERRES
   111   56   58 2    
   112   57  112 1    
   113   57  113 1    
   114   59   60 1    
   115   59  114 1    
   116   59  115 1    
   117   60   61 1    
   118   61  116 1    
   119   61  117 1    
@<TRIPOS>SUBSTRUCTURE
     1 UNK         1 GROUP             0       ****    0 ROOT    
