@<TRIPOS>MOLECULE
3R8
117   119    1
SMALL
USER_CHARGES


@<TRIPOS>ATOM
      1 CA         19.6100  -27.8710  -42.5987 C.3       0 UNK        -0.2013 
      2 C          18.4849  -26.8544  -42.6734 C.2       0 UNK         0.4866 
      3 O          18.5679  -25.8022  -42.0409 O.2       0 UNK        -0.5176 
      4 N          17.4246  -27.1659  -43.4291 N.am      1 UNK        -0.4884 
      5 CA         16.2214  -26.3328  -43.5655 C.3       1 UNK         0.0853 
      6 C6         15.0398  -27.0926  -44.2216 C.3       10 UNK        -0.0849 
      7 S7         14.7049  -28.7233  -43.4682 S.3       10 UNK        -0.2776 
      8 C8         15.0617  -29.8567  -44.8516 C.3       10 UNK         0.0316 
      9 C9         16.5559  -30.0828  -45.0461 C.ar      10 UNK        -0.0863 
     10 C10        17.1893  -31.1542  -44.4063 C.ar      10 UNK        -0.1009 
     11 C11        18.5490  -31.4045  -44.6149 C.ar      10 UNK        -0.0712 
     12 C12        19.2745  -30.5632  -45.4623 C.ar      10 UNK        -0.0894 
     13 C13        18.6688  -29.4582  -46.0691 C.ar      10 UNK        -0.0745 
     14 C14        17.3005  -29.2421  -45.8813 C.ar      10 UNK        -0.0972 
     15 C15        19.4983  -28.4900  -46.9051 C.3       10 UNK         0.0209 
     16 S16        20.9548  -27.9189  -45.9734 S.3       10 UNK        -0.2568 
     17 C17        21.5524  -26.4957  -46.9484 C.3       10 UNK        -0.0983 
     18 CA         21.5080  -25.1452  -46.1723 C.3       3 UNK         0.0876 
     19 N          20.1457  -24.7251  -45.8554 N.am      3 UNK        -0.4424 
     20 C          19.2393  -24.2745  -46.7265 C.2       2 UNK         0.4918 
     21 O          19.4621  -24.1308  -47.9296 O.2       2 UNK        -0.4875 
     22 CA         17.8448  -23.9737  -46.1548 C.3       2 UNK         0.0481 
     23 CB         16.7879  -23.7124  -47.2485 C.3       2 UNK        -0.1831 
     24 N          17.4276  -25.0797  -45.2937 N.am      2 UNK        -0.4498 
     25 C          16.4925  -25.0239  -44.3367 C.2       1 UNK         0.5027 
     26 O          15.8513  -24.0094  -44.0589 O.2       1 UNK        -0.4969 
     27 C          22.3093  -25.1752  -44.8536 C.2       3 UNK         0.5005 
     28 O          21.7435  -24.9084  -43.7879 O.2       3 UNK        -0.5279 
     29 N          23.5984  -25.5313  -44.9339 N.am      4 UNK        -0.4463 
     30 CA         24.4203  -25.8711  -43.7716 C.3       4 UNK         0.0283 
     31 CB         25.9083  -25.8187  -44.1563 C.3       4 UNK        -0.1875 
     32 C          24.0297  -27.2692  -43.2640 C.2       4 UNK         0.4949 
     33 O          24.1305  -28.2351  -44.0216 O.2       4 UNK        -0.5039 
     34 N          23.5827  -27.3495  -42.0042 N.am      5 UNK        -0.4663 
     35 CA         23.0612  -28.5747  -41.3865 C.3       5 UNK         0.0242 
     36 CB         22.3222  -28.2037  -40.0895 C.3       5 UNK        -0.1982 
     37 C          24.1247  -29.6440  -41.0891 C.2       5 UNK         0.5017 
     38 O          23.7662  -30.8119  -40.9216 O.2       5 UNK        -0.5012 
     39 N          25.3931  -29.2179  -40.9687 N.am      6 UNK        -0.4439 
     40 CA         26.5934  -30.0241  -40.6912 C.3       6 UNK         0.0297 
     41 CB         26.9128  -30.9271  -41.9013 C.3       6 UNK        -0.2006 
     42 C          26.5332  -30.8263  -39.3721 C.2       6 UNK         0.4892 
     43 O          27.2434  -31.8233  -39.2352 O.2       6 UNK        -0.5089 
     44 N          25.6606  -30.3952  -38.4463 N.am      7 UNK        -0.4243 
     45 CA         25.2457  -31.0749  -37.2109 C.3       7 UNK         0.0196 
     46 CB         26.4223  -31.1825  -36.2174 C.3       7 UNK        -0.2007 
     47 C          24.5459  -32.4337  -37.4459 C.2       7 UNK         0.5020 
     48 O          24.4220  -33.2165  -36.5026 O.2       7 UNK        -0.5147 
     49 N          24.0956  -32.6938  -38.6811 N.am      8 UNK        -0.4734 
     50 CA         23.4368  -33.9317  -39.0944 C.3       8 UNK         0.0238 
     51 CB         24.0879  -34.4423  -40.3916 C.3       8 UNK        -0.1912 
     52 C          21.9336  -33.7087  -39.2936 C.2       8 UNK         0.5038 
     53 O          21.1358  -34.4942  -38.7795 O.2       8 UNK        -0.5046 
     54 N          21.5748  -32.6518  -40.0333 N.am      9 UNK        -0.4200 
     55 CA         20.1828  -32.2660  -40.3065 C.3       9 UNK         0.0839 
     56 C          19.5122  -31.6024  -39.0743 C.2       9 UNK         0.5513 
     57 N          18.2110  -31.7843  -38.9047 N.am      9 UNK        -0.7519 
     58 O          20.1480  -30.8976  -38.2964 O.2       9 UNK        -0.4960 
     59 C59        20.0764  -31.3520  -41.5520 C.3       10 UNK        -0.0876 
     60 S60        20.7482  -32.1432  -43.0518 S.3       10 UNK        -0.2414 
     61 C61        19.2286  -32.5981  -43.9525 C.3       10 UNK         0.0169 
     62 H62        20.5556  -27.4036  -42.8729 H         1 UNK         0.0903 
     63 H63        19.6907  -28.2484  -41.5813 H         1 UNK         0.0903 
     64 H64        19.4435  -28.7170  -43.2642 H         1 UNK         0.0903 
     65 H65        17.3874  -28.0647  -43.8934 H         1 UNK         0.3096 
     66 H66        15.9130  -26.0468  -42.5571 H         1 UNK         0.1121 
     67 H67        14.1275  -26.4996  -44.1311 H         1 UNK         0.0849 
     68 H68        15.1993  -27.2119  -45.2937 H         1 UNK         0.0849 
     69 H69        14.5709  -30.8104  -44.6509 H         1 UNK         0.0865 
     70 H70        14.6085  -29.4812  -45.7704 H         1 UNK         0.0865 
     71 H71        16.6166  -31.8052  -43.7598 H         1 UNK         0.1346 
     72 H72        20.3280  -30.7492  -45.6220 H         1 UNK         0.1412 
     73 H73        16.8180  -28.4137  -46.3805 H         1 UNK         0.1426 
     74 H74        18.9018  -27.6255  -47.2002 H         1 UNK         0.0716 
     75 H75        19.8221  -28.9825  -47.8226 H         1 UNK         0.0716 
     76 H76        20.9768  -26.4198  -47.8716 H         1 UNK         0.0695 
     77 H77        22.5720  -26.7154  -47.2678 H         1 UNK         0.0695 
     78 H78        21.9589  -24.3694  -46.7949 H         1 UNK         0.0983 
     79 H79        19.9379  -24.7550  -44.8637 H         1 UNK         0.3095 
     80 H80        17.9437  -23.0731  -45.5456 H         1 UNK         0.0454 
     81 H81        17.0859  -22.8834  -47.8916 H         1 UNK         0.0851 
     82 H82        15.8213  -23.4500  -46.8191 H         1 UNK         0.0851 
     83 H83        16.6457  -24.5863  -47.8850 H         1 UNK         0.0851 
     84 H84        17.9219  -25.9516  -45.4241 H         1 UNK         0.2976 
     85 H85        23.9798  -25.7758  -45.8365 H         1 UNK         0.3116 
     86 H86        24.2470  -25.1342  -42.9841 H         1 UNK         0.0646 
     87 H87        26.1498  -26.5308  -44.9466 H         1 UNK         0.0847 
     88 H88        26.1943  -24.8250  -44.5014 H         1 UNK         0.0847 
     89 H89        26.5402  -26.0576  -43.2999 H         1 UNK         0.0847 
     90 H90        23.5165  -26.5016  -41.4581 H         1 UNK         0.3040 
     91 H91        22.3512  -29.0215  -42.0851 H         1 UNK         0.1015 
     92 H92        21.8585  -29.0807  -39.6356 H         1 UNK         0.0786 
     93 H93        21.5308  -27.4769  -40.2712 H         1 UNK         0.0786 
     94 H94        22.9982  -27.7758  -39.3482 H         1 UNK         0.0786 
     95 H95        25.5528  -28.2285  -41.0988 H         1 UNK         0.3172 
     96 H96        27.4166  -29.3176  -40.5772 H         1 UNK         0.0595 
     97 H97        26.1603  -31.7057  -42.0326 H         1 UNK         0.0839 
     98 H98        27.8764  -31.4236  -41.7801 H         1 UNK         0.0839 
     99 H99        26.9621  -30.3505  -42.8251 H         1 UNK         0.0839 
    100 H100       25.1428  -29.5573  -38.6696 H         1 UNK         0.2998 
    101 H101       24.4913  -30.4316  -36.7555 H         1 UNK         0.0822 
    102 H102       26.0820  -31.5365  -35.2436 H         1 UNK         0.0787 
    103 H103       26.8983  -30.2148  -36.0596 H         1 UNK         0.0787 
    104 H104       27.1849  -31.8795  -36.5656 H         1 UNK         0.0787 
    105 H105       24.1981  -31.9803  -39.3966 H         1 UNK         0.3055 
    106 H106       23.5596  -34.7028  -38.3302 H         1 UNK         0.1106 
    107 H107       25.1457  -34.6590  -40.2416 H         1 UNK         0.0828 
    108 H108       23.6125  -35.3636  -40.7310 H         1 UNK         0.0828 
    109 H109       24.0095  -33.7158  -41.2018 H         1 UNK         0.0828 
    110 H110       22.2932  -32.0444  -40.4122 H         1 UNK         0.2931 
    111 H111       19.6288  -33.1813  -40.5278 H         1 UNK         0.0412 
    112 H112       17.7540  -31.3509  -38.1168 H         1 UNK         0.3472 
    113 H113       17.6775  -32.3544  -39.5395 H         1 UNK         0.3472 
    114 H114       19.0403  -31.0594  -41.7330 H         1 UNK         0.0970 
    115 H115       20.6264  -30.4278  -41.3835 H         1 UNK         0.0970 
    116 H116       19.4886  -33.3204  -44.7271 H         1 UNK         0.0612 
    117 H117       18.5493  -33.1099  -43.2691 H         1 UNK         0.0612 
@<TRIPOS>BOND
     1    1    2 1    
     2    1   62 1    
     3    1   63 1    
     4    1   64 1    
     5    2    3 2    
     6    2    4 am   BACKBONE|DICT|INTERRES
     7    4    5 1    
     8    4   65 1    
     9    5    6 1    
    10    5   25 1    
    11    5   66 1    
    12    6    7 1    
    13    6   67 1    
    14    6   68 1    
    15    7    8 1    
    16    8    9 1    
    17    8   69 1    
    18    8   70 1    
    19    9   10 ar   
    20    9   14 ar   
    21   10   11 ar   
    22   10   71 1    
    23   11   12 ar   
    24   11   61 1    
    25   12   13 ar   
    26   12   72 1    
    27   13   14 ar   
    28   13   15 1    
    29   14   73 1    
    30   15   16 1    
    31   15   74 1    
    32   15   75 1    
    33   16   17 1    
    34   17   18 1    
    35   17   76 1    
    36   17   77 1    
    37   18   19 1    
    38   18   27 1    
    39   18   78 1    
    40   19   20 am   BACKBONE|DICT|INTERRES
    41   19   79 1    
    42   20   21 2    
    43   20   22 1    
    44   22   23 1    
    45   22   24 1    
    46   22   80 1    
    47   23   81 1    
    48   23   82 1    
    49   23   83 1    
    50   24   25 am   BACKBONE|DICT|INTERRES
    51   24   84 1    
    52   25   26 2    
    53   27   28 2    
    54   27   29 am   BACKBONE|DICT|INTERRES
    55   29   30 1    
    56   29   85 1    
    57   30   31 1    
    58   30   32 1    
    59   30   86 1    
    60   31   87 1    
    61   31   88 1    
    62   31   89 1    
    63   32   33 2    
    64   32   34 am   BACKBONE|DICT|INTERRES
    65   34   35 1    
    66   34   90 1    
    67   35   36 1    
    68   35   37 1    
    69   35   91 1    
    70   36   92 1    
    71   36   93 1    
    72   36   94 1    
    73   37   38 2    
    74   37   39 am   BACKBONE|DICT|INTERRES
    75   39   40 1    
    76   39   95 1    
    77   40   41 1    
    78   40   42 1    
    79   40   96 1    
    80   41   97 1    
    81   41   98 1    
    82   41   99 1    
    83   42   43 2    
    84   42   44 am   BACKBONE|DICT|INTERRES
    85   44   45 1    
    86   44  100 1    
    87   45   46 1    
    88   45   47 1    
    89   45  101 1    
    90   46  102 1    
    91   46  103 1    
    92   46  104 1    
    93   47   48 2    
    94   47   49 am   BACKBONE|DICT|INTERRES
    95   49   50 1    
    96   49  105 1    
    97   50   51 1    
    98   50   52 1    
    99   50  106 1    
   100   51  107 1    
   101   51  108 1    
   102   51  109 1    
   103   52   53 2    
   104   52   54 am   BACKBONE|DICT|INTERRES
   105   54   55 1    
   106   54  110 1    
   107   55   56 1    
   108   55   59 1    
   109   55  111 1    
   110   56   57 am   BACKBONE|DICT|INTERRES
   111   56   58 2    
   112   57  112 1    
   113   57  113 1    
   114   59   60 1    
   115   59  114 1    
   116   59  115 1    
   117   60   61 1    
   118   61  116 1    
   119   61  117 1    
@<TRIPOS>SUBSTRUCTURE
     1 UNK         1 GROUP             0       ****    0 ROOT    
