@<TRIPOS>MOLECULE
3R8
117   119    1
SMALL
USER_CHARGES


@<TRIPOS>ATOM
      1 CA         19.8914  -24.0514  -40.6521 C.3       0 UNK        -0.2013 
      2 C          18.9865  -23.7473  -41.8370 C.2       0 UNK         0.4866 
      3 O          19.1175  -22.6893  -42.4519 O.2       0 UNK        -0.5176 
      4 N          18.0681  -24.6679  -42.1594 N.am      1 UNK        -0.4884 
      5 CA         17.1352  -24.5886  -43.2935 C.3       1 UNK         0.0853 
      6 C6         16.0497  -25.6945  -43.2098 C.3       10 UNK        -0.0849 
      7 S7         16.7326  -27.3840  -43.0245 S.3       10 UNK        -0.2776 
      8 C8         16.1937  -28.1739  -44.5741 C.3       10 UNK         0.0316 
      9 C9         16.7937  -29.5656  -44.7325 C.ar      10 UNK        -0.0863 
     10 C10        16.5263  -30.5587  -43.7843 C.ar      10 UNK        -0.1009 
     11 C11        17.0558  -31.8442  -43.9279 C.ar      10 UNK        -0.0712 
     12 C12        17.8643  -32.1319  -45.0312 C.ar      10 UNK        -0.0894 
     13 C13        18.1515  -31.1477  -45.9819 C.ar      10 UNK        -0.0745 
     14 C14        17.5981  -29.8715  -45.8355 C.ar      10 UNK        -0.0972 
     15 C15        19.0570  -31.4790  -47.1649 C.3       10 UNK         0.0209 
     16 S16        20.4957  -30.3634  -47.3370 S.3       10 UNK        -0.2568 
     17 C17        21.2138  -30.3241  -45.6544 C.3       10 UNK        -0.0983 
     18 CA         21.6849  -28.9096  -45.2209 C.3       3 UNK         0.0876 
     19 N          20.7384  -27.8472  -45.5934 N.am      3 UNK        -0.4424 
     20 C          20.9166  -26.5319  -45.4023 C.2       2 UNK         0.4918 
     21 O          21.8807  -26.0484  -44.8108 O.2       2 UNK        -0.4875 
     22 CA         19.8036  -25.5991  -45.8882 C.3       2 UNK         0.0481 
     23 CB         19.0576  -26.1244  -47.1359 C.3       2 UNK        -0.1831 
     24 N          18.9129  -25.4102  -44.7506 N.am      2 UNK        -0.4498 
     25 C          17.8503  -24.6033  -44.6621 C.2       1 UNK         0.5027 
     26 O          17.4355  -23.8926  -45.5786 O.2       1 UNK        -0.4969 
     27 C          22.0121  -28.8998  -43.7146 C.2       3 UNK         0.5005 
     28 O          23.1759  -29.0397  -43.3388 O.2       3 UNK        -0.5279 
     29 N          20.9793  -28.6539  -42.8918 N.am      4 UNK        -0.4463 
     30 CA         21.0314  -28.5593  -41.4295 C.3       4 UNK         0.0283 
     31 CB         19.6085  -28.3612  -40.8867 C.3       4 UNK        -0.1875 
     32 C          21.9809  -27.4829  -40.8677 C.2       4 UNK         0.4949 
     33 O          22.2936  -27.5373  -39.6792 O.2       4 UNK        -0.5039 
     34 N          22.4766  -26.5623  -41.7103 N.am      5 UNK        -0.4663 
     35 CA         23.5734  -25.6436  -41.3811 C.3       5 UNK         0.0242 
     36 CB         23.7538  -24.6326  -42.5237 C.3       5 UNK        -0.1982 
     37 C          24.9048  -26.3642  -41.0803 C.2       5 UNK         0.5017 
     38 O          25.7426  -25.8007  -40.3765 O.2       5 UNK        -0.5012 
     39 N          25.0591  -27.6065  -41.5668 N.am      6 UNK        -0.4439 
     40 CA         26.1517  -28.5215  -41.2204 C.3       6 UNK         0.0297 
     41 CB         26.3205  -29.5439  -42.3580 C.3       6 UNK        -0.2006 
     42 C          25.9468  -29.2395  -39.8672 C.2       6 UNK         0.4892 
     43 O          26.7605  -30.0982  -39.5263 O.2       6 UNK        -0.5089 
     44 N          24.8708  -28.9019  -39.1369 N.am      7 UNK        -0.4243 
     45 CA         24.4192  -29.4615  -37.8553 C.3       7 UNK         0.0196 
     46 CB         25.5112  -29.3742  -36.7671 C.3       7 UNK        -0.2007 
     47 C          23.7992  -30.8679  -37.9658 C.2       7 UNK         0.5020 
     48 O          23.5337  -31.4908  -36.9367 O.2       7 UNK        -0.5147 
     49 N          23.5371  -31.3347  -39.1912 N.am      8 UNK        -0.4734 
     50 CA         22.8594  -32.5889  -39.5028 C.3       8 UNK         0.0238 
     51 CB         23.8345  -33.7726  -39.3589 C.3       8 UNK        -0.1912 
     52 C          22.3180  -32.5024  -40.9330 C.2       8 UNK         0.5038 
     53 O          22.9074  -31.8033  -41.7594 O.2       8 UNK        -0.5046 
     54 N          21.2244  -33.2240  -41.1982 N.am      9 UNK        -0.4200 
     55 CA         20.6256  -33.3910  -42.5307 C.3       9 UNK         0.0839 
     56 C          21.5622  -34.1543  -43.5078 C.2       9 UNK         0.5513 
     57 N          21.5168  -33.8274  -44.7920 N.am      9 UNK        -0.7519 
     58 O          22.2855  -35.0701  -43.1212 O.2       9 UNK        -0.4960 
     59 C59        19.2550  -34.1069  -42.4282 C.3       10 UNK        -0.0876 
     60 S60        17.9937  -33.0710  -41.6096 S.3       10 UNK        -0.2414 
     61 C61        16.7227  -32.9240  -42.9070 C.3       10 UNK         0.0169 
     62 H62        19.7405  -23.3122  -39.8659 H         1 UNK         0.0903 
     63 H63        19.7007  -25.0382  -40.2311 H         1 UNK         0.0903 
     64 H64        20.9357  -24.0116  -40.9594 H         1 UNK         0.0903 
     65 H65        17.9823  -25.5059  -41.6018 H         1 UNK         0.3096 
     66 H66        16.6292  -23.6228  -43.2245 H         1 UNK         0.1121 
     67 H67        15.3813  -25.6484  -44.0721 H         1 UNK         0.0849 
     68 H68        15.4126  -25.5046  -42.3445 H         1 UNK         0.0849 
     69 H69        15.1054  -28.2490  -44.5825 H         1 UNK         0.0865 
     70 H70        16.4685  -27.5366  -45.4157 H         1 UNK         0.0865 
     71 H71        15.8991  -30.3287  -42.9335 H         1 UNK         0.1346 
     72 H72        18.2652  -33.1270  -45.1565 H         1 UNK         0.1412 
     73 H73        17.7968  -29.1225  -46.5872 H         1 UNK         0.1426 
     74 H74        18.4681  -31.4336  -48.0819 H         1 UNK         0.0716 
     75 H75        19.4271  -32.5028  -47.0928 H         1 UNK         0.0716 
     76 H76        22.0575  -31.0162  -45.6302 H         1 UNK         0.0695 
     77 H77        20.4899  -30.7170  -44.9403 H         1 UNK         0.0695 
     78 H78        22.6151  -28.6915  -45.7502 H         1 UNK         0.0983 
     79 H79        19.9244  -28.1585  -46.1012 H         1 UNK         0.3095 
     80 H80        20.2623  -24.6394  -46.1333 H         1 UNK         0.0454 
     81 H81        18.4013  -26.9604  -46.9038 H         1 UNK         0.0851 
     82 H82        19.7566  -26.4497  -47.9078 H         1 UNK         0.0851 
     83 H83        18.4417  -25.3442  -47.5826 H         1 UNK         0.0851 
     84 H84        19.1695  -25.9170  -43.9155 H         1 UNK         0.2976 
     85 H85        20.0663  -28.5544  -43.3114 H         1 UNK         0.3116 
     86 H86        21.3995  -29.5193  -41.0636 H         1 UNK         0.0646 
     87 H87        18.9431  -29.1643  -41.2060 H         1 UNK         0.0847 
     88 H88        19.1805  -27.4164  -41.2189 H         1 UNK         0.0847 
     89 H89        19.6028  -28.3549  -39.7958 H         1 UNK         0.0847 
     90 H90        22.1916  -26.5870  -42.6825 H         1 UNK         0.3040 
     91 H91        23.2909  -25.0968  -40.4788 H         1 UNK         0.1015 
     92 H92        24.5146  -23.8921  -42.2730 H         1 UNK         0.0786 
     93 H93        22.8298  -24.0917  -42.7290 H         1 UNK         0.0786 
     94 H94        24.0672  -25.1216  -43.4470 H         1 UNK         0.0786 
     95 H95        24.3251  -27.9954  -42.1564 H         1 UNK         0.3172 
     96 H96        27.0770  -27.9469  -41.1441 H         1 UNK         0.0595 
     97 H97        25.4532  -30.2009  -42.4405 H         1 UNK         0.0839 
     98 H98        27.1925  -30.1777  -42.1911 H         1 UNK         0.0839 
     99 H99        26.4599  -29.0511  -43.3202 H         1 UNK         0.0839 
    100 H100       24.2406  -28.2069  -39.5224 H         1 UNK         0.2998 
    101 H101       23.6014  -28.8135  -37.5364 H         1 UNK         0.0822 
    102 H102       25.9361  -28.3722  -36.7093 H         1 UNK         0.0787 
    103 H103       25.1004  -29.6075  -35.7841 H         1 UNK         0.0787 
    104 H104       26.3250  -30.0766  -36.9483 H         1 UNK         0.0787 
    105 H105       23.7625  -30.7705  -40.0014 H         1 UNK         0.3055 
    106 H106       22.0194  -32.7177  -38.8161 H         1 UNK         0.1106 
    107 H107       24.7005  -33.6592  -40.0125 H         1 UNK         0.0828 
    108 H108       23.3501  -34.7146  -39.6194 H         1 UNK         0.0828 
    109 H109       24.1984  -33.8697  -38.3359 H         1 UNK         0.0828 
    110 H110       20.8126  -33.7778  -40.4624 H         1 UNK         0.2931 
    111 H111       20.4627  -32.3917  -42.9410 H         1 UNK         0.0412 
    112 H112       22.1045  -34.3271  -45.4413 H         1 UNK         0.3472 
    113 H113       20.9229  -33.0858  -45.1230 H         1 UNK         0.3472 
    114 H114       18.8943  -34.4029  -43.4133 H         1 UNK         0.0970 
    115 H115       19.3523  -35.0393  -41.8689 H         1 UNK         0.0970 
    116 H116       15.7705  -32.6933  -42.4268 H         1 UNK         0.0612 
    117 H117       16.5794  -33.8854  -43.4023 H         1 UNK         0.0612 
@<TRIPOS>BOND
     1    1    2 1    
     2    1   62 1    
     3    1   63 1    
     4    1   64 1    
     5    2    3 2    
     6    2    4 am   BACKBONE|DICT|INTERRES
     7    4    5 1    
     8    4   65 1    
     9    5    6 1    
    10    5   25 1    
    11    5   66 1    
    12    6    7 1    
    13    6   67 1    
    14    6   68 1    
    15    7    8 1    
    16    8    9 1    
    17    8   69 1    
    18    8   70 1    
    19    9   10 ar   
    20    9   14 ar   
    21   10   11 ar   
    22   10   71 1    
    23   11   12 ar   
    24   11   61 1    
    25   12   13 ar   
    26   12   72 1    
    27   13   14 ar   
    28   13   15 1    
    29   14   73 1    
    30   15   16 1    
    31   15   74 1    
    32   15   75 1    
    33   16   17 1    
    34   17   18 1    
    35   17   76 1    
    36   17   77 1    
    37   18   19 1    
    38   18   27 1    
    39   18   78 1    
    40   19   20 am   BACKBONE|DICT|INTERRES
    41   19   79 1    
    42   20   21 2    
    43   20   22 1    
    44   22   23 1    
    45   22   24 1    
    46   22   80 1    
    47   23   81 1    
    48   23   82 1    
    49   23   83 1    
    50   24   25 am   BACKBONE|DICT|INTERRES
    51   24   84 1    
    52   25   26 2    
    53   27   28 2    
    54   27   29 am   BACKBONE|DICT|INTERRES
    55   29   30 1    
    56   29   85 1    
    57   30   31 1    
    58   30   32 1    
    59   30   86 1    
    60   31   87 1    
    61   31   88 1    
    62   31   89 1    
    63   32   33 2    
    64   32   34 am   BACKBONE|DICT|INTERRES
    65   34   35 1    
    66   34   90 1    
    67   35   36 1    
    68   35   37 1    
    69   35   91 1    
    70   36   92 1    
    71   36   93 1    
    72   36   94 1    
    73   37   38 2    
    74   37   39 am   BACKBONE|DICT|INTERRES
    75   39   40 1    
    76   39   95 1    
    77   40   41 1    
    78   40   42 1    
    79   40   96 1    
    80   41   97 1    
    81   41   98 1    
    82   41   99 1    
    83   42   43 2    
    84   42   44 am   BACKBONE|DICT|INTERRES
    85   44   45 1    
    86   44  100 1    
    87   45   46 1    
    88   45   47 1    
    89   45  101 1    
    90   46  102 1    
    91   46  103 1    
    92   46  104 1    
    93   47   48 2    
    94   47   49 am   BACKBONE|DICT|INTERRES
    95   49   50 1    
    96   49  105 1    
    97   50   51 1    
    98   50   52 1    
    99   50  106 1    
   100   51  107 1    
   101   51  108 1    
   102   51  109 1    
   103   52   53 2    
   104   52   54 am   BACKBONE|DICT|INTERRES
   105   54   55 1    
   106   54  110 1    
   107   55   56 1    
   108   55   59 1    
   109   55  111 1    
   110   56   57 am   BACKBONE|DICT|INTERRES
   111   56   58 2    
   112   57  112 1    
   113   57  113 1    
   114   59   60 1    
   115   59  114 1    
   116   59  115 1    
   117   60   61 1    
   118   61  116 1    
   119   61  117 1    
@<TRIPOS>SUBSTRUCTURE
     1 UNK         1 GROUP             0       ****    0 ROOT    
