@<TRIPOS>MOLECULE
3R8
117   119    1
SMALL
USER_CHARGES


@<TRIPOS>ATOM
      1 CA         17.8760  -27.0807  -40.1259 C.3       0 UNK        -0.2013 
      2 C          17.3244  -26.0769  -41.1244 C.2       0 UNK         0.4866 
      3 O          16.4194  -25.3134  -40.7865 O.2       0 UNK        -0.5176 
      4 N          17.8692  -26.0638  -42.3450 N.am      1 UNK        -0.4884 
      5 CA         17.5443  -25.0976  -43.3922 C.3       1 UNK         0.0853 
      6 C6         16.2058  -25.3991  -44.1293 C.3       10 UNK        -0.0849 
      7 S7         16.2107  -26.7637  -45.3438 S.3       10 UNK        -0.2776 
      8 C8         15.9104  -28.2471  -44.3207 C.3       10 UNK         0.0316 
      9 C9         17.1764  -29.0760  -44.1341 C.ar      10 UNK        -0.0863 
     10 C10        17.5811  -29.4889  -42.8605 C.ar      10 UNK        -0.1009 
     11 C11        18.7561  -30.2302  -42.6914 C.ar      10 UNK        -0.0712 
     12 C12        19.5308  -30.5534  -43.8102 C.ar      10 UNK        -0.0894 
     13 C13        19.1241  -30.1681  -45.0904 C.ar      10 UNK        -0.0745 
     14 C14        17.9401  -29.4458  -45.2451 C.ar      10 UNK        -0.0972 
     15 C15        19.9644  -30.5159  -46.3110 C.3       10 UNK         0.0209 
     16 S16        20.6260  -29.0283  -47.1291 S.3       10 UNK        -0.2568 
     17 C17        21.7800  -28.4218  -45.8598 C.3       10 UNK        -0.0983 
     18 CA         22.3017  -26.9897  -46.1450 C.3       3 UNK         0.0876 
     19 N          21.2690  -25.9697  -45.9641 N.am      3 UNK        -0.4424 
     20 C          20.6031  -25.3385  -46.9346 C.2       2 UNK         0.4918 
     21 O          20.7152  -25.6179  -48.1297 O.2       2 UNK        -0.4875 
     22 CA         19.6791  -24.1782  -46.4993 C.3       2 UNK         0.0481 
     23 CB         19.0167  -23.4724  -47.6978 C.3       2 UNK        -0.1831 
     24 N          18.6291  -24.5719  -45.5533 N.am      2 UNK        -0.4498 
     25 C          18.7996  -24.8460  -44.2536 C.2       1 UNK         0.5027 
     26 O          19.9078  -24.8675  -43.7121 O.2       1 UNK        -0.4969 
     27 C          23.4479  -26.6670  -45.1743 C.2       3 UNK         0.5005 
     28 O          23.2063  -26.0984  -44.1072 O.2       3 UNK        -0.5279 
     29 N          24.6674  -27.1085  -45.5131 N.am      4 UNK        -0.4463 
     30 CA         25.8252  -27.0866  -44.6082 C.3       4 UNK         0.0283 
     31 CB         27.1077  -27.3538  -45.4121 C.3       4 UNK        -0.1875 
     32 C          25.6948  -28.0985  -43.4516 C.2       4 UNK         0.4949 
     33 O          26.2905  -27.8975  -42.3943 O.2       4 UNK        -0.5039 
     34 N          24.8989  -29.1547  -43.6684 N.am      5 UNK        -0.4663 
     35 CA         24.6019  -30.2238  -42.7131 C.3       5 UNK         0.0242 
     36 CB         24.2392  -31.4954  -43.5030 C.3       5 UNK        -0.1982 
     37 C          23.4855  -29.8756  -41.7098 C.2       5 UNK         0.5017 
     38 O          23.0568  -30.7723  -40.9841 O.2       5 UNK        -0.5012 
     39 N          23.0210  -28.6154  -41.6763 N.am      6 UNK        -0.4439 
     40 CA         21.8770  -28.1111  -40.8975 C.3       6 UNK         0.0297 
     41 CB         21.7944  -26.5838  -41.0462 C.3       6 UNK        -0.2006 
     42 C          21.8257  -28.4945  -39.4031 C.2       6 UNK         0.4892 
     43 O          20.7350  -28.5354  -38.8349 O.2       6 UNK        -0.5089 
     44 N          22.9867  -28.7697  -38.7960 N.am      7 UNK        -0.4243 
     45 CA         23.1201  -29.2051  -37.4058 C.3       7 UNK         0.0196 
     46 CB         24.5865  -29.0368  -36.9744 C.3       7 UNK        -0.2007 
     47 C          22.6497  -30.6493  -37.1373 C.2       7 UNK         0.5020 
     48 O          22.3586  -30.9589  -35.9810 O.2       7 UNK        -0.5147 
     49 N          22.6113  -31.5141  -38.1630 N.am      8 UNK        -0.4734 
     50 CA         22.3182  -32.9480  -38.0044 C.3       8 UNK         0.0238 
     51 CB         23.6397  -33.7172  -37.8255 C.3       8 UNK        -0.1912 
     52 C          21.4902  -33.5639  -39.1448 C.2       8 UNK         0.5038 
     53 O          20.8593  -34.5988  -38.9224 O.2       8 UNK        -0.5046 
     54 N          21.5068  -32.9427  -40.3289 N.am      9 UNK        -0.4200 
     55 CA         20.8883  -33.4056  -41.5805 C.3       9 UNK         0.0839 
     56 C          21.5854  -34.6666  -42.1769 C.2       9 UNK         0.5513 
     57 N          21.0095  -35.2860  -43.1993 N.am      9 UNK        -0.7519 
     58 O          22.6695  -35.0693  -41.7593 O.2       9 UNK        -0.4960 
     59 C59        19.3316  -33.5280  -41.5199 C.3       10 UNK        -0.0876 
     60 S60        18.4068  -32.1681  -40.7141 S.3       10 UNK        -0.2414 
     61 C61        19.2052  -30.6405  -41.2959 C.3       10 UNK         0.0169 
     62 H62        18.1381  -26.5815  -39.1934 H         1 UNK         0.0903 
     63 H63        17.1337  -27.8470  -39.9056 H         1 UNK         0.0903 
     64 H64        18.7730  -27.5659  -40.5051 H         1 UNK         0.0903 
     65 H65        18.6359  -26.6829  -42.5718 H         1 UNK         0.3096 
     66 H66        17.3991  -24.1378  -42.8904 H         1 UNK         0.1121 
     67 H67        15.8850  -24.5022  -44.6619 H         1 UNK         0.0849 
     68 H68        15.4130  -25.5798  -43.4020 H         1 UNK         0.0849 
     69 H69        15.4844  -27.9592  -43.3585 H         1 UNK         0.0865 
     70 H70        15.1610  -28.8668  -44.8145 H         1 UNK         0.0865 
     71 H71        16.9849  -29.2303  -41.9967 H         1 UNK         0.1346 
     72 H72        20.4554  -31.0965  -43.6906 H         1 UNK         0.1412 
     73 H73        17.6300  -29.1424  -46.2360 H         1 UNK         0.1426 
     74 H74        19.3470  -31.0653  -47.0229 H         1 UNK         0.0716 
     75 H75        20.7905  -31.1773  -46.0448 H         1 UNK         0.0716 
     76 H76        21.2939  -28.4544  -44.8827 H         1 UNK         0.0695 
     77 H77        22.6013  -29.1393  -45.8180 H         1 UNK         0.0695 
     78 H78        22.6990  -26.9387  -47.1614 H         1 UNK         0.0983 
     79 H79        21.1409  -25.6524  -45.0057 H         1 UNK         0.3095 
     80 H80        20.3168  -23.4425  -46.0048 H         1 UNK         0.0454 
     81 H81        19.7659  -23.1106  -48.4033 H         1 UNK         0.0851 
     82 H82        18.3516  -24.1429  -48.2435 H         1 UNK         0.0851 
     83 H83        18.4348  -22.6076  -47.3788 H         1 UNK         0.0851 
     84 H84        17.6961  -24.6571  -45.9323 H         1 UNK         0.2976 
     85 H85        24.8005  -27.5533  -46.4111 H         1 UNK         0.3116 
     86 H86        25.8998  -26.0898  -44.1679 H         1 UNK         0.0646 
     87 H87        27.9866  -27.3153  -44.7668 H         1 UNK         0.0847 
     88 H88        27.2504  -26.6069  -46.1933 H         1 UNK         0.0847 
     89 H89        27.0945  -28.3371  -45.8839 H         1 UNK         0.0847 
     90 H90        24.4629  -29.2334  -44.5744 H         1 UNK         0.3040 
     91 H91        25.5001  -30.4309  -42.1269 H         1 UNK         0.1015 
     92 H92        25.0340  -31.7726  -44.1959 H         1 UNK         0.0786 
     93 H93        23.3212  -31.3668  -44.0779 H         1 UNK         0.0786 
     94 H94        24.0888  -32.3463  -42.8365 H         1 UNK         0.0786 
     95 H95        23.4495  -27.9497  -42.3053 H         1 UNK         0.3172 
     96 H96        20.9835  -28.5248  -41.3624 H         1 UNK         0.0595 
     97 H97        21.5918  -26.2972  -42.0772 H         1 UNK         0.0839 
     98 H98        22.7194  -26.0965  -40.7361 H         1 UNK         0.0839 
     99 H99        20.9876  -26.1672  -40.4412 H         1 UNK         0.0839 
    100 H100       23.8334  -28.7176  -39.3431 H         1 UNK         0.2998 
    101 H101       22.5066  -28.5467  -36.7867 H         1 UNK         0.0822 
    102 H102       24.9143  -28.0019  -37.0741 H         1 UNK         0.0787 
    103 H103       24.7212  -29.3174  -35.9286 H         1 UNK         0.0787 
    104 H104       25.2557  -29.6616  -37.5676 H         1 UNK         0.0787 
    105 H105       22.8461  -31.1804  -39.0930 H         1 UNK         0.3055 
    106 H106       21.7167  -33.0956  -37.1043 H         1 UNK         0.1106 
    107 H107       24.2944  -33.5940  -38.6892 H         1 UNK         0.0828 
    108 H108       24.1807  -33.3780  -36.9420 H         1 UNK         0.0828 
    109 H109       23.4590  -34.7860  -37.7024 H         1 UNK         0.0828 
    110 H110       22.0998  -32.1256  -40.4459 H         1 UNK         0.2931 
    111 H111       21.1321  -32.6227  -42.2940 H         1 UNK         0.0412 
    112 H112       21.4667  -36.0914  -43.5983 H         1 UNK         0.3472 
    113 H113       20.1346  -34.9690  -43.5851 H         1 UNK         0.3472 
    114 H114       19.0559  -34.4487  -41.0029 H         1 UNK         0.0970 
    115 H115       18.9273  -33.6231  -42.5285 H         1 UNK         0.0970 
    116 H116       18.9477  -29.8534  -40.5887 H         1 UNK         0.0612 
    117 H117       20.2881  -30.7303  -41.2482 H         1 UNK         0.0612 
@<TRIPOS>BOND
     1    1    2 1    
     2    1   62 1    
     3    1   63 1    
     4    1   64 1    
     5    2    3 2    
     6    2    4 am   BACKBONE|DICT|INTERRES
     7    4    5 1    
     8    4   65 1    
     9    5    6 1    
    10    5   25 1    
    11    5   66 1    
    12    6    7 1    
    13    6   67 1    
    14    6   68 1    
    15    7    8 1    
    16    8    9 1    
    17    8   69 1    
    18    8   70 1    
    19    9   10 ar   
    20    9   14 ar   
    21   10   11 ar   
    22   10   71 1    
    23   11   12 ar   
    24   11   61 1    
    25   12   13 ar   
    26   12   72 1    
    27   13   14 ar   
    28   13   15 1    
    29   14   73 1    
    30   15   16 1    
    31   15   74 1    
    32   15   75 1    
    33   16   17 1    
    34   17   18 1    
    35   17   76 1    
    36   17   77 1    
    37   18   19 1    
    38   18   27 1    
    39   18   78 1    
    40   19   20 am   BACKBONE|DICT|INTERRES
    41   19   79 1    
    42   20   21 2    
    43   20   22 1    
    44   22   23 1    
    45   22   24 1    
    46   22   80 1    
    47   23   81 1    
    48   23   82 1    
    49   23   83 1    
    50   24   25 am   BACKBONE|DICT|INTERRES
    51   24   84 1    
    52   25   26 2    
    53   27   28 2    
    54   27   29 am   BACKBONE|DICT|INTERRES
    55   29   30 1    
    56   29   85 1    
    57   30   31 1    
    58   30   32 1    
    59   30   86 1    
    60   31   87 1    
    61   31   88 1    
    62   31   89 1    
    63   32   33 2    
    64   32   34 am   BACKBONE|DICT|INTERRES
    65   34   35 1    
    66   34   90 1    
    67   35   36 1    
    68   35   37 1    
    69   35   91 1    
    70   36   92 1    
    71   36   93 1    
    72   36   94 1    
    73   37   38 2    
    74   37   39 am   BACKBONE|DICT|INTERRES
    75   39   40 1    
    76   39   95 1    
    77   40   41 1    
    78   40   42 1    
    79   40   96 1    
    80   41   97 1    
    81   41   98 1    
    82   41   99 1    
    83   42   43 2    
    84   42   44 am   BACKBONE|DICT|INTERRES
    85   44   45 1    
    86   44  100 1    
    87   45   46 1    
    88   45   47 1    
    89   45  101 1    
    90   46  102 1    
    91   46  103 1    
    92   46  104 1    
    93   47   48 2    
    94   47   49 am   BACKBONE|DICT|INTERRES
    95   49   50 1    
    96   49  105 1    
    97   50   51 1    
    98   50   52 1    
    99   50  106 1    
   100   51  107 1    
   101   51  108 1    
   102   51  109 1    
   103   52   53 2    
   104   52   54 am   BACKBONE|DICT|INTERRES
   105   54   55 1    
   106   54  110 1    
   107   55   56 1    
   108   55   59 1    
   109   55  111 1    
   110   56   57 am   BACKBONE|DICT|INTERRES
   111   56   58 2    
   112   57  112 1    
   113   57  113 1    
   114   59   60 1    
   115   59  114 1    
   116   59  115 1    
   117   60   61 1    
   118   61  116 1    
   119   61  117 1    
@<TRIPOS>SUBSTRUCTURE
     1 UNK         1 GROUP             0       ****    0 ROOT    
