@<TRIPOS>MOLECULE
3R8
117   119    1
SMALL
USER_CHARGES


@<TRIPOS>ATOM
      1 CA         14.1730  -23.3884  -42.4110 C.3       0 UNK        -0.2013 
      2 C          14.7925  -23.9417  -43.6856 C.2       0 UNK         0.4866 
      3 O          14.9629  -23.2016  -44.6545 O.2       0 UNK        -0.5176 
      4 N          15.1332  -25.2378  -43.6928 N.am      1 UNK        -0.4884 
      5 CA         15.7439  -25.9350  -44.8352 C.3       1 UNK         0.0853 
      6 C6         15.5119  -27.4688  -44.7444 C.3       10 UNK        -0.0849 
      7 S7         15.2353  -28.2157  -46.3833 S.3       10 UNK        -0.2776 
      8 C8         15.5200  -29.9837  -46.0300 C.3       10 UNK         0.0316 
      9 C9         16.9895  -30.3878  -45.9039 C.ar      10 UNK        -0.0863 
     10 C10        17.3399  -31.4173  -45.0218 C.ar      10 UNK        -0.1009 
     11 C11        18.6588  -31.8755  -44.9447 C.ar      10 UNK        -0.0712 
     12 C12        19.6351  -31.2897  -45.7548 C.ar      10 UNK        -0.0894 
     13 C13        19.3089  -30.2467  -46.6246 C.ar      10 UNK        -0.0745 
     14 C14        17.9846  -29.8053  -46.7013 C.ar      10 UNK        -0.0972 
     15 C15        20.3894  -29.6149  -47.4928 C.3       10 UNK         0.0209 
     16 S16        20.9884  -28.0321  -46.8181 S.3       10 UNK        -0.2568 
     17 C17        21.6157  -28.5436  -45.1822 C.3       10 UNK        -0.0983 
     18 CA         22.2157  -27.3725  -44.3594 C.3       3 UNK         0.0876 
     19 N          21.3180  -26.2079  -44.2335 N.am      3 UNK        -0.4424 
     20 C          20.0719  -26.1704  -43.7391 C.2       2 UNK         0.4918 
     21 O          19.5275  -27.1313  -43.1901 O.2       2 UNK        -0.4875 
     22 CA         19.3159  -24.8280  -43.8081 C.3       2 UNK         0.0481 
     23 CB         19.8576  -23.8422  -44.8690 C.3       2 UNK        -0.1831 
     24 N          17.8743  -25.0524  -43.9634 N.am      2 UNK        -0.4498 
     25 C          17.2437  -25.6016  -45.0154 C.2       1 UNK         0.5027 
     26 O          17.7908  -25.8537  -46.0895 O.2       1 UNK        -0.4969 
     27 C          22.7549  -27.9041  -43.0130 C.2       3 UNK         0.5005 
     28 O          23.9227  -28.2928  -42.9404 O.2       3 UNK        -0.5279 
     29 N          21.9066  -27.9156  -41.9759 N.am      4 UNK        -0.4463 
     30 CA         22.1101  -28.4896  -40.6426 C.3       4 UNK         0.0283 
     31 CB         20.8804  -28.1838  -39.7757 C.3       4 UNK        -0.1875 
     32 C          23.3899  -28.0587  -39.9095 C.2       4 UNK         0.4949 
     33 O          23.8965  -28.8340  -39.1008 O.2       4 UNK        -0.5039 
     34 N          23.9159  -26.8689  -40.2295 N.am      5 UNK        -0.4663 
     35 CA         25.2005  -26.3613  -39.7370 C.3       5 UNK         0.0242 
     36 CB         25.3906  -24.9165  -40.2261 C.3       5 UNK        -0.1982 
     37 C          26.4104  -27.2293  -40.1384 C.2       5 UNK         0.5017 
     38 O          27.4116  -27.2193  -39.4212 O.2       5 UNK        -0.5012 
     39 N          26.2942  -27.9610  -41.2556 N.am      6 UNK        -0.4439 
     40 CA         27.2884  -28.9199  -41.7383 C.3       6 UNK         0.0297 
     41 CB         27.7533  -28.5035  -43.1437 C.3       6 UNK        -0.2006 
     42 C          26.7273  -30.3501  -41.7635 C.2       6 UNK         0.4892 
     43 O          27.4479  -31.2828  -41.4077 O.2       6 UNK        -0.5089 
     44 N          25.4694  -30.5072  -42.1994 N.am      7 UNK        -0.4243 
     45 CA         24.8321  -31.8043  -42.4399 C.3       7 UNK         0.0196 
     46 CB         23.7348  -31.6198  -43.5005 C.3       7 UNK        -0.2007 
     47 C          24.2580  -32.4779  -41.1803 C.2       7 UNK         0.5020 
     48 O          23.9702  -33.6734  -41.2346 O.2       7 UNK        -0.5147 
     49 N          24.0793  -31.7189  -40.0868 N.am      8 UNK        -0.4734 
     50 CA         23.5047  -32.1413  -38.7966 C.3       8 UNK         0.0238 
     51 CB         24.4005  -33.1957  -38.1109 C.3       8 UNK        -0.1912 
     52 C          22.0229  -32.5745  -38.8698 C.2       8 UNK         0.5038 
     53 O          21.5650  -33.3299  -38.0102 O.2       8 UNK        -0.5046 
     54 N          21.3031  -32.0866  -39.8878 N.am      9 UNK        -0.4200 
     55 CA         19.8713  -32.3174  -40.1327 C.3       9 UNK         0.0839 
     56 C          18.9564  -31.7504  -39.0128 C.2       9 UNK         0.5513 
     57 N          17.7950  -32.3544  -38.8019 N.am      9 UNK        -0.7519 
     58 O          19.2662  -30.7534  -38.3651 O.2       9 UNK        -0.4960 
     59 C59        19.4518  -31.7680  -41.5222 C.3       10 UNK        -0.0876 
     60 S60        20.3536  -32.6137  -42.8627 S.3       10 UNK        -0.2414 
     61 C61        19.0255  -33.0401  -44.0334 C.3       10 UNK         0.0169 
     62 H62        13.1788  -22.9935  -42.6185 H         1 UNK         0.0903 
     63 H63        14.0798  -24.1502  -41.6372 H         1 UNK         0.0903 
     64 H64        14.7857  -22.5780  -42.0170 H         1 UNK         0.0903 
     65 H65        14.9661  -25.7995  -42.8690 H         1 UNK         0.3096 
     66 H66        15.2419  -25.5629  -45.7319 H         1 UNK         0.1121 
     67 H67        16.3364  -27.9751  -44.2362 H         1 UNK         0.0849 
     68 H68        14.6210  -27.6883  -44.1535 H         1 UNK         0.0849 
     69 H69        14.9692  -30.2518  -45.1269 H         1 UNK         0.0865 
     70 H70        15.0799  -30.5682  -46.8389 H         1 UNK         0.0865 
     71 H71        16.5773  -31.8852  -44.4140 H         1 UNK         0.1346 
     72 H72        20.6551  -31.6458  -45.7017 H         1 UNK         0.1412 
     73 H73        17.7332  -29.0112  -47.3909 H         1 UNK         0.1426 
     74 H74        21.2345  -30.2950  -47.6100 H         1 UNK         0.0716 
     75 H75        19.9964  -29.4435  -48.4959 H         1 UNK         0.0716 
     76 H76        20.7981  -29.0084  -44.6289 H         1 UNK         0.0695 
     77 H77        22.3636  -29.3238  -45.3373 H         1 UNK         0.0695 
     78 H78        23.0876  -27.0073  -44.9049 H         1 UNK         0.0983 
     79 H79        21.6825  -25.3539  -44.6299 H         1 UNK         0.3095 
     80 H80        19.4407  -24.3592  -42.8313 H         1 UNK         0.0454 
     81 H81        19.9053  -24.2910  -45.8620 H         1 UNK         0.0851 
     82 H82        19.2268  -22.9559  -44.9386 H         1 UNK         0.0851 
     83 H83        20.8594  -23.4952  -44.6143 H         1 UNK         0.0851 
     84 H84        17.3211  -24.9038  -43.1317 H         1 UNK         0.2976 
     85 H85        20.9602  -27.6046  -42.1878 H         1 UNK         0.3116 
     86 H86        22.1719  -29.5688  -40.7799 H         1 UNK         0.0646 
     87 H87        20.7377  -27.1108  -39.6428 H         1 UNK         0.0847 
     88 H88        19.9693  -28.5905  -40.2145 H         1 UNK         0.0847 
     89 H89        20.9819  -28.6244  -38.7826 H         1 UNK         0.0847 
     90 H90        23.4288  -26.3016  -40.9079 H         1 UNK         0.3040 
     91 H91        25.1575  -26.3545  -38.6455 H         1 UNK         0.1015 
     92 H92        25.4185  -24.8593  -41.3151 H         1 UNK         0.0786 
     93 H93        26.3271  -24.4985  -39.8539 H         1 UNK         0.0786 
     94 H94        24.5873  -24.2686  -39.8746 H         1 UNK         0.0786 
     95 H95        25.4239  -27.9056  -41.7778 H         1 UNK         0.3172 
     96 H96        28.1627  -28.9275  -41.0842 H         1 UNK         0.0595 
     97 H97        28.4893  -29.2064  -43.5366 H         1 UNK         0.0839 
     98 H98        28.2218  -27.5193  -43.1284 H         1 UNK         0.0839 
     99 H99        26.9239  -28.4678  -43.8516 H         1 UNK         0.0839 
    100 H100       24.9407  -29.6880  -42.4933 H         1 UNK         0.2998 
    101 H101       25.5811  -32.4845  -42.8518 H         1 UNK         0.0822 
    102 H102       23.2880  -32.5777  -43.7698 H         1 UNK         0.0787 
    103 H103       22.9324  -30.9740  -43.1433 H         1 UNK         0.0787 
    104 H104       24.1345  -31.1827  -44.4157 H         1 UNK         0.0787 
    105 H105       24.3571  -30.7454  -40.1295 H         1 UNK         0.3055 
    106 H106       23.5114  -31.2561  -38.1591 H         1 UNK         0.1106 
    107 H107       25.4366  -32.8616  -38.0574 H         1 UNK         0.0828 
    108 H108       24.0707  -33.3851  -37.0887 H         1 UNK         0.0828 
    109 H109       24.3816  -34.1500  -38.6378 H         1 UNK         0.0828 
    110 H110       21.7756  -31.5074  -40.5622 H         1 UNK         0.2931 
    111 H111       19.7309  -33.4005  -40.1421 H         1 UNK         0.0412 
    112 H112       17.1792  -31.9946  -38.0891 H         1 UNK         0.3472 
    113 H113       17.5264  -33.1707  -39.3295 H         1 UNK         0.3472 
    114 H114       18.3789  -31.8948  -41.6777 H         1 UNK         0.0970 
    115 H115       19.6420  -30.6957  -41.5943 H         1 UNK         0.0970 
    116 H116       19.3696  -33.8673  -44.6555 H         1 UNK         0.0612 
    117 H117       18.1566  -33.4112  -43.4879 H         1 UNK         0.0612 
@<TRIPOS>BOND
     1    1    2 1    
     2    1   62 1    
     3    1   63 1    
     4    1   64 1    
     5    2    3 2    
     6    2    4 am   BACKBONE|DICT|INTERRES
     7    4    5 1    
     8    4   65 1    
     9    5    6 1    
    10    5   25 1    
    11    5   66 1    
    12    6    7 1    
    13    6   67 1    
    14    6   68 1    
    15    7    8 1    
    16    8    9 1    
    17    8   69 1    
    18    8   70 1    
    19    9   10 ar   
    20    9   14 ar   
    21   10   11 ar   
    22   10   71 1    
    23   11   12 ar   
    24   11   61 1    
    25   12   13 ar   
    26   12   72 1    
    27   13   14 ar   
    28   13   15 1    
    29   14   73 1    
    30   15   16 1    
    31   15   74 1    
    32   15   75 1    
    33   16   17 1    
    34   17   18 1    
    35   17   76 1    
    36   17   77 1    
    37   18   19 1    
    38   18   27 1    
    39   18   78 1    
    40   19   20 am   BACKBONE|DICT|INTERRES
    41   19   79 1    
    42   20   21 2    
    43   20   22 1    
    44   22   23 1    
    45   22   24 1    
    46   22   80 1    
    47   23   81 1    
    48   23   82 1    
    49   23   83 1    
    50   24   25 am   BACKBONE|DICT|INTERRES
    51   24   84 1    
    52   25   26 2    
    53   27   28 2    
    54   27   29 am   BACKBONE|DICT|INTERRES
    55   29   30 1    
    56   29   85 1    
    57   30   31 1    
    58   30   32 1    
    59   30   86 1    
    60   31   87 1    
    61   31   88 1    
    62   31   89 1    
    63   32   33 2    
    64   32   34 am   BACKBONE|DICT|INTERRES
    65   34   35 1    
    66   34   90 1    
    67   35   36 1    
    68   35   37 1    
    69   35   91 1    
    70   36   92 1    
    71   36   93 1    
    72   36   94 1    
    73   37   38 2    
    74   37   39 am   BACKBONE|DICT|INTERRES
    75   39   40 1    
    76   39   95 1    
    77   40   41 1    
    78   40   42 1    
    79   40   96 1    
    80   41   97 1    
    81   41   98 1    
    82   41   99 1    
    83   42   43 2    
    84   42   44 am   BACKBONE|DICT|INTERRES
    85   44   45 1    
    86   44  100 1    
    87   45   46 1    
    88   45   47 1    
    89   45  101 1    
    90   46  102 1    
    91   46  103 1    
    92   46  104 1    
    93   47   48 2    
    94   47   49 am   BACKBONE|DICT|INTERRES
    95   49   50 1    
    96   49  105 1    
    97   50   51 1    
    98   50   52 1    
    99   50  106 1    
   100   51  107 1    
   101   51  108 1    
   102   51  109 1    
   103   52   53 2    
   104   52   54 am   BACKBONE|DICT|INTERRES
   105   54   55 1    
   106   54  110 1    
   107   55   56 1    
   108   55   59 1    
   109   55  111 1    
   110   56   57 am   BACKBONE|DICT|INTERRES
   111   56   58 2    
   112   57  112 1    
   113   57  113 1    
   114   59   60 1    
   115   59  114 1    
   116   59  115 1    
   117   60   61 1    
   118   61  116 1    
   119   61  117 1    
@<TRIPOS>SUBSTRUCTURE
     1 UNK         1 GROUP             0       ****    0 ROOT    
