@<TRIPOS>MOLECULE
3R8
117   119    1
SMALL
USER_CHARGES


@<TRIPOS>ATOM
      1 CA         18.8420  -33.2863  -48.4388 C.3       0 UNK        -0.2013 
      2 C          19.5699  -32.1490  -47.7383 C.2       0 UNK         0.4866 
      3 O          20.7986  -32.0905  -47.7804 O.2       0 UNK        -0.5176 
      4 N          18.8213  -31.2514  -47.0874 N.am      1 UNK        -0.4884 
      5 CA         19.3337  -30.0558  -46.4131 C.3       1 UNK         0.0853 
      6 C6         18.2990  -29.4942  -45.4041 C.3       10 UNK        -0.0849 
      7 S7         16.5982  -29.2734  -46.0254 S.3       10 UNK        -0.2776 
      8 C8         15.6475  -29.5406  -44.4888 C.3       10 UNK         0.0316 
      9 C9         16.1072  -28.6446  -43.3411 C.ar      10 UNK        -0.0863 
     10 C10        16.4724  -29.2054  -42.1117 C.ar      10 UNK        -0.1009 
     11 C11        16.8873  -28.3909  -41.0532 C.ar      10 UNK        -0.0712 
     12 C12        16.9310  -27.0054  -41.2296 C.ar      10 UNK        -0.0894 
     13 C13        16.5783  -26.4324  -42.4551 C.ar      10 UNK        -0.0745 
     14 C14        16.1592  -27.2563  -43.5032 C.ar      10 UNK        -0.0972 
     15 C15        16.6365  -24.9230  -42.6428 C.3       10 UNK         0.0209 
     16 S16        18.3157  -24.2625  -42.3979 S.3       10 UNK        -0.2568 
     17 C17        19.2350  -25.0005  -43.7951 C.3       10 UNK        -0.0983 
     18 CA         20.0226  -26.2978  -43.4638 C.3       3 UNK         0.0876 
     19 N          20.7008  -26.7914  -44.6657 N.am      3 UNK        -0.4424 
     20 C          21.3152  -27.9740  -44.7942 C.2       2 UNK         0.4918 
     21 O          21.3462  -28.8429  -43.9228 O.2       2 UNK        -0.4875 
     22 CA         21.9195  -28.2512  -46.1795 C.3       2 UNK         0.0481 
     23 CB         22.8340  -29.4937  -46.2372 C.3       2 UNK        -0.1831 
     24 N          20.9178  -28.2619  -47.2571 N.am      2 UNK        -0.4498 
     25 C          19.8008  -28.9924  -47.4422 C.2       1 UNK         0.5027 
     26 O          19.1130  -28.8180  -48.4494 O.2       1 UNK        -0.4969 
     27 C          21.0188  -26.1113  -42.2974 C.2       3 UNK         0.5005 
     28 O          22.1311  -25.6286  -42.5234 O.2       3 UNK        -0.5279 
     29 N          20.5617  -26.4659  -41.0870 N.am      4 UNK        -0.4463 
     30 CA         21.2659  -26.5177  -39.8006 C.3       4 UNK         0.0283 
     31 CB         22.0785  -25.2411  -39.5047 C.3       4 UNK        -0.1875 
     32 C          22.1309  -27.7794  -39.6752 C.2       4 UNK         0.4949 
     33 O          22.7071  -28.2494  -40.6573 O.2       4 UNK        -0.5039 
     34 N          22.2187  -28.3051  -38.4458 N.am      5 UNK        -0.4663 
     35 CA         22.9243  -29.5498  -38.1133 C.3       5 UNK         0.0242 
     36 CB         22.6126  -29.9345  -36.6587 C.3       5 UNK        -0.1982 
     37 C          24.4441  -29.4876  -38.3454 C.2       5 UNK         0.5017 
     38 O          25.0677  -30.5296  -38.5461 O.2       5 UNK        -0.5012 
     39 N          25.0002  -28.2675  -38.3466 N.am      6 UNK        -0.4439 
     40 CA         26.3781  -27.9678  -38.7379 C.3       6 UNK         0.0297 
     41 CB         26.6998  -26.5079  -38.3795 C.3       6 UNK        -0.2006 
     42 C          26.6530  -28.2289  -40.2314 C.2       6 UNK         0.4892 
     43 O          27.7989  -28.5147  -40.5810 O.2       6 UNK        -0.5089 
     44 N          25.6134  -28.1377  -41.0747 N.am      7 UNK        -0.4243 
     45 CA         25.6567  -28.5249  -42.4810 C.3       7 UNK         0.0196 
     46 CB         24.7829  -27.5797  -43.3199 C.3       7 UNK        -0.2007 
     47 C          25.2171  -29.9885  -42.6108 C.2       7 UNK         0.5020 
     48 O          26.0353  -30.8124  -43.0198 O.2       7 UNK        -0.5147 
     49 N          23.9675  -30.2957  -42.2245 N.am      8 UNK        -0.4734 
     50 CA         23.4275  -31.6592  -42.1717 C.3       8 UNK         0.0238 
     51 CB         23.3848  -32.3200  -43.5689 C.3       8 UNK        -0.1912 
     52 C          22.0280  -31.7391  -41.5459 C.2       8 UNK         0.5038 
     53 O          21.7873  -32.6615  -40.7675 O.2       8 UNK        -0.5046 
     54 N          21.1152  -30.8464  -41.9597 N.am      9 UNK        -0.4200 
     55 CA         19.6481  -31.0047  -41.8543 C.3       9 UNK         0.0839 
     56 C          19.0733  -32.1538  -42.7444 C.2       9 UNK         0.5513 
     57 N          19.8109  -32.6772  -43.7167 N.am      9 UNK        -0.7519 
     58 O          17.9208  -32.5486  -42.5906 O.2       9 UNK        -0.4960 
     59 C59        19.0971  -31.0451  -40.3949 C.3       10 UNK        -0.0876 
     60 S60        19.0363  -29.4020  -39.6133 S.3       10 UNK        -0.2414 
     61 C61        17.2634  -28.9949  -39.7077 C.3       10 UNK         0.0169 
     62 H62        17.7624  -33.2256  -48.3019 H         1 UNK         0.0903 
     63 H63        19.0504  -33.2621  -49.5081 H         1 UNK         0.0903 
     64 H64        19.1799  -34.2454  -48.0471 H         1 UNK         0.0903 
     65 H65        17.8135  -31.3199  -47.1166 H         1 UNK         0.3096 
     66 H66        20.1894  -30.3836  -45.8286 H         1 UNK         0.1121 
     67 H67        18.2515  -30.1725  -44.5549 H         1 UNK         0.0849 
     68 H68        18.6167  -28.5398  -44.9906 H         1 UNK         0.0849 
     69 H69        14.5919  -29.3504  -44.6868 H         1 UNK         0.0865 
     70 H70        15.7229  -30.5935  -44.2109 H         1 UNK         0.0865 
     71 H71        16.4306  -30.2774  -41.9746 H         1 UNK         0.1346 
     72 H72        17.2412  -26.3682  -40.4123 H         1 UNK         0.1412 
     73 H73        15.8772  -26.8202  -44.4521 H         1 UNK         0.1426 
     74 H74        15.9653  -24.4523  -41.9233 H         1 UNK         0.0716 
     75 H75        16.2782  -24.6332  -43.6319 H         1 UNK         0.0716 
     76 H76        18.5331  -25.1928  -44.6083 H         1 UNK         0.0695 
     77 H77        19.9197  -24.2372  -44.1694 H         1 UNK         0.0695 
     78 H78        19.3052  -27.0671  -43.1707 H         1 UNK         0.0983 
     79 H79        20.7408  -26.1470  -45.4413 H         1 UNK         0.3095 
     80 H80        22.5637  -27.3945  -46.3839 H         1 UNK         0.0454 
     81 H81        22.2926  -30.4354  -46.2103 H         1 UNK         0.0851 
     82 H82        23.4280  -29.4936  -47.1509 H         1 UNK         0.0851 
     83 H83        23.5359  -29.5060  -45.4032 H         1 UNK         0.0851 
     84 H84        21.1139  -27.5905  -47.9862 H         1 UNK         0.2976 
     85 H85        19.6301  -26.8560  -41.0534 H         1 UNK         0.3116 
     86 H86        20.4755  -26.5839  -39.0512 H         1 UNK         0.0646 
     87 H87        22.4141  -25.2259  -38.4673 H         1 UNK         0.0847 
     88 H88        21.4816  -24.3433  -39.6650 H         1 UNK         0.0847 
     89 H89        22.9698  -25.1689  -40.1288 H         1 UNK         0.0847 
     90 H90        21.7130  -27.8617  -37.6917 H         1 UNK         0.3040 
     91 H91        22.5329  -30.3339  -38.7659 H         1 UNK         0.1015 
     92 H92        21.5421  -30.0756  -36.5070 H         1 UNK         0.0786 
     93 H93        22.9563  -29.1740  -35.9564 H         1 UNK         0.0786 
     94 H94        23.1014  -30.8721  -36.3896 H         1 UNK         0.0786 
     95 H95        24.3987  -27.4811  -38.1500 H         1 UNK         0.3172 
     96 H96        27.0399  -28.6173  -38.1610 H         1 UNK         0.0595 
     97 H97        26.5809  -26.3244  -37.3114 H         1 UNK         0.0839 
     98 H98        26.0578  -25.8079  -38.9160 H         1 UNK         0.0839 
     99 H99        27.7319  -26.2631  -38.6348 H         1 UNK         0.0839 
    100 H100       24.6888  -27.9550  -40.6994 H         1 UNK         0.2998 
    101 H101       26.6794  -28.4422  -42.8558 H         1 UNK         0.0822 
    102 H102       25.0820  -26.5401  -43.1858 H         1 UNK         0.0787 
    103 H103       24.8718  -27.8073  -44.3820 H         1 UNK         0.0787 
    104 H104       23.7301  -27.6554  -43.0535 H         1 UNK         0.0787 
    105 H105       23.3854  -29.5598  -41.8249 H         1 UNK         0.3055 
    106 H106       24.0929  -32.2457  -41.5339 H         1 UNK         0.1106 
    107 H107       22.8340  -31.7105  -44.2835 H         1 UNK         0.0828 
    108 H108       24.3803  -32.4913  -43.9759 H         1 UNK         0.0828 
    109 H109       22.8999  -33.2966  -43.5270 H         1 UNK         0.0828 
    110 H110       21.4046  -30.1130  -42.6040 H         1 UNK         0.2931 
    111 H111       19.2482  -30.1037  -42.3200 H         1 UNK         0.0412 
    112 H112       19.4167  -33.4085  -44.2868 H         1 UNK         0.3472 
    113 H113       20.7512  -32.3613  -43.8779 H         1 UNK         0.3472 
    114 H114       19.6911  -31.7043  -39.7632 H         1 UNK         0.0970 
    115 H115       18.0902  -31.4614  -40.3556 H         1 UNK         0.0970 
    116 H116       17.0338  -28.2843  -38.9122 H         1 UNK         0.0612 
    117 H117       16.6572  -29.8775  -39.4994 H         1 UNK         0.0612 
@<TRIPOS>BOND
     1    1    2 1    
     2    1   62 1    
     3    1   63 1    
     4    1   64 1    
     5    2    3 2    
     6    2    4 am   BACKBONE|DICT|INTERRES
     7    4    5 1    
     8    4   65 1    
     9    5    6 1    
    10    5   25 1    
    11    5   66 1    
    12    6    7 1    
    13    6   67 1    
    14    6   68 1    
    15    7    8 1    
    16    8    9 1    
    17    8   69 1    
    18    8   70 1    
    19    9   10 ar   
    20    9   14 ar   
    21   10   11 ar   
    22   10   71 1    
    23   11   12 ar   
    24   11   61 1    
    25   12   13 ar   
    26   12   72 1    
    27   13   14 ar   
    28   13   15 1    
    29   14   73 1    
    30   15   16 1    
    31   15   74 1    
    32   15   75 1    
    33   16   17 1    
    34   17   18 1    
    35   17   76 1    
    36   17   77 1    
    37   18   19 1    
    38   18   27 1    
    39   18   78 1    
    40   19   20 am   BACKBONE|DICT|INTERRES
    41   19   79 1    
    42   20   21 2    
    43   20   22 1    
    44   22   23 1    
    45   22   24 1    
    46   22   80 1    
    47   23   81 1    
    48   23   82 1    
    49   23   83 1    
    50   24   25 am   BACKBONE|DICT|INTERRES
    51   24   84 1    
    52   25   26 2    
    53   27   28 2    
    54   27   29 am   BACKBONE|DICT|INTERRES
    55   29   30 1    
    56   29   85 1    
    57   30   31 1    
    58   30   32 1    
    59   30   86 1    
    60   31   87 1    
    61   31   88 1    
    62   31   89 1    
    63   32   33 2    
    64   32   34 am   BACKBONE|DICT|INTERRES
    65   34   35 1    
    66   34   90 1    
    67   35   36 1    
    68   35   37 1    
    69   35   91 1    
    70   36   92 1    
    71   36   93 1    
    72   36   94 1    
    73   37   38 2    
    74   37   39 am   BACKBONE|DICT|INTERRES
    75   39   40 1    
    76   39   95 1    
    77   40   41 1    
    78   40   42 1    
    79   40   96 1    
    80   41   97 1    
    81   41   98 1    
    82   41   99 1    
    83   42   43 2    
    84   42   44 am   BACKBONE|DICT|INTERRES
    85   44   45 1    
    86   44  100 1    
    87   45   46 1    
    88   45   47 1    
    89   45  101 1    
    90   46  102 1    
    91   46  103 1    
    92   46  104 1    
    93   47   48 2    
    94   47   49 am   BACKBONE|DICT|INTERRES
    95   49   50 1    
    96   49  105 1    
    97   50   51 1    
    98   50   52 1    
    99   50  106 1    
   100   51  107 1    
   101   51  108 1    
   102   51  109 1    
   103   52   53 2    
   104   52   54 am   BACKBONE|DICT|INTERRES
   105   54   55 1    
   106   54  110 1    
   107   55   56 1    
   108   55   59 1    
   109   55  111 1    
   110   56   57 am   BACKBONE|DICT|INTERRES
   111   56   58 2    
   112   57  112 1    
   113   57  113 1    
   114   59   60 1    
   115   59  114 1    
   116   59  115 1    
   117   60   61 1    
   118   61  116 1    
   119   61  117 1    
@<TRIPOS>SUBSTRUCTURE
     1 UNK         1 GROUP             0       ****    0 ROOT    
