@<TRIPOS>MOLECULE
3R8
117   119    1
SMALL
USER_CHARGES


@<TRIPOS>ATOM
      1 CA         20.3126  -26.3365  -50.1463 C.3       0 UNK        -0.2013 
      2 C          19.9178  -26.5206  -48.6883 C.2       0 UNK         0.4866 
      3 O          18.9617  -25.8869  -48.2431 O.2       0 UNK        -0.5176 
      4 N          20.6566  -27.3790  -47.9679 N.am      1 UNK        -0.4884 
      5 CA         20.5547  -27.7784  -46.5525 C.3       1 UNK         0.0853 
      6 C6         19.4532  -28.8362  -46.2326 C.3       10 UNK        -0.0849 
      7 S7         17.7224  -28.3404  -46.5456 S.3       10 UNK        -0.2776 
      8 C8         16.8121  -29.8841  -46.2128 C.3       10 UNK         0.0316 
      9 C9         16.5918  -30.0933  -44.7221 C.ar      10 UNK        -0.0863 
     10 C10        17.2712  -31.1025  -44.0337 C.ar      10 UNK        -0.1009 
     11 C11        17.0937  -31.2629  -42.6552 C.ar      10 UNK        -0.0712 
     12 C12        16.2218  -30.4134  -41.9672 C.ar      10 UNK        -0.0894 
     13 C13        15.5480  -29.3924  -42.6447 C.ar      10 UNK        -0.0745 
     14 C14        15.7160  -29.2557  -44.0257 C.ar      10 UNK        -0.0972 
     15 C15        14.7152  -28.3767  -41.8771 C.3       10 UNK         0.0209 
     16 S16        15.4920  -26.7234  -41.9057 S.3       10 UNK        -0.2568 
     17 C17        17.0768  -27.0141  -41.0414 C.3       10 UNK        -0.0983 
     18 CA         18.2260  -27.4614  -41.9934 C.3       3 UNK         0.0876 
     19 N          18.4454  -26.5759  -43.1381 N.am      3 UNK        -0.4424 
     20 C          18.9865  -25.3507  -43.1302 C.2       2 UNK         0.4918 
     21 O          19.2667  -24.7254  -42.1062 O.2       2 UNK        -0.4875 
     22 CA         19.2655  -24.7365  -44.5199 C.3       2 UNK         0.0481 
     23 CB         20.3384  -23.6282  -44.4858 C.3       2 UNK        -0.1831 
     24 N          19.5832  -25.7583  -45.5291 N.am      2 UNK        -0.4498 
     25 C          20.6090  -26.6220  -45.5293 C.2       1 UNK         0.5027 
     26 O          21.5630  -26.5517  -44.7548 O.2       1 UNK        -0.4969 
     27 C          19.5564  -27.8096  -41.2935 C.2       3 UNK         0.5005 
     28 O          20.5475  -28.0527  -41.9847 O.2       3 UNK        -0.5279 
     29 N          19.5806  -27.8495  -39.9541 N.am      4 UNK        -0.4463 
     30 CA         20.7356  -28.2288  -39.1304 C.3       4 UNK         0.0283 
     31 CB         20.2347  -28.6535  -37.7377 C.3       4 UNK        -0.1875 
     32 C          21.8340  -27.1436  -39.0620 C.2       4 UNK         0.4949 
     33 O          22.3530  -26.8543  -37.9832 O.2       4 UNK        -0.5039 
     34 N          22.1798  -26.5669  -40.2181 N.am      5 UNK        -0.4663 
     35 CA         23.2655  -25.6006  -40.4017 C.3       5 UNK         0.0242 
     36 CB         22.9622  -24.7558  -41.6495 C.3       5 UNK        -0.1982 
     37 C          24.6430  -26.2774  -40.5287 C.2       5 UNK         0.5017 
     38 O          25.6626  -25.5909  -40.4522 O.2       5 UNK        -0.5012 
     39 N          24.6498  -27.5997  -40.7232 N.am      6 UNK        -0.4439 
     40 CA         25.8168  -28.4649  -40.8222 C.3       6 UNK         0.0297 
     41 CB         26.2728  -28.5431  -42.2901 C.3       6 UNK        -0.2006 
     42 C          25.4341  -29.8471  -40.2785 C.2       6 UNK         0.4892 
     43 O          24.2453  -30.1206  -40.0776 O.2       6 UNK        -0.5089 
     44 N          26.4477  -30.6957  -40.0599 N.am      7 UNK        -0.4243 
     45 CA         26.3004  -32.0842  -39.6142 C.3       7 UNK         0.0196 
     46 CB         27.6904  -32.7126  -39.4265 C.3       7 UNK        -0.2007 
     47 C          25.4616  -32.9077  -40.6048 C.2       7 UNK         0.5020 
     48 O          25.7168  -32.8492  -41.8098 O.2       7 UNK        -0.5147 
     49 N          24.4514  -33.6155  -40.0793 N.am      8 UNK        -0.4734 
     50 CA         23.4331  -34.3796  -40.8189 C.3       8 UNK         0.0238 
     51 CB         24.0643  -35.6248  -41.4781 C.3       8 UNK        -0.1912 
     52 C          22.6224  -33.5267  -41.8211 C.2       8 UNK         0.5038 
     53 O          22.1289  -34.0624  -42.8152 O.2       8 UNK        -0.5046 
     54 N          22.5154  -32.2188  -41.5446 N.am      9 UNK        -0.4200 
     55 CA         21.9179  -31.1861  -42.4054 C.3       9 UNK         0.0839 
     56 C          22.7344  -30.8904  -43.7011 C.2       9 UNK         0.5513 
     57 N          24.0020  -31.2796  -43.7925 N.am      9 UNK        -0.7519 
     58 O          22.2203  -30.2877  -44.6395 O.2       9 UNK        -0.4960 
     59 C59        20.4038  -31.4039  -42.6892 C.3       10 UNK        -0.0876 
     60 S60        19.4016  -31.6458  -41.1820 S.3       10 UNK        -0.2414 
     61 C61        17.8721  -32.3272  -41.8969 C.3       10 UNK         0.0169 
     62 H62        20.5633  -25.2935  -50.3377 H         1 UNK         0.0903 
     63 H63        21.1728  -26.9474  -50.4200 H         1 UNK         0.0903 
     64 H64        19.4818  -26.6112  -50.7958 H         1 UNK         0.0903 
     65 H65        21.4299  -27.8210  -48.4462 H         1 UNK         0.3096 
     66 H66        21.4955  -28.3077  -46.3858 H         1 UNK         0.1121 
     67 H67        19.5343  -29.1514  -45.1902 H         1 UNK         0.0849 
     68 H68        19.6510  -29.7341  -46.8199 H         1 UNK         0.0849 
     69 H69        15.8424  -29.8338  -46.7104 H         1 UNK         0.0865 
     70 H70        17.3383  -30.7297  -46.6589 H         1 UNK         0.0865 
     71 H71        17.9547  -31.7503  -44.5654 H         1 UNK         0.1346 
     72 H72        16.1085  -30.5180  -40.8967 H         1 UNK         0.1412 
     73 H73        15.2077  -28.4575  -44.5501 H         1 UNK         0.1426 
     74 H74        13.7229  -28.3119  -42.3256 H         1 UNK         0.0716 
     75 H75        14.5673  -28.6895  -40.8423 H         1 UNK         0.0716 
     76 H76        16.8997  -27.7608  -40.2655 H         1 UNK         0.0695 
     77 H77        17.3487  -26.0902  -40.5279 H         1 UNK         0.0695 
     78 H78        17.9436  -28.4071  -42.4454 H         1 UNK         0.0983 
     79 H79        18.2629  -26.9920  -44.0397 H         1 UNK         0.3095 
     80 H80        18.3295  -24.2781  -44.8416 H         1 UNK         0.0454 
     81 H81        21.2927  -23.9967  -44.1096 H         1 UNK         0.0851 
     82 H82        20.0313  -22.8075  -43.8367 H         1 UNK         0.0851 
     83 H83        20.5077  -23.2098  -45.4777 H         1 UNK         0.0851 
     84 H84        18.9218  -25.8589  -46.2960 H         1 UNK         0.2976 
     85 H85        18.7419  -27.5967  -39.4523 H         1 UNK         0.3116 
     86 H86        21.1991  -29.1062  -39.5876 H         1 UNK         0.0646 
     87 H87        19.5064  -29.4618  -37.8072 H         1 UNK         0.0847 
     88 H88        21.0567  -29.0181  -37.1200 H         1 UNK         0.0847 
     89 H89        19.7694  -27.8232  -37.2052 H         1 UNK         0.0847 
     90 H90        21.7013  -26.8905  -41.0568 H         1 UNK         0.3040 
     91 H91        23.3041  -24.9377  -39.5347 H         1 UNK         0.1015 
     92 H92        22.9026  -25.3724  -42.5474 H         1 UNK         0.0786 
     93 H93        23.7378  -24.0072  -41.8163 H         1 UNK         0.0786 
     94 H94        22.0159  -24.2246  -41.5465 H         1 UNK         0.0786 
     95 H95        23.7689  -28.0982  -40.6990 H         1 UNK         0.3172 
     96 H96        26.6232  -28.0660  -40.2035 H         1 UNK         0.0595 
     97 H97        25.4851  -28.9363  -42.9337 H         1 UNK         0.0839 
     98 H98        27.1414  -29.1923  -42.4036 H         1 UNK         0.0839 
     99 H99        26.5533  -27.5607  -42.6701 H         1 UNK         0.0839 
    100 H100       27.3859  -30.3927  -40.2774 H         1 UNK         0.2998 
    101 H101       25.7953  -32.0662  -38.6461 H         1 UNK         0.0822 
    102 H102       27.6085  -33.7417  -39.0743 H         1 UNK         0.0787 
    103 H103       28.2533  -32.7324  -40.3607 H         1 UNK         0.0787 
    104 H104       28.2790  -32.1651  -38.6901 H         1 UNK         0.0787 
    105 H105       24.3215  -33.5828  -39.0767 H         1 UNK         0.3055 
    106 H106       22.7107  -34.7289  -40.0793 H         1 UNK         0.1106 
    107 H107       23.2990  -36.2726  -41.9074 H         1 UNK         0.0828 
    108 H108       24.7477  -35.3536  -42.2832 H         1 UNK         0.0828 
    109 H109       24.6190  -36.2201  -40.7532 H         1 UNK         0.0828 
    110 H110       22.9969  -31.8585  -40.7307 H         1 UNK         0.2931 
    111 H111       21.9998  -30.2692  -41.8224 H         1 UNK         0.0412 
    112 H112       24.4499  -31.7941  -43.0426 H         1 UNK         0.3472 
    113 H113       24.5129  -31.0818  -44.6374 H         1 UNK         0.3472 
    114 H114       20.2621  -32.2557  -43.3558 H         1 UNK         0.0970 
    115 H115       19.9987  -30.5367  -43.2125 H         1 UNK         0.0970 
    116 H116       17.2564  -32.7297  -41.0912 H         1 UNK         0.0612 
    117 H117       18.1116  -33.1694  -42.5479 H         1 UNK         0.0612 
@<TRIPOS>BOND
     1    1    2 1    
     2    1   62 1    
     3    1   63 1    
     4    1   64 1    
     5    2    3 2    
     6    2    4 am   BACKBONE|DICT|INTERRES
     7    4    5 1    
     8    4   65 1    
     9    5    6 1    
    10    5   25 1    
    11    5   66 1    
    12    6    7 1    
    13    6   67 1    
    14    6   68 1    
    15    7    8 1    
    16    8    9 1    
    17    8   69 1    
    18    8   70 1    
    19    9   10 ar   
    20    9   14 ar   
    21   10   11 ar   
    22   10   71 1    
    23   11   12 ar   
    24   11   61 1    
    25   12   13 ar   
    26   12   72 1    
    27   13   14 ar   
    28   13   15 1    
    29   14   73 1    
    30   15   16 1    
    31   15   74 1    
    32   15   75 1    
    33   16   17 1    
    34   17   18 1    
    35   17   76 1    
    36   17   77 1    
    37   18   19 1    
    38   18   27 1    
    39   18   78 1    
    40   19   20 am   BACKBONE|DICT|INTERRES
    41   19   79 1    
    42   20   21 2    
    43   20   22 1    
    44   22   23 1    
    45   22   24 1    
    46   22   80 1    
    47   23   81 1    
    48   23   82 1    
    49   23   83 1    
    50   24   25 am   BACKBONE|DICT|INTERRES
    51   24   84 1    
    52   25   26 2    
    53   27   28 2    
    54   27   29 am   BACKBONE|DICT|INTERRES
    55   29   30 1    
    56   29   85 1    
    57   30   31 1    
    58   30   32 1    
    59   30   86 1    
    60   31   87 1    
    61   31   88 1    
    62   31   89 1    
    63   32   33 2    
    64   32   34 am   BACKBONE|DICT|INTERRES
    65   34   35 1    
    66   34   90 1    
    67   35   36 1    
    68   35   37 1    
    69   35   91 1    
    70   36   92 1    
    71   36   93 1    
    72   36   94 1    
    73   37   38 2    
    74   37   39 am   BACKBONE|DICT|INTERRES
    75   39   40 1    
    76   39   95 1    
    77   40   41 1    
    78   40   42 1    
    79   40   96 1    
    80   41   97 1    
    81   41   98 1    
    82   41   99 1    
    83   42   43 2    
    84   42   44 am   BACKBONE|DICT|INTERRES
    85   44   45 1    
    86   44  100 1    
    87   45   46 1    
    88   45   47 1    
    89   45  101 1    
    90   46  102 1    
    91   46  103 1    
    92   46  104 1    
    93   47   48 2    
    94   47   49 am   BACKBONE|DICT|INTERRES
    95   49   50 1    
    96   49  105 1    
    97   50   51 1    
    98   50   52 1    
    99   50  106 1    
   100   51  107 1    
   101   51  108 1    
   102   51  109 1    
   103   52   53 2    
   104   52   54 am   BACKBONE|DICT|INTERRES
   105   54   55 1    
   106   54  110 1    
   107   55   56 1    
   108   55   59 1    
   109   55  111 1    
   110   56   57 am   BACKBONE|DICT|INTERRES
   111   56   58 2    
   112   57  112 1    
   113   57  113 1    
   114   59   60 1    
   115   59  114 1    
   116   59  115 1    
   117   60   61 1    
   118   61  116 1    
   119   61  117 1    
@<TRIPOS>SUBSTRUCTURE
     1 UNK         1 GROUP             0       ****    0 ROOT    
