@<TRIPOS>MOLECULE
3R8
117   119    1
SMALL
USER_CHARGES


@<TRIPOS>ATOM
      1 CA         21.1017  -24.2766  -48.5161 C.3       0 UNK        -0.2013 
      2 C          20.9659  -25.5028  -47.6268 C.2       0 UNK         0.4866 
      3 O          21.9730  -26.0490  -47.1751 O.2       0 UNK        -0.5176 
      4 N          19.7282  -25.9358  -47.3519 N.am      1 UNK        -0.4884 
      5 CA         19.3925  -27.1020  -46.5219 C.3       1 UNK         0.0853 
      6 C6         18.0273  -27.7157  -46.9532 C.3       10 UNK        -0.0849 
      7 S7         18.0672  -29.5387  -46.9871 S.3       10 UNK        -0.2776 
      8 C8         16.3705  -29.9835  -46.4989 C.3       10 UNK         0.0316 
      9 C9         16.3395  -30.5992  -45.1090 C.ar      10 UNK        -0.0863 
     10 C10        16.5732  -31.9690  -44.9486 C.ar      10 UNK        -0.1009 
     11 C11        16.5438  -32.5511  -43.6783 C.ar      10 UNK        -0.0712 
     12 C12        16.2676  -31.7541  -42.5648 C.ar      10 UNK        -0.0894 
     13 C13        16.0404  -30.3826  -42.7108 C.ar      10 UNK        -0.0745 
     14 C14        16.0736  -29.8091  -43.9863 C.ar      10 UNK        -0.0972 
     15 C15        15.7919  -29.5225  -41.4794 C.3       10 UNK         0.0209 
     16 S16        17.1760  -28.3906  -41.1250 S.3       10 UNK        -0.2568 
     17 C17        18.6287  -29.4954  -41.2570 C.3       10 UNK        -0.0983 
     18 CA         19.9816  -28.7652  -41.0843 C.3       3 UNK         0.0876 
     19 N          20.0779  -27.5997  -41.9708 N.am      3 UNK        -0.4424 
     20 C          21.1525  -26.8456  -42.2211 C.2       2 UNK         0.4918 
     21 O          22.2417  -26.9926  -41.6638 O.2       2 UNK        -0.4875 
     22 CA         20.9468  -25.7260  -43.2586 C.3       2 UNK         0.0481 
     23 CB         22.1487  -24.7702  -43.3522 C.3       2 UNK        -0.1831 
     24 N          20.6530  -26.2492  -44.5946 N.am      2 UNK        -0.4498 
     25 C          19.4844  -26.7534  -45.0156 C.2       1 UNK         0.5027 
     26 O          18.5079  -26.8901  -44.2762 O.2       1 UNK        -0.4969 
     27 C          20.3192  -28.5133  -39.5985 C.2       3 UNK         0.5005 
     28 O          20.4876  -29.4807  -38.8533 O.2       3 UNK        -0.5279 
     29 N          20.4806  -27.2480  -39.1857 N.am      4 UNK        -0.4463 
     30 CA         21.0008  -26.8263  -37.8802 C.3       4 UNK         0.0283 
     31 CB         20.6102  -25.3556  -37.6434 C.3       4 UNK        -0.1875 
     32 C          22.5240  -27.0640  -37.7507 C.2       4 UNK         0.4949 
     33 O          23.2684  -26.1410  -37.4198 O.2       4 UNK        -0.5039 
     34 N          22.9533  -28.3002  -38.0415 N.am      5 UNK        -0.4663 
     35 CA         24.3142  -28.8538  -37.9976 C.3       5 UNK         0.0242 
     36 CB         24.8549  -28.8343  -36.5521 C.3       5 UNK        -0.1982 
     37 C          25.3261  -28.2413  -38.9899 C.2       5 UNK         0.5017 
     38 O          26.4965  -28.6246  -38.9449 O.2       5 UNK        -0.5012 
     39 N          24.8927  -27.3220  -39.8626 N.am      6 UNK        -0.4439 
     40 CA         25.7605  -26.6204  -40.8108 C.3       6 UNK         0.0297 
     41 CB         25.2384  -25.1911  -41.0199 C.3       6 UNK        -0.2006 
     42 C          25.8941  -27.3588  -42.1515 C.2       6 UNK         0.4892 
     43 O          26.9800  -27.3458  -42.7332 O.2       6 UNK        -0.5089 
     44 N          24.8079  -27.9825  -42.6217 N.am      7 UNK        -0.4243 
     45 CA         24.7317  -28.7068  -43.8885 C.3       7 UNK         0.0196 
     46 CB         24.5240  -27.7060  -45.0445 C.3       7 UNK        -0.2007 
     47 C          23.5912  -29.7316  -43.8332 C.2       7 UNK         0.5020 
     48 O          22.8616  -29.7932  -42.8408 O.2       7 UNK        -0.5147 
     49 N          23.4459  -30.5034  -44.9197 N.am      8 UNK        -0.4734 
     50 CA         22.3741  -31.4744  -45.1719 C.3       8 UNK         0.0238 
     51 CB         21.0561  -30.7275  -45.4835 C.3       8 UNK        -0.1912 
     52 C          22.2573  -32.5205  -44.0456 C.2       8 UNK         0.5038 
     53 O          23.2314  -33.2293  -43.7850 O.2       8 UNK        -0.5046 
     54 N          21.0864  -32.5902  -43.4035 N.am      9 UNK        -0.4200 
     55 CA         20.7913  -33.4661  -42.2616 C.3       9 UNK         0.0839 
     56 C          21.3925  -32.9837  -40.9075 C.2       9 UNK         0.5513 
     57 N          22.0817  -31.8507  -40.8351 N.am      9 UNK        -0.7519 
     58 O          21.2354  -33.6623  -39.8960 O.2       9 UNK        -0.4960 
     59 C59        19.2686  -33.7408  -42.1400 C.3       10 UNK        -0.0876 
     60 S60        18.5651  -34.4616  -43.6652 S.3       10 UNK        -0.2414 
     61 C61        16.8003  -34.0420  -43.5093 C.3       10 UNK         0.0169 
     62 H62        20.1327  -23.8980  -48.8409 H         1 UNK         0.0903 
     63 H63        21.6153  -23.4795  -47.9792 H         1 UNK         0.0903 
     64 H64        21.6852  -24.5207  -49.4034 H         1 UNK         0.0903 
     65 H65        18.9384  -25.4209  -47.7161 H         1 UNK         0.3096 
     66 H66        20.1680  -27.8502  -46.7014 H         1 UNK         0.1121 
     67 H67        17.1976  -27.3554  -46.3427 H         1 UNK         0.0849 
     68 H68        17.7786  -27.4102  -47.9709 H         1 UNK         0.0849 
     69 H69        15.7088  -29.1177  -46.5505 H         1 UNK         0.0865 
     70 H70        15.9768  -30.6985  -47.2230 H         1 UNK         0.0865 
     71 H71        16.7872  -32.5833  -45.8128 H         1 UNK         0.1346 
     72 H72        16.2462  -32.2001  -41.5798 H         1 UNK         0.1412 
     73 H73        15.9124  -28.7453  -44.0996 H         1 UNK         0.1426 
     74 H74        15.6176  -30.1460  -40.6012 H         1 UNK         0.0716 
     75 H75        14.8829  -28.9371  -41.6239 H         1 UNK         0.0716 
     76 H76        18.6216  -29.9516  -42.2477 H         1 UNK         0.0695 
     77 H77        18.5228  -30.3218  -40.5512 H         1 UNK         0.0695 
     78 H78        20.7541  -29.4550  -41.4234 H         1 UNK         0.0983 
     79 H79        19.2397  -27.3983  -42.5090 H         1 UNK         0.3095 
     80 H80        20.0889  -25.1357  -42.9299 H         1 UNK         0.0454 
     81 H81        22.3195  -24.2725  -42.3974 H         1 UNK         0.0851 
     82 H82        21.9786  -23.9883  -44.0924 H         1 UNK         0.0851 
     83 H83        23.0670  -25.2922  -43.6222 H         1 UNK         0.0851 
     84 H84        21.3893  -26.1675  -45.2897 H         1 UNK         0.2976 
     85 H85        20.3592  -26.5216  -39.8758 H         1 UNK         0.3116 
     86 H86        20.5174  -27.4267  -37.1066 H         1 UNK         0.0646 
     87 H87        19.5300  -25.2178  -37.6930 H         1 UNK         0.0847 
     88 H88        21.0687  -24.6924  -38.3781 H         1 UNK         0.0847 
     89 H89        20.9311  -25.0198  -36.6564 H         1 UNK         0.0847 
     90 H90        22.2262  -28.9582  -38.3153 H         1 UNK         0.3040 
     91 H91        24.2156  -29.8990  -38.2949 H         1 UNK         0.1015 
     92 H92        25.8004  -29.3729  -36.4773 H         1 UNK         0.0786 
     93 H93        24.1593  -29.3112  -35.8615 H         1 UNK         0.0786 
     94 H94        25.0334  -27.8176  -36.2005 H         1 UNK         0.0786 
     95 H95        23.9100  -27.0827  -39.8707 H         1 UNK         0.3172 
     96 H96        26.7632  -26.5356  -40.3856 H         1 UNK         0.0595 
     97 H97        25.8486  -24.6513  -41.7453 H         1 UNK         0.0839 
     98 H98        25.2603  -24.6233  -40.0896 H         1 UNK         0.0839 
     99 H99        24.2140  -25.1882  -41.3860 H         1 UNK         0.0839 
    100 H100       23.9366  -27.9525  -42.0972 H         1 UNK         0.2998 
    101 H101       25.6636  -29.2554  -44.0402 H         1 UNK         0.0822 
    102 H102       24.5586  -28.2022  -46.0147 H         1 UNK         0.0787 
    103 H103       25.2960  -26.9366  -45.0551 H         1 UNK         0.0787 
    104 H104       23.5572  -27.2078  -44.9718 H         1 UNK         0.0787 
    105 H105       24.1265  -30.4101  -45.6610 H         1 UNK         0.3055 
    106 H106       22.6567  -32.0319  -46.0665 H         1 UNK         0.1106 
    107 H107       21.1813  -30.0703  -46.3436 H         1 UNK         0.0828 
    108 H108       20.2533  -31.4221  -45.7363 H         1 UNK         0.0828 
    109 H109       20.7172  -30.1118  -44.6489 H         1 UNK         0.0828 
    110 H110       20.3447  -31.9679  -43.6851 H         1 UNK         0.2931 
    111 H111       21.2709  -34.4262  -42.4619 H         1 UNK         0.0412 
    112 H112       22.2609  -31.2819  -41.6561 H         1 UNK         0.3472 
    113 H113       22.4474  -31.5676  -39.9414 H         1 UNK         0.3472 
    114 H114       18.7463  -32.8162  -41.8934 H         1 UNK         0.0970 
    115 H115       19.0652  -34.4340  -41.3215 H         1 UNK         0.0970 
    116 H116       16.4300  -34.3950  -42.5454 H         1 UNK         0.0612 
    117 H117       16.2421  -34.5903  -44.2695 H         1 UNK         0.0612 
@<TRIPOS>BOND
     1    1    2 1    
     2    1   62 1    
     3    1   63 1    
     4    1   64 1    
     5    2    3 2    
     6    2    4 am   BACKBONE|DICT|INTERRES
     7    4    5 1    
     8    4   65 1    
     9    5    6 1    
    10    5   25 1    
    11    5   66 1    
    12    6    7 1    
    13    6   67 1    
    14    6   68 1    
    15    7    8 1    
    16    8    9 1    
    17    8   69 1    
    18    8   70 1    
    19    9   10 ar   
    20    9   14 ar   
    21   10   11 ar   
    22   10   71 1    
    23   11   12 ar   
    24   11   61 1    
    25   12   13 ar   
    26   12   72 1    
    27   13   14 ar   
    28   13   15 1    
    29   14   73 1    
    30   15   16 1    
    31   15   74 1    
    32   15   75 1    
    33   16   17 1    
    34   17   18 1    
    35   17   76 1    
    36   17   77 1    
    37   18   19 1    
    38   18   27 1    
    39   18   78 1    
    40   19   20 am   BACKBONE|DICT|INTERRES
    41   19   79 1    
    42   20   21 2    
    43   20   22 1    
    44   22   23 1    
    45   22   24 1    
    46   22   80 1    
    47   23   81 1    
    48   23   82 1    
    49   23   83 1    
    50   24   25 am   BACKBONE|DICT|INTERRES
    51   24   84 1    
    52   25   26 2    
    53   27   28 2    
    54   27   29 am   BACKBONE|DICT|INTERRES
    55   29   30 1    
    56   29   85 1    
    57   30   31 1    
    58   30   32 1    
    59   30   86 1    
    60   31   87 1    
    61   31   88 1    
    62   31   89 1    
    63   32   33 2    
    64   32   34 am   BACKBONE|DICT|INTERRES
    65   34   35 1    
    66   34   90 1    
    67   35   36 1    
    68   35   37 1    
    69   35   91 1    
    70   36   92 1    
    71   36   93 1    
    72   36   94 1    
    73   37   38 2    
    74   37   39 am   BACKBONE|DICT|INTERRES
    75   39   40 1    
    76   39   95 1    
    77   40   41 1    
    78   40   42 1    
    79   40   96 1    
    80   41   97 1    
    81   41   98 1    
    82   41   99 1    
    83   42   43 2    
    84   42   44 am   BACKBONE|DICT|INTERRES
    85   44   45 1    
    86   44  100 1    
    87   45   46 1    
    88   45   47 1    
    89   45  101 1    
    90   46  102 1    
    91   46  103 1    
    92   46  104 1    
    93   47   48 2    
    94   47   49 am   BACKBONE|DICT|INTERRES
    95   49   50 1    
    96   49  105 1    
    97   50   51 1    
    98   50   52 1    
    99   50  106 1    
   100   51  107 1    
   101   51  108 1    
   102   51  109 1    
   103   52   53 2    
   104   52   54 am   BACKBONE|DICT|INTERRES
   105   54   55 1    
   106   54  110 1    
   107   55   56 1    
   108   55   59 1    
   109   55  111 1    
   110   56   57 am   BACKBONE|DICT|INTERRES
   111   56   58 2    
   112   57  112 1    
   113   57  113 1    
   114   59   60 1    
   115   59  114 1    
   116   59  115 1    
   117   60   61 1    
   118   61  116 1    
   119   61  117 1    
@<TRIPOS>SUBSTRUCTURE
     1 UNK         1 GROUP             0       ****    0 ROOT    
