@<TRIPOS>MOLECULE
3R8
117   119    1
SMALL
USER_CHARGES


@<TRIPOS>ATOM
      1 CA         16.3636  -24.9484  -48.9832 C.3       0 UNK        -0.2013 
      2 C          17.6297  -25.4638  -48.3151 C.2       0 UNK         0.4866 
      3 O          18.7175  -24.9564  -48.5903 O.2       0 UNK        -0.5176 
      4 N          17.4993  -26.4728  -47.4443 N.am      1 UNK        -0.4884 
      5 CA         18.5976  -27.0451  -46.6593 C.3       1 UNK         0.0853 
      6 C6         18.2090  -28.4363  -46.0898 C.3       10 UNK        -0.0849 
      7 S7         19.6219  -29.5796  -45.9102 S.3       10 UNK        -0.2776 
      8 C8         20.2915  -29.2168  -44.2543 C.3       10 UNK         0.0316 
      9 C9         19.4227  -29.7222  -43.1113 C.ar      10 UNK        -0.0863 
     10 C10        19.7355  -30.9291  -42.4815 C.ar      10 UNK        -0.1009 
     11 C11        19.0277  -31.3497  -41.3532 C.ar      10 UNK        -0.0712 
     12 C12        17.9755  -30.5681  -40.8692 C.ar      10 UNK        -0.0894 
     13 C13        17.6461  -29.3610  -41.4938 C.ar      10 UNK        -0.0745 
     14 C14        18.3721  -28.9450  -42.6136 C.ar      10 UNK        -0.0972 
     15 C15        16.5226  -28.4969  -40.9401 C.3       10 UNK         0.0209 
     16 S16        17.1376  -27.3041  -39.7063 S.3       10 UNK        -0.2568 
     17 C17        17.7827  -25.9561  -40.7550 C.3       10 UNK        -0.0983 
     18 CA         19.3087  -26.0529  -41.0173 C.3       3 UNK         0.0876 
     19 N          19.6459  -25.4834  -42.3308 N.am      3 UNK        -0.4424 
     20 C          20.8237  -25.5882  -42.9561 C.2       2 UNK         0.4918 
     21 O          21.8007  -26.1594  -42.4698 O.2       2 UNK        -0.4875 
     22 CA         20.9142  -24.9634  -44.3613 C.3       2 UNK         0.0481 
     23 CB         22.3708  -24.6543  -44.7529 C.3       2 UNK        -0.1831 
     24 N          20.3196  -25.8286  -45.3846 N.am      2 UNK        -0.4498 
     25 C          19.0086  -26.0608  -45.5427 C.2       1 UNK         0.5027 
     26 O          18.1349  -25.5459  -44.8389 O.2       1 UNK        -0.4969 
     27 C          20.1492  -25.4885  -39.8476 C.2       3 UNK         0.5005 
     28 O          20.2701  -26.1485  -38.8153 O.2       3 UNK        -0.5279 
     29 N          20.7563  -24.3064  -40.0371 N.am      4 UNK        -0.4463 
     30 CA         21.7443  -23.7228  -39.1244 C.3       4 UNK         0.0283 
     31 CB         22.0453  -22.2777  -39.5530 C.3       4 UNK        -0.1875 
     32 C          23.0475  -24.5425  -39.0411 C.2       4 UNK         0.4949 
     33 O          23.6653  -24.5793  -37.9768 O.2       4 UNK        -0.5039 
     34 N          23.4335  -25.1860  -40.1522 N.am      5 UNK        -0.4663 
     35 CA         24.5639  -26.1143  -40.2240 C.3       5 UNK         0.0242 
     36 CB         25.2632  -25.9637  -41.5861 C.3       5 UNK        -0.1982 
     37 C          24.1020  -27.5644  -40.0145 C.2       5 UNK         0.5017 
     38 O          24.7834  -28.3198  -39.3219 O.2       5 UNK        -0.5012 
     39 N          22.9618  -27.9185  -40.6292 N.am      6 UNK        -0.4439 
     40 CA         22.3050  -29.2329  -40.6328 C.3       6 UNK         0.0297 
     41 CB         21.8350  -29.6253  -39.2175 C.3       6 UNK        -0.2006 
     42 C          23.1301  -30.3439  -41.3182 C.2       6 UNK         0.4892 
     43 O          22.9126  -31.5291  -41.0560 O.2       6 UNK        -0.5089 
     44 N          24.0567  -29.9487  -42.2004 N.am      7 UNK        -0.4243 
     45 CA         25.0113  -30.8183  -42.8864 C.3       7 UNK         0.0196 
     46 CB         26.2321  -29.9724  -43.2964 C.3       7 UNK        -0.2007 
     47 C          24.3752  -31.5590  -44.0776 C.2       7 UNK         0.5020 
     48 O          24.7497  -31.3130  -45.2255 O.2       7 UNK        -0.5147 
     49 N          23.4270  -32.4564  -43.7865 N.am      8 UNK        -0.4734 
     50 CA         22.8046  -33.3465  -44.7722 C.3       8 UNK         0.0238 
     51 CB         21.7029  -32.6182  -45.5648 C.3       8 UNK        -0.1912 
     52 C          22.2619  -34.6376  -44.1462 C.2       8 UNK         0.5038 
     53 O          22.3322  -35.6816  -44.7964 O.2       8 UNK        -0.5046 
     54 N          21.7214  -34.5590  -42.9216 N.am      9 UNK        -0.4200 
     55 CA         21.1446  -35.7090  -42.2046 C.3       9 UNK         0.0839 
     56 C          22.2231  -36.7257  -41.7407 C.2       9 UNK         0.5513 
     57 N          21.8833  -38.0061  -41.6844 N.am      9 UNK        -0.7519 
     58 O          23.3445  -36.3610  -41.3926 O.2       9 UNK        -0.4960 
     59 C59        20.2525  -35.2744  -41.0122 C.3       10 UNK        -0.0876 
     60 S60        18.9327  -34.1123  -41.5089 S.3       10 UNK        -0.2414 
     61 C61        19.4555  -32.6126  -40.6254 C.3       10 UNK         0.0169 
     62 H62        15.4785  -25.4947  -48.6577 H         1 UNK         0.0903 
     63 H63        16.2175  -23.8947  -48.7469 H         1 UNK         0.0903 
     64 H64        16.4436  -25.0471  -50.0655 H         1 UNK         0.0903 
     65 H65        16.5766  -26.8243  -47.2302 H         1 UNK         0.3096 
     66 H66        19.4420  -27.1734  -47.3409 H         1 UNK         0.1121 
     67 H67        17.6309  -28.3636  -45.1703 H         1 UNK         0.0849 
     68 H68        17.5381  -28.9352  -46.7913 H         1 UNK         0.0849 
     69 H69        21.2815  -29.6715  -44.1879 H         1 UNK         0.0865 
     70 H70        20.4629  -28.1515  -44.1389 H         1 UNK         0.0865 
     71 H71        20.5657  -31.5224  -42.8346 H         1 UNK         0.1346 
     72 H72        17.4307  -30.8839  -39.9900 H         1 UNK         0.1412 
     73 H73        18.1418  -27.9918  -43.0671 H         1 UNK         0.1426 
     74 H74        15.7735  -29.1318  -40.4645 H         1 UNK         0.0716 
     75 H75        16.0040  -27.9763  -41.7466 H         1 UNK         0.0716 
     76 H76        17.5239  -24.9998  -40.2962 H         1 UNK         0.0695 
     77 H77        17.2312  -25.9782  -41.6963 H         1 UNK         0.0695 
     78 H78        19.5823  -27.1077  -41.0726 H         1 UNK         0.0983 
     79 H79        18.8841  -25.0581  -42.8460 H         1 UNK         0.3095 
     80 H80        20.3675  -24.0183  -44.3444 H         1 UNK         0.0454 
     81 H81        22.8470  -24.0108  -44.0118 H         1 UNK         0.0851 
     82 H82        22.9733  -25.5603  -44.8301 H         1 UNK         0.0851 
     83 H83        22.4226  -24.1351  -45.7100 H         1 UNK         0.0851 
     84 H84        20.9700  -26.2971  -45.9994 H         1 UNK         0.2976 
     85 H85        20.5828  -23.8142  -40.9013 H         1 UNK         0.3116 
     86 H86        21.3047  -23.6981  -38.1248 H         1 UNK         0.0646 
     87 H87        22.7601  -21.8117  -38.8731 H         1 UNK         0.0847 
     88 H88        21.1449  -21.6634  -39.5425 H         1 UNK         0.0847 
     89 H89        22.4736  -22.2320  -40.5551 H         1 UNK         0.0847 
     90 H90        22.8462  -25.1275  -40.9746 H         1 UNK         0.3040 
     91 H91        25.2907  -25.8789  -39.4428 H         1 UNK         0.1015 
     92 H92        25.6536  -24.9545  -41.7181 H         1 UNK         0.0786 
     93 H93        24.5898  -26.1711  -42.4187 H         1 UNK         0.0786 
     94 H94        26.1074  -26.6499  -41.6694 H         1 UNK         0.0786 
     95 H95        22.5184  -27.2201  -41.2238 H         1 UNK         0.3172 
     96 H96        21.4128  -29.0994  -41.2418 H         1 UNK         0.0595 
     97 H97        21.2383  -28.8328  -38.7656 H         1 UNK         0.0839 
     98 H98        22.6746  -29.8358  -38.5549 H         1 UNK         0.0839 
     99 H99        21.2116  -30.5191  -39.2456 H         1 UNK         0.0839 
    100 H100       24.1380  -28.9602  -42.3850 H         1 UNK         0.2998 
    101 H101       25.3595  -31.5779  -42.1827 H         1 UNK         0.0822 
    102 H102       25.9590  -29.1749  -43.9888 H         1 UNK         0.0787 
    103 H103       26.9867  -30.5879  -43.7881 H         1 UNK         0.0787 
    104 H104       26.7063  -29.5144  -42.4280 H         1 UNK         0.0787 
    105 H105       23.1931  -32.5854  -42.8077 H         1 UNK         0.3055 
    106 H106       23.5782  -33.6550  -45.4800 H         1 UNK         0.1106 
    107 H107       20.8676  -32.3260  -44.9305 H         1 UNK         0.0828 
    108 H108       22.0830  -31.7214  -46.0540 H         1 UNK         0.0828 
    109 H109       21.2996  -33.2624  -46.3471 H         1 UNK         0.0828 
    110 H110       21.6833  -33.6755  -42.4395 H         1 UNK         0.2931 
    111 H111       20.4966  -36.2261  -42.9160 H         1 UNK         0.0412 
    112 H112       22.5639  -38.6810  -41.3709 H         1 UNK         0.3472 
    113 H113       20.9635  -38.3147  -41.9604 H         1 UNK         0.3472 
    114 H114       20.8599  -34.8420  -40.2148 H         1 UNK         0.0970 
    115 H115       19.7679  -36.1473  -40.5706 H         1 UNK         0.0970 
    116 H116       20.5403  -32.5992  -40.5212 H         1 UNK         0.0612 
    117 H117       19.0518  -32.6360  -39.6121 H         1 UNK         0.0612 
@<TRIPOS>BOND
     1    1    2 1    
     2    1   62 1    
     3    1   63 1    
     4    1   64 1    
     5    2    3 2    
     6    2    4 am   BACKBONE|DICT|INTERRES
     7    4    5 1    
     8    4   65 1    
     9    5    6 1    
    10    5   25 1    
    11    5   66 1    
    12    6    7 1    
    13    6   67 1    
    14    6   68 1    
    15    7    8 1    
    16    8    9 1    
    17    8   69 1    
    18    8   70 1    
    19    9   10 ar   
    20    9   14 ar   
    21   10   11 ar   
    22   10   71 1    
    23   11   12 ar   
    24   11   61 1    
    25   12   13 ar   
    26   12   72 1    
    27   13   14 ar   
    28   13   15 1    
    29   14   73 1    
    30   15   16 1    
    31   15   74 1    
    32   15   75 1    
    33   16   17 1    
    34   17   18 1    
    35   17   76 1    
    36   17   77 1    
    37   18   19 1    
    38   18   27 1    
    39   18   78 1    
    40   19   20 am   BACKBONE|DICT|INTERRES
    41   19   79 1    
    42   20   21 2    
    43   20   22 1    
    44   22   23 1    
    45   22   24 1    
    46   22   80 1    
    47   23   81 1    
    48   23   82 1    
    49   23   83 1    
    50   24   25 am   BACKBONE|DICT|INTERRES
    51   24   84 1    
    52   25   26 2    
    53   27   28 2    
    54   27   29 am   BACKBONE|DICT|INTERRES
    55   29   30 1    
    56   29   85 1    
    57   30   31 1    
    58   30   32 1    
    59   30   86 1    
    60   31   87 1    
    61   31   88 1    
    62   31   89 1    
    63   32   33 2    
    64   32   34 am   BACKBONE|DICT|INTERRES
    65   34   35 1    
    66   34   90 1    
    67   35   36 1    
    68   35   37 1    
    69   35   91 1    
    70   36   92 1    
    71   36   93 1    
    72   36   94 1    
    73   37   38 2    
    74   37   39 am   BACKBONE|DICT|INTERRES
    75   39   40 1    
    76   39   95 1    
    77   40   41 1    
    78   40   42 1    
    79   40   96 1    
    80   41   97 1    
    81   41   98 1    
    82   41   99 1    
    83   42   43 2    
    84   42   44 am   BACKBONE|DICT|INTERRES
    85   44   45 1    
    86   44  100 1    
    87   45   46 1    
    88   45   47 1    
    89   45  101 1    
    90   46  102 1    
    91   46  103 1    
    92   46  104 1    
    93   47   48 2    
    94   47   49 am   BACKBONE|DICT|INTERRES
    95   49   50 1    
    96   49  105 1    
    97   50   51 1    
    98   50   52 1    
    99   50  106 1    
   100   51  107 1    
   101   51  108 1    
   102   51  109 1    
   103   52   53 2    
   104   52   54 am   BACKBONE|DICT|INTERRES
   105   54   55 1    
   106   54  110 1    
   107   55   56 1    
   108   55   59 1    
   109   55  111 1    
   110   56   57 am   BACKBONE|DICT|INTERRES
   111   56   58 2    
   112   57  112 1    
   113   57  113 1    
   114   59   60 1    
   115   59  114 1    
   116   59  115 1    
   117   60   61 1    
   118   61  116 1    
   119   61  117 1    
@<TRIPOS>SUBSTRUCTURE
     1 UNK         1 GROUP             0       ****    0 ROOT    
