@<TRIPOS>MOLECULE
3R8
117   119    1
SMALL
USER_CHARGES


@<TRIPOS>ATOM
      1 CA         20.5100  -28.3302  -48.7740 C.3       0 UNK        -0.2013 
      2 C          20.0005  -28.2206  -47.3455 C.2       0 UNK         0.4866 
      3 O          20.5676  -28.8348  -46.4422 O.2       0 UNK        -0.5176 
      4 N          18.9464  -27.4257  -47.1232 N.am      1 UNK        -0.4884 
      5 CA         18.2659  -27.2331  -45.8327 C.3       1 UNK         0.0853 
      6 C6         16.7880  -26.7949  -46.0261 C.3       10 UNK        -0.0849 
      7 S7         15.8361  -27.9701  -47.0527 S.3       10 UNK        -0.2776 
      8 C8         14.9237  -28.9273  -45.7970 C.3       10 UNK         0.0316 
      9 C9         15.8547  -29.5971  -44.7953 C.ar      10 UNK        -0.0863 
     10 C10        16.7191  -30.6165  -45.2069 C.ar      10 UNK        -0.1009 
     11 C11        17.6021  -31.2113  -44.3000 C.ar      10 UNK        -0.0712 
     12 C12        17.5918  -30.7953  -42.9647 C.ar      10 UNK        -0.0894 
     13 C13        16.7262  -29.7839  -42.5380 C.ar      10 UNK        -0.0745 
     14 C14        15.8623  -29.1862  -43.4591 C.ar      10 UNK        -0.0972 
     15 C15        16.7080  -29.3437  -41.0807 C.3       10 UNK         0.0209 
     16 S16        17.8067  -27.9232  -40.7826 S.3       10 UNK        -0.2568 
     17 C17        19.4265  -28.7555  -40.6519 C.3       10 UNK        -0.0983 
     18 CA         20.6384  -27.8094  -40.8156 C.3       3 UNK         0.0876 
     19 N          20.5729  -27.0501  -42.0714 N.am      3 UNK        -0.4424 
     20 C          21.5620  -26.3254  -42.6100 C.2       2 UNK         0.4918 
     21 O          22.6456  -26.1477  -42.0528 O.2       2 UNK        -0.4875 
     22 CA         21.3037  -25.6929  -43.9897 C.3       2 UNK         0.0481 
     23 CB         22.6077  -25.5104  -44.7882 C.3       2 UNK        -0.1831 
     24 N          20.3643  -26.4830  -44.7897 N.am      2 UNK        -0.4498 
     25 C          19.0450  -26.2804  -44.8932 C.2       1 UNK         0.5027 
     26 O          18.4537  -25.3887  -44.2827 O.2       1 UNK        -0.4969 
     27 C          20.9000  -26.9616  -39.5516 C.2       3 UNK         0.5005 
     28 O          21.3486  -27.5067  -38.5418 O.2       3 UNK        -0.5279 
     29 N          20.6546  -25.6466  -39.6300 N.am      4 UNK        -0.4463 
     30 CA         21.0147  -24.6719  -38.5991 C.3       4 UNK         0.0283 
     31 CB         20.2395  -23.3685  -38.8517 C.3       4 UNK        -0.1875 
     32 C          22.5290  -24.3878  -38.5268 C.2       4 UNK         0.4949 
     33 O          22.9879  -23.8993  -37.4938 O.2       4 UNK        -0.5039 
     34 N          23.2689  -24.6681  -39.6099 N.am      5 UNK        -0.4663 
     35 CA         24.7015  -24.3938  -39.7388 C.3       5 UNK         0.0242 
     36 CB         24.9290  -23.4731  -40.9503 C.3       5 UNK        -0.1982 
     37 C          25.5290  -25.6791  -39.8839 C.2       5 UNK         0.5017 
     38 O          26.5702  -25.7938  -39.2359 O.2       5 UNK        -0.5012 
     39 N          25.0765  -26.6093  -40.7336 N.am      6 UNK        -0.4439 
     40 CA         25.7730  -27.8474  -41.0768 C.3       6 UNK         0.0297 
     41 CB         26.9271  -27.5557  -42.0641 C.3       6 UNK        -0.2006 
     42 C          24.7425  -28.8675  -41.5840 C.2       6 UNK         0.4892 
     43 O          23.8541  -29.2397  -40.8182 O.2       6 UNK        -0.5089 
     44 N          24.8798  -29.3103  -42.8432 N.am      7 UNK        -0.4243 
     45 CA         24.0398  -30.2472  -43.6090 C.3       7 UNK         0.0196 
     46 CB         22.6105  -29.7034  -43.7967 C.3       7 UNK        -0.2007 
     47 C          23.9954  -31.6922  -43.0806 C.2       7 UNK         0.5020 
     48 O          24.0829  -32.6211  -43.8841 O.2       7 UNK        -0.5147 
     49 N          23.8250  -31.8628  -41.7632 N.am      8 UNK        -0.4734 
     50 CA         23.6550  -33.1044  -40.9897 C.3       8 UNK         0.0238 
     51 CB         24.8796  -34.0307  -41.1222 C.3       8 UNK        -0.1912 
     52 C          22.3463  -33.8640  -41.2830 C.2       8 UNK         0.5038 
     53 O          21.6651  -34.2677  -40.3396 O.2       8 UNK        -0.5046 
     54 N          22.0065  -34.0140  -42.5682 N.am      9 UNK        -0.4200 
     55 CA         20.8107  -34.6838  -43.0965 C.3       9 UNK         0.0839 
     56 C          20.7854  -36.2212  -42.8368 C.2       9 UNK         0.5513 
     57 N          19.6503  -36.8752  -43.0421 N.am      9 UNK        -0.7519 
     58 O          21.7932  -36.8392  -42.4979 O.2       9 UNK        -0.4960 
     59 C59        19.5019  -33.9399  -42.6892 C.3       10 UNK        -0.0876 
     60 S60        18.2706  -33.9071  -44.0382 S.3       10 UNK        -0.2414 
     61 C61        18.5861  -32.2721  -44.7792 C.3       10 UNK         0.0169 
     62 H62        20.4736  -29.3678  -49.1048 H         1 UNK         0.0903 
     63 H63        19.9169  -27.7324  -49.4659 H         1 UNK         0.0903 
     64 H64        21.5438  -27.9904  -48.8303 H         1 UNK         0.0903 
     65 H65        18.5307  -26.9332  -47.9013 H         1 UNK         0.3096 
     66 H66        18.2542  -28.1959  -45.3179 H         1 UNK         0.1121 
     67 H67        16.7427  -25.8145  -46.5038 H         1 UNK         0.0849 
     68 H68        16.2867  -26.6816  -45.0629 H         1 UNK         0.0849 
     69 H69        14.2146  -28.2690  -45.2924 H         1 UNK         0.0865 
     70 H70        14.3268  -29.6909  -46.2975 H         1 UNK         0.0865 
     71 H71        16.7206  -30.9248  -46.2437 H         1 UNK         0.1346 
     72 H72        18.2572  -31.2582  -42.2526 H         1 UNK         0.1412 
     73 H73        15.1976  -28.3978  -43.1322 H         1 UNK         0.1426 
     74 H74        15.6924  -29.0642  -40.7963 H         1 UNK         0.0716 
     75 H75        16.9871  -30.1704  -40.4253 H         1 UNK         0.0716 
     76 H76        19.4731  -29.2940  -39.7032 H         1 UNK         0.0695 
     77 H77        19.4892  -29.5196  -41.4250 H         1 UNK         0.0695 
     78 H78        21.5144  -28.4494  -40.8993 H         1 UNK         0.0983 
     79 H79        19.6975  -27.1109  -42.5705 H         1 UNK         0.3095 
     80 H80        20.8862  -24.7006  -43.8091 H         1 UNK         0.0454 
     81 H81        22.4165  -25.0538  -45.7592 H         1 UNK         0.0851 
     82 H82        23.3050  -24.8582  -44.2606 H         1 UNK         0.0851 
     83 H83        23.1163  -26.4595  -44.9592 H         1 UNK         0.0851 
     84 H84        20.7449  -27.2761  -45.3002 H         1 UNK         0.2976 
     85 H85        20.2598  -25.2866  -40.4868 H         1 UNK         0.3116 
     86 H86        20.7076  -25.0680  -37.6287 H         1 UNK         0.0646 
     87 H87        20.5008  -22.9213  -39.8117 H         1 UNK         0.0847 
     88 H88        19.1626  -23.5372  -38.8398 H         1 UNK         0.0847 
     89 H89        20.4575  -22.6295  -38.0793 H         1 UNK         0.0847 
     90 H90        22.8227  -25.1097  -40.4069 H         1 UNK         0.3040 
     91 H91        25.0719  -23.8740  -38.8521 H         1 UNK         0.1015 
     92 H92        24.5697  -23.9237  -41.8766 H         1 UNK         0.0786 
     93 H93        25.9898  -23.2551  -41.0824 H         1 UNK         0.0786 
     94 H94        24.4163  -22.5197  -40.8223 H         1 UNK         0.0786 
     95 H95        24.1869  -26.4616  -41.2099 H         1 UNK         0.3172 
     96 H96        26.1998  -28.2736  -40.1666 H         1 UNK         0.0595 
     97 H97        27.4577  -28.4683  -42.3393 H         1 UNK         0.0839 
     98 H98        27.6667  -26.8909  -41.6175 H         1 UNK         0.0839 
     99 H99        26.5723  -27.0784  -42.9786 H         1 UNK         0.0839 
    100 H100       25.6757  -28.9549  -43.3547 H         1 UNK         0.2998 
    101 H101       24.4960  -30.2988  -44.5991 H         1 UNK         0.0822 
    102 H102       22.0290  -30.3533  -44.4525 H         1 UNK         0.0787 
    103 H103       22.0705  -29.6357  -42.8535 H         1 UNK         0.0787 
    104 H104       22.6194  -28.7156  -44.2540 H         1 UNK         0.0787 
    105 H105       23.7426  -31.0016  -41.2232 H         1 UNK         0.3055 
    106 H106       23.5984  -32.7899  -39.9459 H         1 UNK         0.1106 
    107 H107       25.7987  -33.5146  -40.8450 H         1 UNK         0.0828 
    108 H108       24.7830  -34.8962  -40.4654 H         1 UNK         0.0828 
    109 H109       25.0006  -34.4101  -42.1371 H         1 UNK         0.0828 
    110 H110       22.6653  -33.6614  -43.2575 H         1 UNK         0.2931 
    111 H111       20.9344  -34.5890  -44.1759 H         1 UNK         0.0412 
    112 H112       19.6188  -37.8725  -42.8976 H         1 UNK         0.3472 
    113 H113       18.8261  -36.3807  -43.3505 H         1 UNK         0.3472 
    114 H114       19.7283  -32.9126  -42.4055 H         1 UNK         0.0970 
    115 H115       19.0536  -34.3846  -41.7987 H         1 UNK         0.0970 
    116 H116       19.6064  -31.9473  -44.5693 H         1 UNK         0.0612 
    117 H117       18.5267  -32.3787  -45.8634 H         1 UNK         0.0612 
@<TRIPOS>BOND
     1    1    2 1    
     2    1   62 1    
     3    1   63 1    
     4    1   64 1    
     5    2    3 2    
     6    2    4 am   BACKBONE|DICT|INTERRES
     7    4    5 1    
     8    4   65 1    
     9    5    6 1    
    10    5   25 1    
    11    5   66 1    
    12    6    7 1    
    13    6   67 1    
    14    6   68 1    
    15    7    8 1    
    16    8    9 1    
    17    8   69 1    
    18    8   70 1    
    19    9   10 ar   
    20    9   14 ar   
    21   10   11 ar   
    22   10   71 1    
    23   11   12 ar   
    24   11   61 1    
    25   12   13 ar   
    26   12   72 1    
    27   13   14 ar   
    28   13   15 1    
    29   14   73 1    
    30   15   16 1    
    31   15   74 1    
    32   15   75 1    
    33   16   17 1    
    34   17   18 1    
    35   17   76 1    
    36   17   77 1    
    37   18   19 1    
    38   18   27 1    
    39   18   78 1    
    40   19   20 am   BACKBONE|DICT|INTERRES
    41   19   79 1    
    42   20   21 2    
    43   20   22 1    
    44   22   23 1    
    45   22   24 1    
    46   22   80 1    
    47   23   81 1    
    48   23   82 1    
    49   23   83 1    
    50   24   25 am   BACKBONE|DICT|INTERRES
    51   24   84 1    
    52   25   26 2    
    53   27   28 2    
    54   27   29 am   BACKBONE|DICT|INTERRES
    55   29   30 1    
    56   29   85 1    
    57   30   31 1    
    58   30   32 1    
    59   30   86 1    
    60   31   87 1    
    61   31   88 1    
    62   31   89 1    
    63   32   33 2    
    64   32   34 am   BACKBONE|DICT|INTERRES
    65   34   35 1    
    66   34   90 1    
    67   35   36 1    
    68   35   37 1    
    69   35   91 1    
    70   36   92 1    
    71   36   93 1    
    72   36   94 1    
    73   37   38 2    
    74   37   39 am   BACKBONE|DICT|INTERRES
    75   39   40 1    
    76   39   95 1    
    77   40   41 1    
    78   40   42 1    
    79   40   96 1    
    80   41   97 1    
    81   41   98 1    
    82   41   99 1    
    83   42   43 2    
    84   42   44 am   BACKBONE|DICT|INTERRES
    85   44   45 1    
    86   44  100 1    
    87   45   46 1    
    88   45   47 1    
    89   45  101 1    
    90   46  102 1    
    91   46  103 1    
    92   46  104 1    
    93   47   48 2    
    94   47   49 am   BACKBONE|DICT|INTERRES
    95   49   50 1    
    96   49  105 1    
    97   50   51 1    
    98   50   52 1    
    99   50  106 1    
   100   51  107 1    
   101   51  108 1    
   102   51  109 1    
   103   52   53 2    
   104   52   54 am   BACKBONE|DICT|INTERRES
   105   54   55 1    
   106   54  110 1    
   107   55   56 1    
   108   55   59 1    
   109   55  111 1    
   110   56   57 am   BACKBONE|DICT|INTERRES
   111   56   58 2    
   112   57  112 1    
   113   57  113 1    
   114   59   60 1    
   115   59  114 1    
   116   59  115 1    
   117   60   61 1    
   118   61  116 1    
   119   61  117 1    
@<TRIPOS>SUBSTRUCTURE
     1 UNK         1 GROUP             0       ****    0 ROOT    
