@<TRIPOS>MOLECULE
3R8
117   119    1
SMALL
USER_CHARGES


@<TRIPOS>ATOM
      1 CA         17.6893  -23.2582  -47.9451 C.3       0 UNK        -0.2013 
      2 C          18.3334  -24.6317  -48.0588 C.2       0 UNK         0.4866 
      3 O          19.2478  -24.8153  -48.8624 O.2       0 UNK        -0.5176 
      4 N          17.8635  -25.5990  -47.2605 N.am      1 UNK        -0.4884 
      5 CA         18.3479  -26.9874  -47.2510 C.3       1 UNK         0.0853 
      6 C6         17.3911  -27.9327  -46.4843 C.3       10 UNK        -0.0849 
      7 S7         15.6364  -27.8263  -46.9769 S.3       10 UNK        -0.2776 
      8 C8         14.9213  -29.2749  -46.1167 C.3       10 UNK         0.0316 
      9 C9         15.4921  -29.4742  -44.7160 C.ar      10 UNK        -0.0863 
     10 C10        16.2493  -30.6118  -44.4207 C.ar      10 UNK        -0.1009 
     11 C11        16.8375  -30.7695  -43.1621 C.ar      10 UNK        -0.0712 
     12 C12        16.6600  -29.7798  -42.1898 C.ar      10 UNK        -0.0894 
     13 C13        15.9163  -28.6304  -42.4789 C.ar      10 UNK        -0.0745 
     14 C14        15.3155  -28.4956  -43.7340 C.ar      10 UNK        -0.0972 
     15 C15        15.7776  -27.5114  -41.4585 C.3       10 UNK         0.0209 
     16 S16        16.9897  -26.1837  -41.7719 S.3       10 UNK        -0.2568 
     17 C17        18.4116  -26.7000  -40.7516 C.3       10 UNK        -0.0983 
     18 CA         19.4794  -27.5114  -41.5326 C.3       3 UNK         0.0876 
     19 N          20.0149  -26.7562  -42.6730 N.am      3 UNK        -0.4424 
     20 C          20.8023  -27.2440  -43.6428 C.2       2 UNK         0.4918 
     21 O          21.1680  -28.4173  -43.7164 O.2       2 UNK        -0.4875 
     22 CA         21.1854  -26.2405  -44.7454 C.3       2 UNK         0.0481 
     23 CB         22.5695  -26.5171  -45.3712 C.3       2 UNK        -0.1831 
     24 N          20.1141  -26.1839  -45.7458 N.am      2 UNK        -0.4498 
     25 C          19.7517  -27.1335  -46.6256 C.2       1 UNK         0.5027 
     26 O          20.4301  -28.1193  -46.9150 O.2       1 UNK        -0.4969 
     27 C          20.5844  -28.0270  -40.5810 C.2       3 UNK         0.5005 
     28 O          21.7560  -27.6882  -40.7470 O.2       3 UNK        -0.5279 
     29 N          20.1811  -28.8344  -39.5867 N.am      4 UNK        -0.4463 
     30 CA         21.0127  -29.6614  -38.6962 C.3       4 UNK         0.0283 
     31 CB         20.0881  -30.4682  -37.7687 C.3       4 UNK        -0.1875 
     32 C          22.1408  -28.9802  -37.8916 C.2       4 UNK         0.4949 
     33 O          22.9188  -29.6858  -37.2486 O.2       4 UNK        -0.5039 
     34 N          22.2469  -27.6475  -37.9489 N.am      5 UNK        -0.4663 
     35 CA         23.4391  -26.9040  -37.5330 C.3       5 UNK         0.0242 
     36 CB         23.0959  -25.4081  -37.4487 C.3       5 UNK        -0.1982 
     37 C          24.6349  -27.1334  -38.4822 C.2       5 UNK         0.5017 
     38 O          25.7795  -27.0326  -38.0386 O.2       5 UNK        -0.5012 
     39 N          24.3520  -27.4394  -39.7560 N.am      6 UNK        -0.4439 
     40 CA         25.3208  -27.8062  -40.7838 C.3       6 UNK         0.0297 
     41 CB         24.8834  -27.1787  -42.1181 C.3       6 UNK        -0.2006 
     42 C          25.3845  -29.3332  -40.9252 C.2       6 UNK         0.4892 
     43 O          24.3914  -30.0266  -40.6865 O.2       6 UNK        -0.5089 
     44 N          26.5416  -29.8260  -41.3861 N.am      7 UNK        -0.4243 
     45 CA         26.8405  -31.2476  -41.6067 C.3       7 UNK         0.0196 
     46 CB         28.3340  -31.3936  -41.9433 C.3       7 UNK        -0.2007 
     47 C          25.9761  -31.9398  -42.6805 C.2       7 UNK         0.5020 
     48 O          25.9816  -33.1688  -42.7502 O.2       7 UNK        -0.5147 
     49 N          25.2482  -31.1569  -43.4895 N.am      8 UNK        -0.4734 
     50 CA         24.2817  -31.6343  -44.4820 C.3       8 UNK         0.0238 
     51 CB         23.8075  -30.4469  -45.3351 C.3       8 UNK        -0.1912 
     52 C          23.0769  -32.3693  -43.8639 C.2       8 UNK         0.5038 
     53 O          22.5591  -33.2906  -44.4971 O.2       8 UNK        -0.5046 
     54 N          22.6754  -31.9679  -42.6503 N.am      9 UNK        -0.4200 
     55 CA         21.6025  -32.5953  -41.8616 C.3       9 UNK         0.0839 
     56 C          22.0584  -32.9979  -40.4315 C.2       9 UNK         0.5513 
     57 N          23.1598  -32.4854  -39.8953 N.am      9 UNK        -0.7519 
     58 O          21.3986  -33.8140  -39.7942 O.2       9 UNK        -0.4960 
     59 C59        20.3250  -31.7123  -41.8250 C.3       10 UNK        -0.0876 
     60 S60        19.4069  -31.7539  -43.4026 S.3       10 UNK        -0.2414 
     61 C61        17.6798  -32.0029  -42.8726 C.3       10 UNK         0.0169 
     62 H62        17.2594  -22.9655  -48.9027 H         1 UNK         0.0903 
     63 H63        16.8960  -23.2397  -47.1980 H         1 UNK         0.0903 
     64 H64        18.4360  -22.5154  -47.6655 H         1 UNK         0.0903 
     65 H65        17.0841  -25.4073  -46.6460 H         1 UNK         0.3096 
     66 H66        18.4140  -27.3292  -48.2865 H         1 UNK         0.1121 
     67 H67        17.4454  -27.7209  -45.4140 H         1 UNK         0.0849 
     68 H68        17.7142  -28.9694  -46.6046 H         1 UNK         0.0849 
     69 H69        13.8391  -29.1539  -46.0523 H         1 UNK         0.0865 
     70 H70        15.0924  -30.1611  -46.7298 H         1 UNK         0.0865 
     71 H71        16.4048  -31.3678  -45.1785 H         1 UNK         0.1346 
     72 H72        17.1211  -29.8940  -41.2189 H         1 UNK         0.1412 
     73 H73        14.7503  -27.6027  -43.9658 H         1 UNK         0.1426 
     74 H74        15.8751  -27.8944  -40.4419 H         1 UNK         0.0716 
     75 H75        14.7744  -27.0870  -41.5227 H         1 UNK         0.0716 
     76 H76        18.8620  -25.7974  -40.3341 H         1 UNK         0.0695 
     77 H77        18.0290  -27.2580  -39.8960 H         1 UNK         0.0695 
     78 H78        19.0051  -28.3990  -41.9530 H         1 UNK         0.0983 
     79 H79        19.7578  -25.7813  -42.7032 H         1 UNK         0.3095 
     80 H80        21.2340  -25.2493  -44.2916 H         1 UNK         0.0454 
     81 H81        23.3555  -26.4164  -44.6230 H         1 UNK         0.0851 
     82 H82        22.6488  -27.5232  -45.7822 H         1 UNK         0.0851 
     83 H83        22.7906  -25.8110  -46.1712 H         1 UNK         0.0851 
     84 H84        19.4616  -25.4210  -45.6301 H         1 UNK         0.2976 
     85 H85        19.1883  -28.9912  -39.4933 H         1 UNK         0.3116 
     86 H86        21.5260  -30.3672  -39.3468 H         1 UNK         0.0646 
     87 H87        20.6602  -31.1442  -37.1314 H         1 UNK         0.0847 
     88 H88        19.3920  -31.0859  -38.3363 H         1 UNK         0.0847 
     89 H89        19.5082  -29.8169  -37.1138 H         1 UNK         0.0847 
     90 H90        21.5884  -27.1571  -38.5375 H         1 UNK         0.3040 
     91 H91        23.7348  -27.2479  -36.5392 H         1 UNK         0.1015 
     92 H92        22.2919  -25.2248  -36.7357 H         1 UNK         0.0786 
     93 H93        22.7864  -25.0097  -38.4159 H         1 UNK         0.0786 
     94 H94        23.9593  -24.8286  -37.1184 H         1 UNK         0.0786 
     95 H95        23.3743  -27.5574  -40.0259 H         1 UNK         0.3172 
     96 H96        26.3099  -27.4256  -40.5206 H         1 UNK         0.0595 
     97 H97        24.7943  -26.0954  -42.0362 H         1 UNK         0.0839 
     98 H98        23.9184  -27.5680  -42.4472 H         1 UNK         0.0839 
     99 H99        25.6061  -27.3849  -42.9084 H         1 UNK         0.0839 
    100 H100       27.2929  -29.1795  -41.5818 H         1 UNK         0.2998 
    101 H101       26.6494  -31.7702  -40.6669 H         1 UNK         0.0822 
    102 H102       28.9626  -30.9982  -41.1451 H         1 UNK         0.0787 
    103 H103       28.6058  -32.4421  -42.0751 H         1 UNK         0.0787 
    104 H104       28.5920  -30.8723  -42.8661 H         1 UNK         0.0787 
    105 H105       25.3159  -30.1581  -43.3632 H         1 UNK         0.3055 
    106 H106       24.7951  -32.3446  -45.1340 H         1 UNK         0.1106 
    107 H107       23.3197  -29.6858  -44.7254 H         1 UNK         0.0828 
    108 H108       24.6372  -29.9763  -45.8626 H         1 UNK         0.0828 
    109 H109       23.0860  -30.7684  -46.0877 H         1 UNK         0.0828 
    110 H110       23.1762  -31.2136  -42.1990 H         1 UNK         0.2931 
    111 H111       21.3313  -33.5453  -42.3264 H         1 UNK         0.0412 
    112 H112       23.4246  -32.7831  -38.9703 H         1 UNK         0.3472 
    113 H113       23.6694  -31.7234  -40.3311 H         1 UNK         0.3472 
    114 H114       20.5952  -30.6777  -41.6231 H         1 UNK         0.0970 
    115 H115       19.6630  -32.0184  -41.0138 H         1 UNK         0.0970 
    116 H116       17.6178  -32.2636  -41.8158 H         1 UNK         0.0612 
    117 H117       17.2735  -32.8591  -43.4131 H         1 UNK         0.0612 
@<TRIPOS>BOND
     1    1    2 1    
     2    1   62 1    
     3    1   63 1    
     4    1   64 1    
     5    2    3 2    
     6    2    4 am   BACKBONE|DICT|INTERRES
     7    4    5 1    
     8    4   65 1    
     9    5    6 1    
    10    5   25 1    
    11    5   66 1    
    12    6    7 1    
    13    6   67 1    
    14    6   68 1    
    15    7    8 1    
    16    8    9 1    
    17    8   69 1    
    18    8   70 1    
    19    9   10 ar   
    20    9   14 ar   
    21   10   11 ar   
    22   10   71 1    
    23   11   12 ar   
    24   11   61 1    
    25   12   13 ar   
    26   12   72 1    
    27   13   14 ar   
    28   13   15 1    
    29   14   73 1    
    30   15   16 1    
    31   15   74 1    
    32   15   75 1    
    33   16   17 1    
    34   17   18 1    
    35   17   76 1    
    36   17   77 1    
    37   18   19 1    
    38   18   27 1    
    39   18   78 1    
    40   19   20 am   BACKBONE|DICT|INTERRES
    41   19   79 1    
    42   20   21 2    
    43   20   22 1    
    44   22   23 1    
    45   22   24 1    
    46   22   80 1    
    47   23   81 1    
    48   23   82 1    
    49   23   83 1    
    50   24   25 am   BACKBONE|DICT|INTERRES
    51   24   84 1    
    52   25   26 2    
    53   27   28 2    
    54   27   29 am   BACKBONE|DICT|INTERRES
    55   29   30 1    
    56   29   85 1    
    57   30   31 1    
    58   30   32 1    
    59   30   86 1    
    60   31   87 1    
    61   31   88 1    
    62   31   89 1    
    63   32   33 2    
    64   32   34 am   BACKBONE|DICT|INTERRES
    65   34   35 1    
    66   34   90 1    
    67   35   36 1    
    68   35   37 1    
    69   35   91 1    
    70   36   92 1    
    71   36   93 1    
    72   36   94 1    
    73   37   38 2    
    74   37   39 am   BACKBONE|DICT|INTERRES
    75   39   40 1    
    76   39   95 1    
    77   40   41 1    
    78   40   42 1    
    79   40   96 1    
    80   41   97 1    
    81   41   98 1    
    82   41   99 1    
    83   42   43 2    
    84   42   44 am   BACKBONE|DICT|INTERRES
    85   44   45 1    
    86   44  100 1    
    87   45   46 1    
    88   45   47 1    
    89   45  101 1    
    90   46  102 1    
    91   46  103 1    
    92   46  104 1    
    93   47   48 2    
    94   47   49 am   BACKBONE|DICT|INTERRES
    95   49   50 1    
    96   49  105 1    
    97   50   51 1    
    98   50   52 1    
    99   50  106 1    
   100   51  107 1    
   101   51  108 1    
   102   51  109 1    
   103   52   53 2    
   104   52   54 am   BACKBONE|DICT|INTERRES
   105   54   55 1    
   106   54  110 1    
   107   55   56 1    
   108   55   59 1    
   109   55  111 1    
   110   56   57 am   BACKBONE|DICT|INTERRES
   111   56   58 2    
   112   57  112 1    
   113   57  113 1    
   114   59   60 1    
   115   59  114 1    
   116   59  115 1    
   117   60   61 1    
   118   61  116 1    
   119   61  117 1    
@<TRIPOS>SUBSTRUCTURE
     1 UNK         1 GROUP             0       ****    0 ROOT    
