@<TRIPOS>MOLECULE
3R8
117   119    1
SMALL
USER_CHARGES


@<TRIPOS>ATOM
      1 CA         15.1629  -22.8622  -46.8553 C.3       0 UNK        -0.2013 
      2 C          16.5477  -23.4371  -46.5976 C.2       0 UNK         0.4866 
      3 O          17.5172  -22.6830  -46.5088 O.2       0 UNK        -0.5176 
      4 N          16.6507  -24.7674  -46.4834 N.am      1 UNK        -0.4884 
      5 CA         17.8891  -25.4851  -46.1660 C.3       1 UNK         0.0853 
      6 C6         17.7784  -26.9879  -46.5467 C.3       10 UNK        -0.0849 
      7 S7         19.3334  -27.7074  -47.1791 S.3       10 UNK        -0.2776 
      8 C8         20.2987  -28.0927  -45.6825 C.3       10 UNK         0.0316 
      9 C9         19.7828  -29.2960  -44.9066 C.ar      10 UNK        -0.0863 
     10 C10        20.4022  -30.5396  -45.0500 C.ar      10 UNK        -0.1009 
     11 C11        20.0093  -31.6284  -44.2665 C.ar      10 UNK        -0.0712 
     12 C12        18.9736  -31.4621  -43.3380 C.ar      10 UNK        -0.0894 
     13 C13        18.3257  -30.2317  -43.1968 C.ar      10 UNK        -0.0745 
     14 C14        18.7412  -29.1539  -43.9873 C.ar      10 UNK        -0.0972 
     15 C15        17.1723  -30.1085  -42.2000 C.3       10 UNK         0.0209 
     16 S16        16.9389  -28.4403  -41.4931 S.3       10 UNK        -0.2568 
     17 C17        18.3274  -28.3286  -40.3167 C.3       10 UNK        -0.0983 
     18 CA         19.6364  -27.7711  -40.9315 C.3       3 UNK         0.0876 
     19 N          19.4334  -26.5078  -41.6517 N.am      3 UNK        -0.4424 
     20 C          20.3767  -25.8410  -42.3283 C.2       2 UNK         0.4918 
     21 O          21.5430  -26.2263  -42.4415 O.2       2 UNK        -0.4875 
     22 CA         19.9309  -24.5403  -43.0209 C.3       2 UNK         0.0481 
     23 CB         21.0709  -23.5093  -43.0962 C.3       2 UNK        -0.1831 
     24 N          19.4418  -24.8023  -44.3761 N.am      2 UNK        -0.4498 
     25 C          18.2269  -25.2837  -44.6723 C.2       1 UNK         0.5027 
     26 O          17.3781  -25.5606  -43.8215 O.2       1 UNK        -0.4969 
     27 C          20.7091  -27.6383  -39.8338 C.2       3 UNK         0.5005 
     28 O          20.7488  -26.6211  -39.1367 O.2       3 UNK        -0.5279 
     29 N          21.5661  -28.6606  -39.7179 N.am      4 UNK        -0.4463 
     30 CA         22.7243  -28.8032  -38.8241 C.3       4 UNK         0.0283 
     31 CB         22.3347  -28.6695  -37.3396 C.3       4 UNK        -0.1875 
     32 C          23.9069  -27.8864  -39.1839 C.2       4 UNK         0.4949 
     33 O          25.0516  -28.3263  -39.0803 O.2       4 UNK        -0.5039 
     34 N          23.6233  -26.6510  -39.6156 N.am      5 UNK        -0.4663 
     35 CA         24.6043  -25.6780  -40.0957 C.3       5 UNK         0.0242 
     36 CB         23.9402  -24.2988  -40.2273 C.3       5 UNK        -0.1982 
     37 C          25.2491  -26.1131  -41.4210 C.2       5 UNK         0.5017 
     38 O          26.4770  -26.1241  -41.5160 O.2       5 UNK        -0.5012 
     39 N          24.4166  -26.4803  -42.4062 N.am      6 UNK        -0.4439 
     40 CA         24.8617  -27.0511  -43.6783 C.3       6 UNK         0.0297 
     41 CB         23.7982  -26.8103  -44.7614 C.3       6 UNK        -0.2006 
     42 C          25.1715  -28.5479  -43.5257 C.2       6 UNK         0.4892 
     43 O          26.2728  -28.9787  -43.8693 O.2       6 UNK        -0.5089 
     44 N          24.2020  -29.3008  -42.9931 N.am      7 UNK        -0.4243 
     45 CA         24.2766  -30.7289  -42.6991 C.3       7 UNK         0.0196 
     46 CB         24.2502  -31.5550  -43.9999 C.3       7 UNK        -0.2007 
     47 C          23.0892  -31.0918  -41.8023 C.2       7 UNK         0.5020 
     48 O          22.0687  -30.4001  -41.8379 O.2       7 UNK        -0.5147 
     49 N          23.2368  -32.1584  -41.0091 N.am      8 UNK        -0.4734 
     50 CA         22.1795  -32.6700  -40.1295 C.3       8 UNK         0.0238 
     51 CB         22.8022  -33.1865  -38.8217 C.3       8 UNK        -0.1912 
     52 C          21.3442  -33.7692  -40.8062 C.2       8 UNK         0.5038 
     53 O          20.1217  -33.7552  -40.6624 O.2       8 UNK        -0.5046 
     54 N          22.0268  -34.6793  -41.5223 N.am      9 UNK        -0.4200 
     55 CA         21.5016  -35.8715  -42.2170 C.3       9 UNK         0.0839 
     56 C          20.4720  -36.7140  -41.4013 C.2       9 UNK         0.5513 
     57 N          19.4107  -37.2243  -42.0122 N.am      9 UNK        -0.7519 
     58 O          20.6745  -36.9677  -40.2155 O.2       9 UNK        -0.4960 
     59 C59        21.1646  -35.6208  -43.7194 C.3       10 UNK        -0.0876 
     60 S60        19.8098  -34.4385  -44.0317 S.3       10 UNK        -0.2414 
     61 C61        20.7820  -32.9381  -44.3876 C.3       10 UNK         0.0169 
     62 H62        14.4034  -23.6408  -46.9232 H         1 UNK         0.0903 
     63 H63        14.8825  -22.1846  -46.0493 H         1 UNK         0.0903 
     64 H64        15.1575  -22.3013  -47.7896 H         1 UNK         0.0903 
     65 H65        15.8146  -25.3330  -46.5266 H         1 UNK         0.3096 
     66 H66        18.6812  -25.0338  -46.7685 H         1 UNK         0.1121 
     67 H67        17.0729  -27.0977  -47.3722 H         1 UNK         0.0849 
     68 H68        17.3503  -27.5960  -45.7512 H         1 UNK         0.0849 
     69 H69        21.3251  -28.2817  -45.9992 H         1 UNK         0.0865 
     70 H70        20.3551  -27.2266  -45.0277 H         1 UNK         0.0865 
     71 H71        21.2203  -30.6507  -45.7484 H         1 UNK         0.1346 
     72 H72        18.6768  -32.2903  -42.7095 H         1 UNK         0.1412 
     73 H73        18.2734  -28.1896  -43.8631 H         1 UNK         0.1426 
     74 H74        17.2973  -30.8214  -41.3833 H         1 UNK         0.0716 
     75 H75        16.2530  -30.3906  -42.7143 H         1 UNK         0.0716 
     76 H76        18.4998  -29.3154  -39.8823 H         1 UNK         0.0695 
     77 H77        17.9968  -27.6921  -39.4932 H         1 UNK         0.0695 
     78 H78        20.0068  -28.4905  -41.6637 H         1 UNK         0.0983 
     79 H79        18.4888  -26.1488  -41.6548 H         1 UNK         0.3095 
     80 H80        19.1249  -24.0952  -42.4334 H         1 UNK         0.0454 
     81 H81        21.9349  -23.8897  -43.6429 H         1 UNK         0.0851 
     82 H82        21.4085  -23.2335  -42.0974 H         1 UNK         0.0851 
     83 H83        20.7436  -22.5918  -43.5853 H         1 UNK         0.0851 
     84 H84        20.0855  -24.6013  -45.1280 H         1 UNK         0.2976 
     85 H85        21.5082  -29.3906  -40.4282 H         1 UNK         0.3116 
     86 H86        23.0749  -29.8257  -38.9707 H         1 UNK         0.0646 
     87 H87        22.0155  -27.6581  -37.0872 H         1 UNK         0.0847 
     88 H88        23.1820  -28.9079  -36.6956 H         1 UNK         0.0847 
     89 H89        21.5268  -29.3527  -37.0781 H         1 UNK         0.0847 
     90 H90        22.6456  -26.3760  -39.6262 H         1 UNK         0.3040 
     91 H91        25.3988  -25.6040  -39.3496 H         1 UNK         0.1015 
     92 H92        23.1036  -24.3222  -40.9243 H         1 UNK         0.0786 
     93 H93        24.6505  -23.5551  -40.5912 H         1 UNK         0.0786 
     94 H94        23.5650  -23.9466  -39.2662 H         1 UNK         0.0786 
     95 H95        23.4114  -26.4151  -42.2582 H         1 UNK         0.3172 
     96 H96        25.7765  -26.5454  -43.9953 H         1 UNK         0.0595 
     97 H97        22.8502  -27.2792  -44.5029 H         1 UNK         0.0839 
     98 H98        24.1166  -27.2205  -45.7206 H         1 UNK         0.0839 
     99 H99        23.6144  -25.7457  -44.9064 H         1 UNK         0.0839 
    100 H100       23.3228  -28.8749  -42.7263 H         1 UNK         0.2998 
    101 H101       25.2015  -30.9257  -42.1530 H         1 UNK         0.0822 
    102 H102       25.1348  -31.3701  -44.6091 H         1 UNK         0.0787 
    103 H103       24.2254  -32.6249  -43.7898 H         1 UNK         0.0787 
    104 H104       23.3756  -31.3177  -44.6056 H         1 UNK         0.0787 
    105 H105       24.1141  -32.6595  -41.0190 H         1 UNK         0.3055 
    106 H106       21.4934  -31.8609  -39.8672 H         1 UNK         0.1106 
    107 H107       22.0324  -33.5659  -38.1479 H         1 UNK         0.0828 
    108 H108       23.5091  -33.9982  -38.9970 H         1 UNK         0.0828 
    109 H109       23.3288  -32.3916  -38.2933 H         1 UNK         0.0828 
    110 H110       23.0306  -34.5914  -41.5421 H         1 UNK         0.2931 
    111 H111       22.3669  -36.5352  -42.2425 H         1 UNK         0.0412 
    112 H112       18.7628  -37.7893  -41.4855 H         1 UNK         0.3472 
    113 H113       19.2193  -37.0042  -42.9772 H         1 UNK         0.3472 
    114 H114       20.9177  -36.5618  -44.2135 H         1 UNK         0.0970 
    115 H115       22.0613  -35.2718  -44.2337 H         1 UNK         0.0970 
    116 H116       21.2070  -33.0367  -45.3876 H         1 UNK         0.0612 
    117 H117       21.6210  -32.8883  -43.6957 H         1 UNK         0.0612 
@<TRIPOS>BOND
     1    1    2 1    
     2    1   62 1    
     3    1   63 1    
     4    1   64 1    
     5    2    3 2    
     6    2    4 am   BACKBONE|DICT|INTERRES
     7    4    5 1    
     8    4   65 1    
     9    5    6 1    
    10    5   25 1    
    11    5   66 1    
    12    6    7 1    
    13    6   67 1    
    14    6   68 1    
    15    7    8 1    
    16    8    9 1    
    17    8   69 1    
    18    8   70 1    
    19    9   10 ar   
    20    9   14 ar   
    21   10   11 ar   
    22   10   71 1    
    23   11   12 ar   
    24   11   61 1    
    25   12   13 ar   
    26   12   72 1    
    27   13   14 ar   
    28   13   15 1    
    29   14   73 1    
    30   15   16 1    
    31   15   74 1    
    32   15   75 1    
    33   16   17 1    
    34   17   18 1    
    35   17   76 1    
    36   17   77 1    
    37   18   19 1    
    38   18   27 1    
    39   18   78 1    
    40   19   20 am   BACKBONE|DICT|INTERRES
    41   19   79 1    
    42   20   21 2    
    43   20   22 1    
    44   22   23 1    
    45   22   24 1    
    46   22   80 1    
    47   23   81 1    
    48   23   82 1    
    49   23   83 1    
    50   24   25 am   BACKBONE|DICT|INTERRES
    51   24   84 1    
    52   25   26 2    
    53   27   28 2    
    54   27   29 am   BACKBONE|DICT|INTERRES
    55   29   30 1    
    56   29   85 1    
    57   30   31 1    
    58   30   32 1    
    59   30   86 1    
    60   31   87 1    
    61   31   88 1    
    62   31   89 1    
    63   32   33 2    
    64   32   34 am   BACKBONE|DICT|INTERRES
    65   34   35 1    
    66   34   90 1    
    67   35   36 1    
    68   35   37 1    
    69   35   91 1    
    70   36   92 1    
    71   36   93 1    
    72   36   94 1    
    73   37   38 2    
    74   37   39 am   BACKBONE|DICT|INTERRES
    75   39   40 1    
    76   39   95 1    
    77   40   41 1    
    78   40   42 1    
    79   40   96 1    
    80   41   97 1    
    81   41   98 1    
    82   41   99 1    
    83   42   43 2    
    84   42   44 am   BACKBONE|DICT|INTERRES
    85   44   45 1    
    86   44  100 1    
    87   45   46 1    
    88   45   47 1    
    89   45  101 1    
    90   46  102 1    
    91   46  103 1    
    92   46  104 1    
    93   47   48 2    
    94   47   49 am   BACKBONE|DICT|INTERRES
    95   49   50 1    
    96   49  105 1    
    97   50   51 1    
    98   50   52 1    
    99   50  106 1    
   100   51  107 1    
   101   51  108 1    
   102   51  109 1    
   103   52   53 2    
   104   52   54 am   BACKBONE|DICT|INTERRES
   105   54   55 1    
   106   54  110 1    
   107   55   56 1    
   108   55   59 1    
   109   55  111 1    
   110   56   57 am   BACKBONE|DICT|INTERRES
   111   56   58 2    
   112   57  112 1    
   113   57  113 1    
   114   59   60 1    
   115   59  114 1    
   116   59  115 1    
   117   60   61 1    
   118   61  116 1    
   119   61  117 1    
@<TRIPOS>SUBSTRUCTURE
     1 UNK         1 GROUP             0       ****    0 ROOT    
