@<TRIPOS>MOLECULE
3R8
117   119    1
SMALL
USER_CHARGES


@<TRIPOS>ATOM
      1 CA         12.2930  -23.5884  -44.3533 C.3       0 UNK        -0.2013 
      2 C          13.6667  -23.9162  -44.9193 C.2       0 UNK         0.4866 
      3 O          14.0942  -23.2900  -45.8899 O.2       0 UNK        -0.5176 
      4 N          14.3602  -24.8889  -44.3206 N.am      1 UNK        -0.4884 
      5 CA         15.6950  -25.3345  -44.7182 C.3       1 UNK         0.0853 
      6 C6         15.6893  -26.2590  -45.9705 C.3       10 UNK        -0.0849 
      7 S7         14.6585  -27.7652  -45.8219 S.3       10 UNK        -0.2776 
      8 C8         15.5405  -28.9295  -46.9084 C.3       10 UNK         0.0316 
      9 C9         16.8535  -29.4188  -46.3091 C.ar      10 UNK        -0.0863 
     10 C10        16.8605  -30.4734  -45.3909 C.ar      10 UNK        -0.1009 
     11 C11        18.0680  -30.9835  -44.9020 C.ar      10 UNK        -0.0712 
     12 C12        19.2760  -30.4172  -45.3237 C.ar      10 UNK        -0.0894 
     13 C13        19.2808  -29.3548  -46.2330 C.ar      10 UNK        -0.0745 
     14 C14        18.0678  -28.8631  -46.7227 C.ar      10 UNK        -0.0972 
     15 C15        20.5909  -28.7700  -46.7407 C.3       10 UNK         0.0209 
     16 S16        21.0420  -27.2381  -45.8673 S.3       10 UNK        -0.2568 
     17 C17        21.7763  -27.8897  -44.3311 C.3       10 UNK        -0.0983 
     18 CA         21.0542  -27.3808  -43.0606 C.3       3 UNK         0.0876 
     19 N          19.6424  -27.7710  -43.0468 N.am      3 UNK        -0.4424 
     20 C          18.7467  -27.4884  -42.0930 C.2       2 UNK         0.4918 
     21 O          18.9981  -26.8562  -41.0660 O.2       2 UNK        -0.4875 
     22 CA         17.3158  -27.9725  -42.3764 C.3       2 UNK         0.0481 
     23 CB         16.4326  -28.0169  -41.1128 C.3       2 UNK        -0.1831 
     24 N          16.6755  -27.1999  -43.4439 N.am      2 UNK        -0.4498 
     25 C          16.4046  -25.8868  -43.4679 C.2       1 UNK         0.5027 
     26 O          16.6655  -25.1095  -42.5482 O.2       1 UNK        -0.4969 
     27 C          21.8156  -27.8435  -41.7995 C.2       3 UNK         0.5005 
     28 O          22.0655  -29.0406  -41.6374 O.2       3 UNK        -0.5279 
     29 N          22.1962  -26.8806  -40.9497 N.am      4 UNK        -0.4463 
     30 CA         23.0542  -27.0978  -39.7814 C.3       4 UNK         0.0283 
     31 CB         22.7996  -25.9832  -38.7541 C.3       4 UNK        -0.1875 
     32 C          24.5483  -27.1584  -40.1480 C.2       4 UNK         0.4949 
     33 O          25.3452  -27.6262  -39.3338 O.2       4 UNK        -0.5039 
     34 N          24.9065  -26.6887  -41.3537 N.am      5 UNK        -0.4663 
     35 CA         26.2564  -26.7138  -41.9221 C.3       5 UNK         0.0242 
     36 CB         26.2285  -26.0732  -43.3196 C.3       5 UNK        -0.1982 
     37 C          26.8037  -28.1479  -41.9886 C.2       5 UNK         0.5017 
     38 O          26.1909  -28.9964  -42.6395 O.2       5 UNK        -0.5012 
     39 N          27.8967  -28.3993  -41.2527 N.am      6 UNK        -0.4439 
     40 CA         28.5342  -29.7066  -41.0320 C.3       6 UNK         0.0297 
     41 CB         29.1783  -30.2203  -42.3378 C.3       6 UNK        -0.2006 
     42 C          27.6060  -30.7616  -40.3862 C.2       6 UNK         0.4892 
     43 O          27.8842  -31.9565  -40.4994 O.2       6 UNK        -0.5089 
     44 N          26.5213  -30.3054  -39.7363 N.am      7 UNK        -0.4243 
     45 CA         25.4173  -31.0916  -39.1758 C.3       7 UNK         0.0196 
     46 CB         25.8868  -31.8898  -37.9410 C.3       7 UNK        -0.2007 
     47 C          24.7016  -31.9685  -40.2246 C.2       7 UNK         0.5020 
     48 O          24.2558  -33.0673  -39.8907 O.2       7 UNK        -0.5147 
     49 N          24.5979  -31.4767  -41.4706 N.am      8 UNK        -0.4734 
     50 CA         24.0332  -32.1929  -42.6228 C.3       8 UNK         0.0238 
     51 CB         24.1208  -31.3025  -43.8724 C.3       8 UNK        -0.1912 
     52 C          22.5958  -32.7041  -42.4203 C.2       8 UNK         0.5038 
     53 O          22.2950  -33.8245  -42.8344 O.2       8 UNK        -0.5046 
     54 N          21.7570  -31.8908  -41.7692 N.am      9 UNK        -0.4200 
     55 CA         20.3929  -32.2363  -41.3446 C.3       9 UNK         0.0839 
     56 C          20.2966  -32.6468  -39.8442 C.2       9 UNK         0.5513 
     57 N          21.3967  -32.9189  -39.1521 N.am      9 UNK        -0.7519 
     58 O          19.2041  -32.7351  -39.2905 O.2       9 UNK        -0.4960 
     59 C59        19.3990  -31.1095  -41.7396 C.3       10 UNK        -0.0876 
     60 S60        17.7657  -31.7527  -42.2358 S.3       10 UNK        -0.2414 
     61 C61        18.0636  -32.1932  -43.9767 C.3       10 UNK         0.0169 
     62 H62        12.0380  -24.2246  -43.5058 H         1 UNK         0.0903 
     63 H63        12.2618  -22.5512  -44.0203 H         1 UNK         0.0903 
     64 H64        11.5300  -23.7236  -45.1195 H         1 UNK         0.0903 
     65 H65        13.9800  -25.3542  -43.5071 H         1 UNK         0.3096 
     66 H66        16.2723  -24.4462  -44.9868 H         1 UNK         0.1121 
     67 H67        15.3190  -25.6969  -46.8292 H         1 UNK         0.0849 
     68 H68        16.7138  -26.5246  -46.2290 H         1 UNK         0.0849 
     69 H69        14.8920  -29.7859  -47.1002 H         1 UNK         0.0865 
     70 H70        15.7098  -28.4616  -47.8797 H         1 UNK         0.0865 
     71 H71        15.9256  -30.9194  -45.0790 H         1 UNK         0.1346 
     72 H72        20.2126  -30.8235  -44.9665 H         1 UNK         0.1412 
     73 H73        18.0747  -28.0611  -47.4485 H         1 UNK         0.1426 
     74 H74        20.4967  -28.5460  -47.8045 H         1 UNK         0.0716 
     75 H75        21.4003  -29.4975  -46.6611 H         1 UNK         0.0716 
     76 H76        22.8267  -27.5910  -44.3210 H         1 UNK         0.0695 
     77 H77        21.7741  -28.9803  -44.3574 H         1 UNK         0.0695 
     78 H78        21.0725  -26.2892  -43.0864 H         1 UNK         0.0983 
     79 H79        19.3268  -28.2671  -43.8685 H         1 UNK         0.3095 
     80 H80        17.3924  -28.9896  -42.7556 H         1 UNK         0.0454 
     81 H81        16.8810  -28.6561  -40.3513 H         1 UNK         0.0851 
     82 H82        15.4456  -28.4220  -41.3347 H         1 UNK         0.0851 
     83 H83        16.2990  -27.0296  -40.6697 H         1 UNK         0.0851 
     84 H84        16.3835  -27.7370  -44.2523 H         1 UNK         0.2976 
     85 H85        21.9026  -25.9293  -41.1236 H         1 UNK         0.3116 
     86 H86        22.7906  -28.0521  -39.3199 H         1 UNK         0.0646 
     87 H87        23.0553  -24.9995  -39.1498 H         1 UNK         0.0847 
     88 H88        21.7545  -25.9606  -38.4444 H         1 UNK         0.0847 
     89 H89        23.3983  -26.1376  -37.8551 H         1 UNK         0.0847 
     90 H90        24.1769  -26.3378  -41.9543 H         1 UNK         0.3040 
     91 H91        26.9003  -26.1102  -41.2788 H         1 UNK         0.1015 
     92 H92        27.2239  -26.0688  -43.7659 H         1 UNK         0.0786 
     93 H93        25.8895  -25.0379  -43.2768 H         1 UNK         0.0786 
     94 H94        25.5697  -26.6152  -44.0000 H         1 UNK         0.0786 
     95 H95        28.2983  -27.6337  -40.7278 H         1 UNK         0.3172 
     96 H96        29.3367  -29.5347  -40.3133 H         1 UNK         0.0595 
     97 H97        28.4265  -30.4854  -43.0821 H         1 UNK         0.0839 
     98 H98        29.7809  -31.1109  -42.1552 H         1 UNK         0.0839 
     99 H99        29.8371  -29.4719  -42.7778 H         1 UNK         0.0839 
    100 H100       26.3833  -29.2996  -39.6928 H         1 UNK         0.2998 
    101 H101       24.6737  -30.3691  -38.8361 H         1 UNK         0.0822 
    102 H102       25.0437  -32.3662  -37.4389 H         1 UNK         0.0787 
    103 H103       26.3720  -31.2419  -37.2111 H         1 UNK         0.0787 
    104 H104       26.5906  -32.6774  -38.2119 H         1 UNK         0.0787 
    105 H105       25.0095  -30.5713  -41.6691 H         1 UNK         0.3055 
    106 H106       24.6593  -33.0721  -42.7890 H         1 UNK         0.1106 
    107 H107       25.1579  -31.0944  -44.1362 H         1 UNK         0.0828 
    108 H108       23.6583  -31.7830  -44.7357 H         1 UNK         0.0828 
    109 H109       23.6203  -30.3466  -43.7183 H         1 UNK         0.0828 
    110 H110       22.0783  -30.9609  -41.5110 H         1 UNK         0.2931 
    111 H111       20.0976  -33.1359  -41.8864 H         1 UNK         0.0412 
    112 H112       22.3123  -32.9128  -39.5889 H         1 UNK         0.3472 
    113 H113       21.3091  -33.1880  -38.1851 H         1 UNK         0.3472 
    114 H114       19.2719  -30.3923  -40.9265 H         1 UNK         0.0970 
    115 H115       19.7940  -30.5284  -42.5715 H         1 UNK         0.0970 
    116 H116       19.0023  -32.7432  -44.0601 H         1 UNK         0.0612 
    117 H117       17.2826  -32.8853  -44.2946 H         1 UNK         0.0612 
@<TRIPOS>BOND
     1    1    2 1    
     2    1   62 1    
     3    1   63 1    
     4    1   64 1    
     5    2    3 2    
     6    2    4 am   BACKBONE|DICT|INTERRES
     7    4    5 1    
     8    4   65 1    
     9    5    6 1    
    10    5   25 1    
    11    5   66 1    
    12    6    7 1    
    13    6   67 1    
    14    6   68 1    
    15    7    8 1    
    16    8    9 1    
    17    8   69 1    
    18    8   70 1    
    19    9   10 ar   
    20    9   14 ar   
    21   10   11 ar   
    22   10   71 1    
    23   11   12 ar   
    24   11   61 1    
    25   12   13 ar   
    26   12   72 1    
    27   13   14 ar   
    28   13   15 1    
    29   14   73 1    
    30   15   16 1    
    31   15   74 1    
    32   15   75 1    
    33   16   17 1    
    34   17   18 1    
    35   17   76 1    
    36   17   77 1    
    37   18   19 1    
    38   18   27 1    
    39   18   78 1    
    40   19   20 am   BACKBONE|DICT|INTERRES
    41   19   79 1    
    42   20   21 2    
    43   20   22 1    
    44   22   23 1    
    45   22   24 1    
    46   22   80 1    
    47   23   81 1    
    48   23   82 1    
    49   23   83 1    
    50   24   25 am   BACKBONE|DICT|INTERRES
    51   24   84 1    
    52   25   26 2    
    53   27   28 2    
    54   27   29 am   BACKBONE|DICT|INTERRES
    55   29   30 1    
    56   29   85 1    
    57   30   31 1    
    58   30   32 1    
    59   30   86 1    
    60   31   87 1    
    61   31   88 1    
    62   31   89 1    
    63   32   33 2    
    64   32   34 am   BACKBONE|DICT|INTERRES
    65   34   35 1    
    66   34   90 1    
    67   35   36 1    
    68   35   37 1    
    69   35   91 1    
    70   36   92 1    
    71   36   93 1    
    72   36   94 1    
    73   37   38 2    
    74   37   39 am   BACKBONE|DICT|INTERRES
    75   39   40 1    
    76   39   95 1    
    77   40   41 1    
    78   40   42 1    
    79   40   96 1    
    80   41   97 1    
    81   41   98 1    
    82   41   99 1    
    83   42   43 2    
    84   42   44 am   BACKBONE|DICT|INTERRES
    85   44   45 1    
    86   44  100 1    
    87   45   46 1    
    88   45   47 1    
    89   45  101 1    
    90   46  102 1    
    91   46  103 1    
    92   46  104 1    
    93   47   48 2    
    94   47   49 am   BACKBONE|DICT|INTERRES
    95   49   50 1    
    96   49  105 1    
    97   50   51 1    
    98   50   52 1    
    99   50  106 1    
   100   51  107 1    
   101   51  108 1    
   102   51  109 1    
   103   52   53 2    
   104   52   54 am   BACKBONE|DICT|INTERRES
   105   54   55 1    
   106   54  110 1    
   107   55   56 1    
   108   55   59 1    
   109   55  111 1    
   110   56   57 am   BACKBONE|DICT|INTERRES
   111   56   58 2    
   112   57  112 1    
   113   57  113 1    
   114   59   60 1    
   115   59  114 1    
   116   59  115 1    
   117   60   61 1    
   118   61  116 1    
   119   61  117 1    
@<TRIPOS>SUBSTRUCTURE
     1 UNK         1 GROUP             0       ****    0 ROOT    
