@<TRIPOS>MOLECULE
3R8
117   119    1
SMALL
USER_CHARGES


@<TRIPOS>ATOM
      1 CA         12.9893  -25.2751  -41.6621 C.3       0 UNK        -0.2013 
      2 C          14.1950  -25.9444  -42.3059 C.2       0 UNK         0.4866 
      3 O          14.4078  -27.1360  -42.0856 O.2       0 UNK        -0.5176 
      4 N          14.9670  -25.1737  -43.0881 N.am      1 UNK        -0.4884 
      5 CA         16.1882  -25.5365  -43.8245 C.3       1 UNK         0.0853 
      6 C6         15.9274  -26.0943  -45.2550 C.3       10 UNK        -0.0849 
      7 S7         15.0218  -27.6787  -45.3774 S.3       10 UNK        -0.2776 
      8 C8         15.8290  -28.4563  -46.8125 C.3       10 UNK         0.0316 
      9 C9         17.1886  -29.0538  -46.4711 C.ar      10 UNK        -0.0863 
     10 C10        17.2712  -30.3338  -45.9149 C.ar      10 UNK        -0.1009 
     11 C11        18.5139  -30.9315  -45.6786 C.ar      10 UNK        -0.0712 
     12 C12        19.6831  -30.2230  -45.9802 C.ar      10 UNK        -0.0894 
     13 C13        19.6157  -28.9343  -46.5219 C.ar      10 UNK        -0.0745 
     14 C14        18.3651  -28.3604  -46.7713 C.ar      10 UNK        -0.0972 
     15 C15        20.8852  -28.1889  -46.9181 C.3       10 UNK         0.0209 
     16 S16        21.1325  -26.6466  -45.9752 S.3       10 UNK        -0.2568 
     17 C17        22.1197  -27.2095  -44.5473 C.3       10 UNK        -0.0983 
     18 CA         21.5622  -26.6785  -43.1984 C.3       3 UNK         0.0876 
     19 N          20.2036  -27.1356  -42.8997 N.am      3 UNK        -0.4424 
     20 C          19.7629  -28.3953  -42.8027 C.2       2 UNK         0.4918 
     21 O          20.4847  -29.3837  -42.8985 O.2       2 UNK        -0.4875 
     22 CA         18.2528  -28.6036  -42.5829 C.3       2 UNK         0.0481 
     23 CB         17.9181  -28.7273  -41.0846 C.3       2 UNK        -0.1831 
     24 N          17.3852  -27.6175  -43.2435 N.am      2 UNK        -0.4498 
     25 C          17.2155  -26.3165  -42.9728 C.2       1 UNK         0.5027 
     26 O          17.8517  -25.7109  -42.1078 O.2       1 UNK        -0.4969 
     27 C          22.5275  -26.9678  -42.0308 C.2       3 UNK         0.5005 
     28 O          22.9816  -28.1013  -41.8586 O.2       3 UNK        -0.5279 
     29 N          22.8852  -25.9233  -41.2686 N.am      4 UNK        -0.4463 
     30 CA         23.8783  -25.9873  -40.1857 C.3       4 UNK         0.0283 
     31 CB         23.9600  -24.6265  -39.4768 C.3       4 UNK        -0.1875 
     32 C          25.2747  -26.4327  -40.6617 C.2       4 UNK         0.4949 
     33 O          25.9738  -27.1272  -39.9252 O.2       4 UNK        -0.5039 
     34 N          25.6225  -26.0913  -41.9112 N.am      5 UNK        -0.4663 
     35 CA         26.8299  -26.5471  -42.6086 C.3       5 UNK         0.0242 
     36 CB         26.9809  -25.7526  -43.9159 C.3       5 UNK        -0.1982 
     37 C          26.8512  -28.0620  -42.8967 C.2       5 UNK         0.5017 
     38 O          27.9346  -28.6193  -43.0730 O.2       5 UNK        -0.5012 
     39 N          25.6722  -28.7002  -42.9197 N.am      6 UNK        -0.4439 
     40 CA         25.4913  -30.1474  -43.0489 C.3       6 UNK         0.0297 
     41 CB         24.3323  -30.4188  -44.0273 C.3       6 UNK        -0.2006 
     42 C          25.2179  -30.8070  -41.6834 C.2       6 UNK         0.4892 
     43 O          24.7908  -31.9613  -41.6591 O.2       6 UNK        -0.5089 
     44 N          25.4210  -30.0683  -40.5784 N.am      7 UNK        -0.4243 
     45 CA         25.1360  -30.4500  -39.1891 C.3       7 UNK         0.0196 
     46 CB         26.0895  -31.5706  -38.7222 C.3       7 UNK        -0.2007 
     47 C          23.6490  -30.7862  -38.9579 C.2       7 UNK         0.5020 
     48 O          23.3367  -31.7237  -38.2223 O.2       7 UNK        -0.5147 
     49 N          22.7618  -30.0272  -39.6198 N.am      8 UNK        -0.4734 
     50 CA         21.3041  -30.1991  -39.6648 C.3       8 UNK         0.0238 
     51 CB         20.6683  -30.0475  -38.2659 C.3       8 UNK        -0.1912 
     52 C          20.8524  -31.4785  -40.4022 C.2       8 UNK         0.5038 
     53 O          19.7305  -31.9339  -40.1781 O.2       8 UNK        -0.5046 
     54 N          21.7313  -32.0149  -41.2617 N.am      9 UNK        -0.4200 
     55 CA         21.5438  -33.1422  -42.1891 C.3       9 UNK         0.0839 
     56 C          21.0905  -34.5028  -41.5780 C.2       9 UNK         0.5513 
     57 N          21.1940  -34.7062  -40.2703 N.am      9 UNK        -0.7519 
     58 O          20.6919  -35.4112  -42.3028 O.2       9 UNK        -0.4960 
     59 C59        20.8229  -32.7311  -43.5068 C.3       10 UNK        -0.0876 
     60 S60        19.0148  -32.4833  -43.4047 S.3       10 UNK        -0.2414 
     61 C61        18.5792  -32.3679  -45.1695 C.3       10 UNK         0.0169 
     62 H62        13.0606  -25.3384  -40.5765 H         1 UNK         0.0903 
     63 H63        12.9083  -24.2232  -41.9355 H         1 UNK         0.0903 
     64 H64        12.0730  -25.7766  -41.9727 H         1 UNK         0.0903 
     65 H65        14.7110  -24.2000  -43.1780 H         1 UNK         0.3096 
     66 H66        16.6813  -24.5761  -43.9878 H         1 UNK         0.1121 
     67 H67        16.8768  -26.1746  -45.7844 H         1 UNK         0.0849 
     68 H68        15.3543  -25.3581  -45.8207 H         1 UNK         0.0849 
     69 H69        15.1761  -29.2434  -47.1929 H         1 UNK         0.0865 
     70 H70        15.9182  -27.7291  -47.6214 H         1 UNK         0.0865 
     71 H71        16.3628  -30.8794  -45.6973 H         1 UNK         0.1346 
     72 H72        20.6460  -30.6830  -45.8116 H         1 UNK         0.1412 
     73 H73        18.3145  -27.3793  -47.2231 H         1 UNK         0.1426 
     74 H74        21.7651  -28.8269  -46.8216 H         1 UNK         0.0716 
     75 H75        20.8169  -27.9342  -47.9766 H         1 UNK         0.0716 
     76 H76        23.1424  -26.8608  -44.7022 H         1 UNK         0.0695 
     77 H77        22.1723  -28.2982  -44.5450 H         1 UNK         0.0695 
     78 H78        21.4875  -25.5940  -43.2934 H         1 UNK         0.0983 
     79 H79        19.5180  -26.4071  -42.7281 H         1 UNK         0.3095 
     80 H80        18.0006  -29.5564  -43.0497 H         1 UNK         0.0454 
     81 H81        18.2322  -27.8492  -40.5198 H         1 UNK         0.0851 
     82 H82        18.4174  -29.5917  -40.6489 H         1 UNK         0.0851 
     83 H83        16.8478  -28.8626  -40.9281 H         1 UNK         0.0851 
     84 H84        16.8139  -27.9925  -43.9923 H         1 UNK         0.2976 
     85 H85        22.4739  -25.0182  -41.4503 H         1 UNK         0.3116 
     86 H86        23.5292  -26.7278  -39.4626 H         1 UNK         0.0646 
     87 H87        22.9973  -24.3401  -39.0530 H         1 UNK         0.0847 
     88 H88        24.6758  -24.6586  -38.6541 H         1 UNK         0.0847 
     89 H89        24.2795  -23.8339  -40.1546 H         1 UNK         0.0847 
     90 H90        24.9882  -25.5087  -42.4381 H         1 UNK         0.3040 
     91 H91        27.6890  -26.3285  -41.9701 H         1 UNK         0.1015 
     92 H92        26.1403  -25.9204  -44.5906 H         1 UNK         0.0786 
     93 H93        27.8880  -26.0442  -44.4476 H         1 UNK         0.0786 
     94 H94        27.0515  -24.6816  -43.7246 H         1 UNK         0.0786 
     95 H95        24.8274  -28.1800  -42.7063 H         1 UNK         0.3172 
     96 H96        26.3944  -30.6049  -43.4573 H         1 UNK         0.0595 
     97 H97        23.3723  -30.1111  -43.6106 H         1 UNK         0.0839 
     98 H98        24.2558  -31.4823  -44.2567 H         1 UNK         0.0839 
     99 H99        24.4740  -29.8945  -44.9723 H         1 UNK         0.0839 
    100 H100       25.7566  -29.1194  -40.6963 H         1 UNK         0.2998 
    101 H101       25.3427  -29.5675  -38.5817 H         1 UNK         0.0822 
    102 H102       25.9695  -31.7670  -37.6561 H         1 UNK         0.0787 
    103 H103       25.9022  -32.5076  -39.2477 H         1 UNK         0.0787 
    104 H104       27.1320  -31.2971  -38.8846 H         1 UNK         0.0787 
    105 H105       23.1156  -29.3178  -40.2570 H         1 UNK         0.3055 
    106 H106       20.9392  -29.3702  -40.2706 H         1 UNK         0.1106 
    107 H107       19.5811  -29.9965  -38.3348 H         1 UNK         0.0828 
    108 H108       20.9091  -30.8886  -37.6156 H         1 UNK         0.0828 
    109 H109       21.0025  -29.1341  -37.7743 H         1 UNK         0.0828 
    110 H110       22.6501  -31.5938  -41.3047 H         1 UNK         0.2931 
    111 H111       22.5673  -33.3606  -42.4951 H         1 UNK         0.0412 
    112 H112       20.9166  -35.5937  -39.8816 H         1 UNK         0.3472 
    113 H113       21.5180  -33.9655  -39.6678 H         1 UNK         0.3472 
    114 H114       21.0200  -33.4868  -44.2688 H         1 UNK         0.0970 
    115 H115       21.2696  -31.8115  -43.8852 H         1 UNK         0.0970 
    116 H116       19.2858  -32.9395  -45.7724 H         1 UNK         0.0612 
    117 H117       17.6131  -32.8555  -45.3082 H         1 UNK         0.0612 
@<TRIPOS>BOND
     1    1    2 1    
     2    1   62 1    
     3    1   63 1    
     4    1   64 1    
     5    2    3 2    
     6    2    4 am   BACKBONE|DICT|INTERRES
     7    4    5 1    
     8    4   65 1    
     9    5    6 1    
    10    5   25 1    
    11    5   66 1    
    12    6    7 1    
    13    6   67 1    
    14    6   68 1    
    15    7    8 1    
    16    8    9 1    
    17    8   69 1    
    18    8   70 1    
    19    9   10 ar   
    20    9   14 ar   
    21   10   11 ar   
    22   10   71 1    
    23   11   12 ar   
    24   11   61 1    
    25   12   13 ar   
    26   12   72 1    
    27   13   14 ar   
    28   13   15 1    
    29   14   73 1    
    30   15   16 1    
    31   15   74 1    
    32   15   75 1    
    33   16   17 1    
    34   17   18 1    
    35   17   76 1    
    36   17   77 1    
    37   18   19 1    
    38   18   27 1    
    39   18   78 1    
    40   19   20 am   BACKBONE|DICT|INTERRES
    41   19   79 1    
    42   20   21 2    
    43   20   22 1    
    44   22   23 1    
    45   22   24 1    
    46   22   80 1    
    47   23   81 1    
    48   23   82 1    
    49   23   83 1    
    50   24   25 am   BACKBONE|DICT|INTERRES
    51   24   84 1    
    52   25   26 2    
    53   27   28 2    
    54   27   29 am   BACKBONE|DICT|INTERRES
    55   29   30 1    
    56   29   85 1    
    57   30   31 1    
    58   30   32 1    
    59   30   86 1    
    60   31   87 1    
    61   31   88 1    
    62   31   89 1    
    63   32   33 2    
    64   32   34 am   BACKBONE|DICT|INTERRES
    65   34   35 1    
    66   34   90 1    
    67   35   36 1    
    68   35   37 1    
    69   35   91 1    
    70   36   92 1    
    71   36   93 1    
    72   36   94 1    
    73   37   38 2    
    74   37   39 am   BACKBONE|DICT|INTERRES
    75   39   40 1    
    76   39   95 1    
    77   40   41 1    
    78   40   42 1    
    79   40   96 1    
    80   41   97 1    
    81   41   98 1    
    82   41   99 1    
    83   42   43 2    
    84   42   44 am   BACKBONE|DICT|INTERRES
    85   44   45 1    
    86   44  100 1    
    87   45   46 1    
    88   45   47 1    
    89   45  101 1    
    90   46  102 1    
    91   46  103 1    
    92   46  104 1    
    93   47   48 2    
    94   47   49 am   BACKBONE|DICT|INTERRES
    95   49   50 1    
    96   49  105 1    
    97   50   51 1    
    98   50   52 1    
    99   50  106 1    
   100   51  107 1    
   101   51  108 1    
   102   51  109 1    
   103   52   53 2    
   104   52   54 am   BACKBONE|DICT|INTERRES
   105   54   55 1    
   106   54  110 1    
   107   55   56 1    
   108   55   59 1    
   109   55  111 1    
   110   56   57 am   BACKBONE|DICT|INTERRES
   111   56   58 2    
   112   57  112 1    
   113   57  113 1    
   114   59   60 1    
   115   59  114 1    
   116   59  115 1    
   117   60   61 1    
   118   61  116 1    
   119   61  117 1    
@<TRIPOS>SUBSTRUCTURE
     1 UNK         1 GROUP             0       ****    0 ROOT    
