@<TRIPOS>MOLECULE
3R8
117   119    1
SMALL
USER_CHARGES


@<TRIPOS>ATOM
      1 CA         21.4336  -30.0611  -47.4401 C.3       0 UNK        -0.2013 
      2 C          22.0132  -28.6746  -47.7041 C.2       0 UNK         0.4866 
      3 O          22.9983  -28.5644  -48.4315 O.2       0 UNK        -0.5176 
      4 N          21.4551  -27.5914  -47.1499 N.am      1 UNK        -0.4884 
      5 CA         20.3162  -27.5406  -46.2270 C.3       1 UNK         0.0853 
      6 C6         19.0518  -26.9154  -46.8854 C.3       10 UNK        -0.0849 
      7 S7         18.3481  -27.9954  -48.1754 S.3       10 UNK        -0.2776 
      8 C8         16.7248  -28.4427  -47.4647 C.3       10 UNK         0.0316 
      9 C9         16.8197  -29.1594  -46.1198 C.ar      10 UNK        -0.0863 
     10 C10        17.5994  -30.3123  -45.9807 C.ar      10 UNK        -0.1009 
     11 C11        17.6689  -30.9768  -44.7533 C.ar      10 UNK        -0.0712 
     12 C12        16.9279  -30.5049  -43.6679 C.ar      10 UNK        -0.0894 
     13 C13        16.1512  -29.3508  -43.7879 C.ar      10 UNK        -0.0745 
     14 C14        16.1005  -28.6829  -45.0168 C.ar      10 UNK        -0.0972 
     15 C15        15.3531  -28.8359  -42.5972 C.3       10 UNK         0.0209 
     16 S16        16.1110  -27.3541  -41.8585 S.3       10 UNK        -0.2568 
     17 C17        17.3420  -28.0395  -40.6902 C.3       10 UNK        -0.0983 
     18 CA         18.6996  -28.4220  -41.3491 C.3       3 UNK         0.0876 
     19 N          19.2196  -27.3895  -42.2419 N.am      3 UNK        -0.4424 
     20 C          19.7356  -26.1968  -41.9191 C.2       2 UNK         0.4918 
     21 O          19.9062  -25.8108  -40.7611 O.2       2 UNK        -0.4875 
     22 CA         20.0558  -25.2494  -43.0965 C.3       2 UNK         0.0481 
     23 CB         21.3845  -24.4954  -42.9019 C.3       2 UNK        -0.1831 
     24 N          19.9713  -25.8983  -44.4166 N.am      2 UNK        -0.4498 
     25 C          20.7842  -26.8336  -44.9367 C.2       1 UNK         0.5027 
     26 O          21.8434  -27.1859  -44.4162 O.2       1 UNK        -0.4969 
     27 C          19.7864  -28.9000  -40.3657 C.2       3 UNK         0.5005 
     28 O          20.7157  -29.5817  -40.7964 O.2       3 UNK        -0.5279 
     29 N          19.6648  -28.5341  -39.0814 N.am      4 UNK        -0.4463 
     30 CA         20.6172  -28.8643  -38.0182 C.3       4 UNK         0.0283 
     31 CB         19.9586  -28.5981  -36.6549 C.3       4 UNK        -0.1875 
     32 C          21.9591  -28.1133  -38.1207 C.2       4 UNK         0.4949 
     33 O          22.9377  -28.5699  -37.5293 O.2       4 UNK        -0.5039 
     34 N          21.9935  -26.9931  -38.8528 N.am      5 UNK        -0.4663 
     35 CA         23.2107  -26.2430  -39.1642 C.3       5 UNK         0.0242 
     36 CB         22.8750  -24.7416  -39.1547 C.3       5 UNK        -0.1982 
     37 C          23.7674  -26.6732  -40.5317 C.2       5 UNK         0.5017 
     38 O          23.0850  -27.3764  -41.2785 O.2       5 UNK        -0.5012 
     39 N          24.9923  -26.2190  -40.8372 N.am      6 UNK        -0.4439 
     40 CA         25.7449  -26.4164  -42.0842 C.3       6 UNK         0.0297 
     41 CB         25.1322  -25.5971  -43.2406 C.3       6 UNK        -0.2006 
     42 C          25.9394  -27.9012  -42.4419 C.2       6 UNK         0.4892 
     43 O          26.9480  -28.4853  -42.0440 O.2       6 UNK        -0.5089 
     44 N          24.9787  -28.4790  -43.1765 N.am      7 UNK        -0.4243 
     45 CA         24.9409  -29.8936  -43.5447 C.3       7 UNK         0.0196 
     46 CB         23.8525  -30.1064  -44.6082 C.3       7 UNK        -0.2007 
     47 C          24.7013  -30.8245  -42.3441 C.2       7 UNK         0.5020 
     48 O          25.1931  -31.9531  -42.3649 O.2       7 UNK        -0.5147 
     49 N          23.9529  -30.3447  -41.3361 N.am      8 UNK        -0.4734 
     50 CA         23.5515  -31.0658  -40.1174 C.3       8 UNK         0.0238 
     51 CB         24.7680  -31.3025  -39.1983 C.3       8 UNK        -0.1912 
     52 C          22.7514  -32.3534  -40.4099 C.2       8 UNK         0.5038 
     53 O          22.9246  -33.3633  -39.7240 O.2       8 UNK        -0.5046 
     54 N          21.9161  -32.2938  -41.4509 N.am      9 UNK        -0.4200 
     55 CA         21.0910  -33.3911  -41.9619 C.3       9 UNK         0.0839 
     56 C          19.7422  -33.5387  -41.2045 C.2       9 UNK         0.5513 
     57 N          19.0741  -34.6740  -41.3601 N.am      9 UNK        -0.7519 
     58 O          19.2831  -32.6450  -40.4962 O.2       9 UNK        -0.4960 
     59 C59        20.9153  -33.2744  -43.5006 C.3       10 UNK        -0.0876 
     60 S60        20.2185  -31.6770  -44.0476 S.3       10 UNK        -0.2414 
     61 C61        18.5614  -32.1915  -44.5836 C.3       10 UNK         0.0169 
     62 H62        21.5046  -30.3155  -46.3840 H         1 UNK         0.0903 
     63 H63        20.3905  -30.1143  -47.7474 H         1 UNK         0.0903 
     64 H64        21.9818  -30.8187  -47.9996 H         1 UNK         0.0903 
     65 H65        21.8982  -26.6981  -47.3128 H         1 UNK         0.3096 
     66 H66        20.0464  -28.5427  -45.8908 H         1 UNK         0.1121 
     67 H67        18.2650  -26.7301  -46.1531 H         1 UNK         0.0849 
     68 H68        19.2879  -25.9485  -47.3337 H         1 UNK         0.0849 
     69 H69        16.1199  -27.5384  -47.3809 H         1 UNK         0.0865 
     70 H70        16.2026  -29.0920  -48.1687 H         1 UNK         0.0865 
     71 H71        18.1620  -30.6856  -46.8252 H         1 UNK         0.1346 
     72 H72        16.9764  -31.0267  -42.7214 H         1 UNK         0.1412 
     73 H73        15.4917  -27.7936  -45.1110 H         1 UNK         0.1426 
     74 H74        14.3461  -28.5809  -42.9304 H         1 UNK         0.0716 
     75 H75        15.2325  -29.6099  -41.8377 H         1 UNK         0.0716 
     76 H76        17.4878  -27.2718  -39.9289 H         1 UNK         0.0695 
     77 H77        16.9083  -28.9011  -40.1794 H         1 UNK         0.0695 
     78 H78        18.5200  -29.2849  -41.9860 H         1 UNK         0.0983 
     79 H79        19.1398  -27.6036  -43.2225 H         1 UNK         0.3095 
     80 H80        19.2616  -24.5017  -43.0959 H         1 UNK         0.0454 
     81 H81        21.3120  -23.7945  -42.0702 H         1 UNK         0.0851 
     82 H82        22.1978  -25.1801  -42.6730 H         1 UNK         0.0851 
     83 H83        21.6588  -23.9221  -43.7870 H         1 UNK         0.0851 
     84 H84        19.1415  -25.6600  -44.9421 H         1 UNK         0.2976 
     85 H85        18.8881  -27.9426  -38.8240 H         1 UNK         0.3116 
     86 H86        20.8368  -29.9320  -38.0858 H         1 UNK         0.0646 
     87 H87        20.6296  -28.8688  -35.8383 H         1 UNK         0.0847 
     88 H88        19.0487  -29.1854  -36.5305 H         1 UNK         0.0847 
     89 H89        19.7019  -27.5456  -36.5285 H         1 UNK         0.0847 
     90 H90        21.1688  -26.7315  -39.3836 H         1 UNK         0.3040 
     91 H91        23.9748  -26.4354  -38.4077 H         1 UNK         0.1015 
     92 H92        22.4818  -24.4324  -38.1861 H         1 UNK         0.0786 
     93 H93        22.1307  -24.4901  -39.9097 H         1 UNK         0.0786 
     94 H94        23.7582  -24.1330  -39.3518 H         1 UNK         0.0786 
     95 H95        25.4765  -25.6776  -40.1342 H         1 UNK         0.3172 
     96 H96        26.7408  -26.0104  -41.8993 H         1 UNK         0.0595 
     97 H97        24.1330  -25.9359  -43.5093 H         1 UNK         0.0839 
     98 H98        25.7484  -25.6733  -44.1373 H         1 UNK         0.0839 
     99 H99        25.0657  -24.5399  -42.9842 H         1 UNK         0.0839 
    100 H100       24.1495  -27.9348  -43.3836 H         1 UNK         0.2998 
    101 H101       25.9070  -30.1562  -43.9811 H         1 UNK         0.0822 
    102 H102       24.0516  -29.5142  -45.5014 H         1 UNK         0.0787 
    103 H103       23.8010  -31.1521  -44.9151 H         1 UNK         0.0787 
    104 H104       22.8663  -29.8272  -44.2339 H         1 UNK         0.0787 
    105 H105       23.5747  -29.4053  -41.4306 H         1 UNK         0.3055 
    106 H106       22.8665  -30.4086  -39.5857 H         1 UNK         0.1106 
    107 H107       24.4574  -31.7208  -38.2401 H         1 UNK         0.0828 
    108 H108       25.4830  -31.9961  -39.6414 H         1 UNK         0.0828 
    109 H109       25.2894  -30.3688  -38.9870 H         1 UNK         0.0828 
    110 H110       21.7501  -31.3894  -41.8733 H         1 UNK         0.2931 
    111 H111       21.6404  -34.3171  -41.7802 H         1 UNK         0.0412 
    112 H112       18.1942  -34.7916  -40.8823 H         1 UNK         0.3472 
    113 H113       19.4370  -35.4225  -41.9296 H         1 UNK         0.3472 
    114 H114       20.3164  -34.0998  -43.8890 H         1 UNK         0.0970 
    115 H115       21.8906  -33.3816  -43.9781 H         1 UNK         0.0970 
    116 H116       18.1287  -32.8707  -43.8471 H         1 UNK         0.0612 
    117 H117       18.6364  -32.7478  -45.5191 H         1 UNK         0.0612 
@<TRIPOS>BOND
     1    1    2 1    
     2    1   62 1    
     3    1   63 1    
     4    1   64 1    
     5    2    3 2    
     6    2    4 am   BACKBONE|DICT|INTERRES
     7    4    5 1    
     8    4   65 1    
     9    5    6 1    
    10    5   25 1    
    11    5   66 1    
    12    6    7 1    
    13    6   67 1    
    14    6   68 1    
    15    7    8 1    
    16    8    9 1    
    17    8   69 1    
    18    8   70 1    
    19    9   10 ar   
    20    9   14 ar   
    21   10   11 ar   
    22   10   71 1    
    23   11   12 ar   
    24   11   61 1    
    25   12   13 ar   
    26   12   72 1    
    27   13   14 ar   
    28   13   15 1    
    29   14   73 1    
    30   15   16 1    
    31   15   74 1    
    32   15   75 1    
    33   16   17 1    
    34   17   18 1    
    35   17   76 1    
    36   17   77 1    
    37   18   19 1    
    38   18   27 1    
    39   18   78 1    
    40   19   20 am   BACKBONE|DICT|INTERRES
    41   19   79 1    
    42   20   21 2    
    43   20   22 1    
    44   22   23 1    
    45   22   24 1    
    46   22   80 1    
    47   23   81 1    
    48   23   82 1    
    49   23   83 1    
    50   24   25 am   BACKBONE|DICT|INTERRES
    51   24   84 1    
    52   25   26 2    
    53   27   28 2    
    54   27   29 am   BACKBONE|DICT|INTERRES
    55   29   30 1    
    56   29   85 1    
    57   30   31 1    
    58   30   32 1    
    59   30   86 1    
    60   31   87 1    
    61   31   88 1    
    62   31   89 1    
    63   32   33 2    
    64   32   34 am   BACKBONE|DICT|INTERRES
    65   34   35 1    
    66   34   90 1    
    67   35   36 1    
    68   35   37 1    
    69   35   91 1    
    70   36   92 1    
    71   36   93 1    
    72   36   94 1    
    73   37   38 2    
    74   37   39 am   BACKBONE|DICT|INTERRES
    75   39   40 1    
    76   39   95 1    
    77   40   41 1    
    78   40   42 1    
    79   40   96 1    
    80   41   97 1    
    81   41   98 1    
    82   41   99 1    
    83   42   43 2    
    84   42   44 am   BACKBONE|DICT|INTERRES
    85   44   45 1    
    86   44  100 1    
    87   45   46 1    
    88   45   47 1    
    89   45  101 1    
    90   46  102 1    
    91   46  103 1    
    92   46  104 1    
    93   47   48 2    
    94   47   49 am   BACKBONE|DICT|INTERRES
    95   49   50 1    
    96   49  105 1    
    97   50   51 1    
    98   50   52 1    
    99   50  106 1    
   100   51  107 1    
   101   51  108 1    
   102   51  109 1    
   103   52   53 2    
   104   52   54 am   BACKBONE|DICT|INTERRES
   105   54   55 1    
   106   54  110 1    
   107   55   56 1    
   108   55   59 1    
   109   55  111 1    
   110   56   57 am   BACKBONE|DICT|INTERRES
   111   56   58 2    
   112   57  112 1    
   113   57  113 1    
   114   59   60 1    
   115   59  114 1    
   116   59  115 1    
   117   60   61 1    
   118   61  116 1    
   119   61  117 1    
@<TRIPOS>SUBSTRUCTURE
     1 UNK         1 GROUP             0       ****    0 ROOT    
