@<TRIPOS>MOLECULE
3R8
117   119    1
SMALL
USER_CHARGES


@<TRIPOS>ATOM
      1 CA         18.7072  -27.7690  -41.3122 C.3       0 UNK        -0.2013 
      2 C          17.9568  -26.5833  -41.8935 C.2       0 UNK         0.4866 
      3 O          17.7434  -25.5941  -41.1915 O.2       0 UNK        -0.5176 
      4 N          17.5415  -26.6862  -43.1630 N.am      1 UNK        -0.4884 
      5 CA         16.8490  -25.6280  -43.9010 C.3       1 UNK         0.0853 
      6 C6         15.6347  -26.1752  -44.7062 C.3       10 UNK        -0.0849 
      7 S7         15.9873  -27.3293  -46.0825 S.3       10 UNK        -0.2776 
      8 C8         15.8772  -28.9781  -45.3081 C.3       10 UNK         0.0316 
      9 C9         17.2515  -29.5754  -45.0276 C.ar      10 UNK        -0.0863 
     10 C10        17.5569  -30.0974  -43.7660 C.ar      10 UNK        -0.1009 
     11 C11        18.8088  -30.6721  -43.5212 C.ar      10 UNK        -0.0712 
     12 C12        19.7618  -30.7127  -44.5427 C.ar      10 UNK        -0.0894 
     13 C13        19.4675  -30.2010  -45.8090 C.ar      10 UNK        -0.0745 
     14 C14        18.2073  -29.6474  -46.0472 C.ar      10 UNK        -0.0972 
     15 C15        20.5057  -30.2606  -46.9225 C.3       10 UNK         0.0209 
     16 S16        20.9585  -28.6104  -47.5504 S.3       10 UNK        -0.2568 
     17 C17        21.7036  -27.8493  -46.0697 C.3       10 UNK        -0.0983 
     18 CA         21.7395  -26.3026  -46.1418 C.3       3 UNK         0.0876 
     19 N          20.4098  -25.7368  -46.3937 N.am      3 UNK        -0.4424 
     20 C          20.1679  -24.5042  -46.8586 C.2       2 UNK         0.4918 
     21 O          21.0505  -23.7126  -47.1898 O.2       2 UNK        -0.4875 
     22 CA         18.6919  -24.0666  -46.9444 C.3       2 UNK         0.0481 
     23 CB         18.1709  -24.2315  -48.3806 C.3       2 UNK        -0.1831 
     24 N          17.7921  -24.7747  -46.0244 N.am      2 UNK        -0.4498 
     25 C          17.8867  -24.7964  -44.6877 C.2       1 UNK         0.5027 
     26 O          18.7755  -24.2048  -44.0718 O.2       1 UNK        -0.4969 
     27 C          22.4063  -25.7300  -44.8688 C.2       3 UNK         0.5005 
     28 O          23.6021  -25.9579  -44.6767 O.2       3 UNK        -0.5279 
     29 N          21.6402  -25.0195  -44.0228 N.am      4 UNK        -0.4463 
     30 CA         22.0249  -24.4821  -42.7144 C.3       4 UNK         0.0283 
     31 CB         23.1153  -23.3946  -42.8538 C.3       4 UNK        -0.1875 
     32 C          22.3658  -25.6115  -41.7224 C.2       4 UNK         0.4949 
     33 O          21.6677  -26.6273  -41.7053 O.2       4 UNK        -0.5039 
     34 N          23.4078  -25.4273  -40.9012 N.am      5 UNK        -0.4663 
     35 CA         23.8679  -26.3714  -39.8777 C.3       5 UNK         0.0242 
     36 CB         24.7532  -25.6147  -38.8697 C.3       5 UNK        -0.1982 
     37 C          24.5776  -27.6015  -40.4805 C.2       5 UNK         0.5017 
     38 O          25.7671  -27.8157  -40.2358 O.2       5 UNK        -0.5012 
     39 N          23.8329  -28.3932  -41.2606 N.am      6 UNK        -0.4439 
     40 CA         24.2611  -29.6238  -41.9311 C.3       6 UNK         0.0297 
     41 CB         23.2750  -29.9223  -43.0749 C.3       6 UNK        -0.2006 
     42 C          24.4136  -30.8088  -40.9542 C.2       6 UNK         0.4892 
     43 O          23.7539  -31.8379  -41.1195 O.2       6 UNK        -0.5089 
     44 N          25.2793  -30.6316  -39.9460 N.am      7 UNK        -0.4243 
     45 CA         25.5874  -31.5632  -38.8567 C.3       7 UNK         0.0196 
     46 CB         26.4176  -32.7535  -39.3920 C.3       7 UNK        -0.2007 
     47 C          24.3165  -31.9674  -38.0817 C.2       7 UNK         0.5020 
     48 O          23.5709  -31.0879  -37.6475 O.2       7 UNK        -0.5147 
     49 N          24.0829  -33.2761  -37.9333 N.am      8 UNK        -0.4734 
     50 CA         22.8909  -33.8546  -37.3074 C.3       8 UNK         0.0238 
     51 CB         23.3051  -35.1399  -36.5677 C.3       8 UNK        -0.1912 
     52 C          21.7597  -34.1411  -38.3162 C.2       8 UNK         0.5038 
     53 O          20.7561  -34.7378  -37.9221 O.2       8 UNK        -0.5046 
     54 N          21.9306  -33.7402  -39.5854 N.am      9 UNK        -0.4200 
     55 CA         21.0532  -34.0694  -40.7188 C.3       9 UNK         0.0839 
     56 C          21.1054  -35.5810  -41.1055 C.2       9 UNK         0.5513 
     57 N          20.1663  -36.0635  -41.9073 N.am      9 UNK        -0.7519 
     58 O          22.0143  -36.3166  -40.7236 O.2       9 UNK        -0.4960 
     59 C59        19.6134  -33.4962  -40.5407 C.3       10 UNK        -0.0876 
     60 S60        18.8343  -33.0470  -42.1284 S.3       10 UNK        -0.2414 
     61 C61        19.1396  -31.2577  -42.1580 C.3       10 UNK         0.0169 
     62 H62        18.0042  -28.5041  -40.9234 H         1 UNK         0.0903 
     63 H63        19.3394  -28.2402  -42.0642 H         1 UNK         0.0903 
     64 H64        19.3514  -27.4483  -40.4938 H         1 UNK         0.0903 
     65 H65        17.7497  -27.5220  -43.6933 H         1 UNK         0.3096 
     66 H66        16.4247  -24.9208  -43.1844 H         1 UNK         0.1121 
     67 H67        15.0755  -25.3359  -45.1242 H         1 UNK         0.0849 
     68 H68        14.9355  -26.6533  -44.0186 H         1 UNK         0.0849 
     69 H69        15.2733  -28.9310  -44.4009 H         1 UNK         0.0865 
     70 H70        15.3475  -29.6453  -45.9894 H         1 UNK         0.0865 
     71 H71        16.8179  -30.0711  -42.9766 H         1 UNK         0.1346 
     72 H72        20.7285  -31.1584  -44.3529 H         1 UNK         0.1412 
     73 H73        17.9745  -29.2623  -47.0310 H         1 UNK         0.1426 
     74 H74        20.1066  -30.8535  -47.7465 H         1 UNK         0.0716 
     75 H75        21.4106  -30.7698  -46.5869 H         1 UNK         0.0716 
     76 H76        21.1554  -28.1683  -45.1816 H         1 UNK         0.0695 
     77 H77        22.7137  -28.2504  -45.9701 H         1 UNK         0.0695 
     78 H78        22.3824  -26.0232  -46.9796 H         1 UNK         0.0983 
     79 H79        19.6249  -26.3352  -46.1840 H         1 UNK         0.3095 
     80 H80        18.6529  -23.0065  -46.6864 H         1 UNK         0.0454 
     81 H81        18.1567  -25.2784  -48.6868 H         1 UNK         0.0851 
     82 H82        18.8014  -23.6932  -49.0898 H         1 UNK         0.0851 
     83 H83        17.1603  -23.8366  -48.4854 H         1 UNK         0.0851 
     84 H84        17.0582  -25.3318  -46.4451 H         1 UNK         0.2976 
     85 H85        20.6595  -24.8932  -44.2531 H         1 UNK         0.3116 
     86 H86        21.1299  -23.9995  -42.3189 H         1 UNK         0.0646 
     87 H87        24.0756  -23.8097  -43.1619 H         1 UNK         0.0847 
     88 H88        23.2681  -22.8626  -41.9141 H         1 UNK         0.0847 
     89 H89        22.8283  -22.6475  -43.5939 H         1 UNK         0.0847 
     90 H90        23.9493  -24.5814  -41.0041 H         1 UNK         0.3040 
     91 H91        22.9954  -26.7431  -39.3351 H         1 UNK         0.1015 
     92 H92        25.0894  -26.2770  -38.0705 H         1 UNK         0.0786 
     93 H93        24.2088  -24.7955  -38.3995 H         1 UNK         0.0786 
     94 H94        25.6428  -25.1986  -39.3443 H         1 UNK         0.0786 
     95 H95        22.8783  -28.0867  -41.4319 H         1 UNK         0.3172 
     96 H96        25.2422  -29.4479  -42.3768 H         1 UNK         0.0595 
     97 H97        23.5679  -30.8168  -43.6260 H         1 UNK         0.0839 
     98 H98        23.2416  -29.0988  -43.7872 H         1 UNK         0.0839 
     99 H99        22.2641  -30.0822  -42.7003 H         1 UNK         0.0839 
    100 H100       25.7182  -29.7167  -39.8859 H         1 UNK         0.2998 
    101 H101       26.2109  -31.0147  -38.1490 H         1 UNK         0.0822 
    102 H102       26.7509  -33.4035  -38.5818 H         1 UNK         0.0787 
    103 H103       25.8572  -33.3612  -40.1039 H         1 UNK         0.0787 
    104 H104       27.3154  -32.4022  -39.9009 H         1 UNK         0.0787 
    105 H105       24.7410  -33.9274  -38.3383 H         1 UNK         0.3055 
    106 H106       22.4884  -33.1553  -36.5709 H         1 UNK         0.1106 
    107 H107       22.4623  -35.5711  -36.0255 H         1 UNK         0.0828 
    108 H108       23.6722  -35.9015  -37.2568 H         1 UNK         0.0828 
    109 H109       24.0882  -34.9423  -35.8355 H         1 UNK         0.0828 
    110 H110       22.7767  -33.2401  -39.8326 H         1 UNK         0.2931 
    111 H111       21.5189  -33.5502  -41.5573 H         1 UNK         0.0412 
    112 H112       19.4330  -35.4588  -42.2485 H         1 UNK         0.3472 
    113 H113       20.1946  -37.0334  -42.1806 H         1 UNK         0.3472 
    114 H114       19.6350  -32.6062  -39.9098 H         1 UNK         0.0970 
    115 H115       18.9726  -34.2056  -40.0137 H         1 UNK         0.0970 
    116 H116       18.5416  -30.7843  -41.3791 H         1 UNK         0.0612 
    117 H117       20.1844  -31.0615  -41.9128 H         1 UNK         0.0612 
@<TRIPOS>BOND
     1    1    2 1    
     2    1   62 1    
     3    1   63 1    
     4    1   64 1    
     5    2    3 2    
     6    2    4 am   BACKBONE|DICT|INTERRES
     7    4    5 1    
     8    4   65 1    
     9    5    6 1    
    10    5   25 1    
    11    5   66 1    
    12    6    7 1    
    13    6   67 1    
    14    6   68 1    
    15    7    8 1    
    16    8    9 1    
    17    8   69 1    
    18    8   70 1    
    19    9   10 ar   
    20    9   14 ar   
    21   10   11 ar   
    22   10   71 1    
    23   11   12 ar   
    24   11   61 1    
    25   12   13 ar   
    26   12   72 1    
    27   13   14 ar   
    28   13   15 1    
    29   14   73 1    
    30   15   16 1    
    31   15   74 1    
    32   15   75 1    
    33   16   17 1    
    34   17   18 1    
    35   17   76 1    
    36   17   77 1    
    37   18   19 1    
    38   18   27 1    
    39   18   78 1    
    40   19   20 am   BACKBONE|DICT|INTERRES
    41   19   79 1    
    42   20   21 2    
    43   20   22 1    
    44   22   23 1    
    45   22   24 1    
    46   22   80 1    
    47   23   81 1    
    48   23   82 1    
    49   23   83 1    
    50   24   25 am   BACKBONE|DICT|INTERRES
    51   24   84 1    
    52   25   26 2    
    53   27   28 2    
    54   27   29 am   BACKBONE|DICT|INTERRES
    55   29   30 1    
    56   29   85 1    
    57   30   31 1    
    58   30   32 1    
    59   30   86 1    
    60   31   87 1    
    61   31   88 1    
    62   31   89 1    
    63   32   33 2    
    64   32   34 am   BACKBONE|DICT|INTERRES
    65   34   35 1    
    66   34   90 1    
    67   35   36 1    
    68   35   37 1    
    69   35   91 1    
    70   36   92 1    
    71   36   93 1    
    72   36   94 1    
    73   37   38 2    
    74   37   39 am   BACKBONE|DICT|INTERRES
    75   39   40 1    
    76   39   95 1    
    77   40   41 1    
    78   40   42 1    
    79   40   96 1    
    80   41   97 1    
    81   41   98 1    
    82   41   99 1    
    83   42   43 2    
    84   42   44 am   BACKBONE|DICT|INTERRES
    85   44   45 1    
    86   44  100 1    
    87   45   46 1    
    88   45   47 1    
    89   45  101 1    
    90   46  102 1    
    91   46  103 1    
    92   46  104 1    
    93   47   48 2    
    94   47   49 am   BACKBONE|DICT|INTERRES
    95   49   50 1    
    96   49  105 1    
    97   50   51 1    
    98   50   52 1    
    99   50  106 1    
   100   51  107 1    
   101   51  108 1    
   102   51  109 1    
   103   52   53 2    
   104   52   54 am   BACKBONE|DICT|INTERRES
   105   54   55 1    
   106   54  110 1    
   107   55   56 1    
   108   55   59 1    
   109   55  111 1    
   110   56   57 am   BACKBONE|DICT|INTERRES
   111   56   58 2    
   112   57  112 1    
   113   57  113 1    
   114   59   60 1    
   115   59  114 1    
   116   59  115 1    
   117   60   61 1    
   118   61  116 1    
   119   61  117 1    
@<TRIPOS>SUBSTRUCTURE
     1 UNK         1 GROUP             0       ****    0 ROOT    
