@<TRIPOS>MOLECULE
3R8
117   119    1
SMALL
USER_CHARGES


@<TRIPOS>ATOM
      1 CA         11.3841  -24.7175  -44.9154 C.3       0 UNK        -0.2013 
      2 C          12.8418  -24.8006  -45.3432 C.2       0 UNK         0.4866 
      3 O          13.3113  -23.9424  -46.0910 O.2       0 UNK        -0.5176 
      4 N          13.5615  -25.8244  -44.8753 N.am      1 UNK        -0.4884 
      5 CA         14.9761  -26.0609  -45.1507 C.3       1 UNK         0.0853 
      6 C6         15.1792  -26.7618  -46.5221 C.3       10 UNK        -0.0849 
      7 S7         16.9304  -27.0593  -46.9509 S.3       10 UNK        -0.2776 
      8 C8         17.0591  -28.8460  -46.5790 C.3       10 UNK         0.0316 
      9 C9         18.4564  -29.3664  -46.2357 C.ar      10 UNK        -0.0863 
     10 C10        18.5694  -30.6951  -45.8136 C.ar      10 UNK        -0.1009 
     11 C11        19.8105  -31.2395  -45.4737 C.ar      10 UNK        -0.0712 
     12 C12        20.9554  -30.4453  -45.5626 C.ar      10 UNK        -0.0894 
     13 C13        20.8621  -29.1125  -45.9686 C.ar      10 UNK        -0.0745 
     14 C14        19.6152  -28.5805  -46.3122 C.ar      10 UNK        -0.0972 
     15 C15        22.1120  -28.2486  -46.0372 C.3       10 UNK         0.0209 
     16 S16        22.1254  -26.9483  -44.7624 S.3       10 UNK        -0.2568 
     17 C17        22.2391  -27.9020  -43.2120 C.3       10 UNK        -0.0983 
     18 CA         21.3949  -27.2669  -42.0717 C.3       3 UNK         0.0876 
     19 N          19.9704  -27.5778  -42.1787 N.am      3 UNK        -0.4424 
     20 C          19.0384  -26.7987  -42.7307 C.2       2 UNK         0.4918 
     21 O          19.2719  -25.7267  -43.2961 O.2       2 UNK        -0.4875 
     22 CA         17.5871  -27.2764  -42.5880 C.3       2 UNK         0.0481 
     23 CB         17.0502  -26.9740  -41.1749 C.3       2 UNK        -0.1831 
     24 N          16.7909  -26.5928  -43.6018 N.am      2 UNK        -0.4498 
     25 C          15.5368  -26.8722  -43.9686 C.2       1 UNK         0.5027 
     26 O          14.8340  -27.7371  -43.4378 O.2       1 UNK        -0.4969 
     27 C          21.8696  -27.7556  -40.6925 C.2       3 UNK         0.5005 
     28 O          21.1629  -28.5259  -40.0317 O.2       3 UNK        -0.5279 
     29 N          23.0692  -27.3115  -40.2995 N.am      4 UNK        -0.4463 
     30 CA         23.7723  -27.7662  -39.1001 C.3       4 UNK         0.0283 
     31 CB         23.6265  -26.7319  -37.9709 C.3       4 UNK        -0.1875 
     32 C          25.2466  -28.0549  -39.4108 C.2       4 UNK         0.4949 
     33 O          25.7425  -29.1182  -39.0402 O.2       4 UNK        -0.5039 
     34 N          25.9240  -27.1097  -40.0818 N.am      5 UNK        -0.4663 
     35 CA         27.3533  -27.1983  -40.4012 C.3       5 UNK         0.0242 
     36 CB         27.8805  -25.8061  -40.7869 C.3       5 UNK        -0.1982 
     37 C          27.6762  -28.2235  -41.5010 C.2       5 UNK         0.5017 
     38 O          28.6596  -28.9534  -41.3727 O.2       5 UNK        -0.5012 
     39 N          26.8544  -28.2518  -42.5605 N.am      6 UNK        -0.4439 
     40 CA         27.0011  -29.1699  -43.6962 C.3       6 UNK         0.0297 
     41 CB         26.1473  -28.6729  -44.8749 C.3       6 UNK        -0.2006 
     42 C          26.6313  -30.6171  -43.3300 C.2       6 UNK         0.4892 
     43 O          27.3414  -31.5480  -43.7111 O.2       6 UNK        -0.5089 
     44 N          25.5346  -30.7603  -42.5829 N.am      7 UNK        -0.4243 
     45 CA         24.9779  -31.9894  -42.0344 C.3       7 UNK         0.0196 
     46 CB         24.3613  -32.8573  -43.1472 C.3       7 UNK        -0.2007 
     47 C          23.9092  -31.5495  -41.0324 C.2       7 UNK         0.5020 
     48 O          23.2759  -30.5165  -41.2562 O.2       7 UNK        -0.5147 
     49 N          23.7081  -32.3228  -39.9600 N.am      8 UNK        -0.4734 
     50 CA         22.7772  -32.0111  -38.8671 C.3       8 UNK         0.0238 
     51 CB         23.2461  -32.7376  -37.5922 C.3       8 UNK        -0.1912 
     52 C          21.3085  -32.3202  -39.2239 C.2       8 UNK         0.5038 
     53 O          20.6477  -33.0802  -38.5124 O.2       8 UNK        -0.5046 
     54 N          20.8355  -31.7483  -40.3347 N.am      9 UNK        -0.4200 
     55 CA         19.4768  -31.9289  -40.8647 C.3       9 UNK         0.0839 
     56 C          18.4006  -31.0737  -40.1420 C.2       9 UNK         0.5513 
     57 N          18.7558  -29.9775  -39.4829 N.am      9 UNK        -0.7519 
     58 O          17.2223  -31.4173  -40.1761 O.2       9 UNK        -0.4960 
     59 C59        19.4249  -31.7000  -42.3945 C.3       10 UNK        -0.0876 
     60 S60        20.5632  -32.8028  -43.3001 S.3       10 UNK        -0.2414 
     61 C61        19.9108  -32.6817  -44.9957 C.3       10 UNK         0.0169 
     62 H62        11.2014  -23.7839  -44.3841 H         1 UNK         0.0903 
     63 H63        10.7345  -24.7450  -45.7898 H         1 UNK         0.0903 
     64 H64        11.1040  -25.5415  -44.2594 H         1 UNK         0.0903 
     65 H65        13.1550  -26.4950  -44.2331 H         1 UNK         0.3096 
     66 H66        15.4897  -25.0964  -45.1685 H         1 UNK         0.1121 
     67 H67        14.7568  -26.1394  -47.3124 H         1 UNK         0.0849 
     68 H68        14.6212  -27.6993  -46.5608 H         1 UNK         0.0849 
     69 H69        16.4039  -29.0812  -45.7392 H         1 UNK         0.0865 
     70 H70        16.6739  -29.4037  -47.4338 H         1 UNK         0.0865 
     71 H71        17.6815  -31.3092  -45.7436 H         1 UNK         0.1346 
     72 H72        21.9157  -30.8632  -45.2926 H         1 UNK         0.1412 
     73 H73        19.5645  -27.5475  -46.6249 H         1 UNK         0.1426 
     74 H74        22.1660  -27.7776  -47.0196 H         1 UNK         0.0716 
     75 H75        23.0129  -28.8560  -45.9401 H         1 UNK         0.0716 
     76 H76        23.2983  -27.9397  -42.9535 H         1 UNK         0.0695 
     77 H77        21.9390  -28.9384  -43.3727 H         1 UNK         0.0695 
     78 H78        21.5277  -26.1824  -42.0788 H         1 UNK         0.0983 
     79 H79        19.6926  -28.3834  -41.6345 H         1 UNK         0.3095 
     80 H80        17.5531  -28.3514  -42.7777 H         1 UNK         0.0454 
     81 H81        17.0175  -25.9015  -40.9798 H         1 UNK         0.0851 
     82 H82        17.6809  -27.4242  -40.4080 H         1 UNK         0.0851 
     83 H83        16.0454  -27.3711  -41.0328 H         1 UNK         0.0851 
     84 H84        17.3169  -25.8876  -44.1060 H         1 UNK         0.2976 
     85 H85        23.5790  -26.6992  -40.9184 H         1 UNK         0.3116 
     86 H86        23.3370  -28.7042  -38.7526 H         1 UNK         0.0646 
     87 H87        24.0181  -25.7554  -38.2573 H         1 UNK         0.0847 
     88 H88        24.1641  -27.0516  -37.0772 H         1 UNK         0.0847 
     89 H89        22.5811  -26.6028  -37.6901 H         1 UNK         0.0847 
     90 H90        25.4698  -26.2350  -40.2976 H         1 UNK         0.3040 
     91 H91        27.8809  -27.5169  -39.4986 H         1 UNK         0.1015 
     92 H92        27.3753  -25.4080  -41.6677 H         1 UNK         0.0786 
     93 H93        28.9474  -25.8425  -41.0128 H         1 UNK         0.0786 
     94 H94        27.7495  -25.0928  -39.9729 H         1 UNK         0.0786 
     95 H95        26.0855  -27.5995  -42.5869 H         1 UNK         0.3172 
     96 H96        28.0473  -29.1615  -44.0102 H         1 UNK         0.0595 
     97 H97        26.2483  -29.3358  -45.7354 H         1 UNK         0.0839 
     98 H98        26.4551  -27.6780  -45.1972 H         1 UNK         0.0839 
     99 H99        25.0881  -28.6303  -44.6207 H         1 UNK         0.0839 
    100 H100       25.0149  -29.9381  -42.3019 H         1 UNK         0.2998 
    101 H101       25.7649  -32.5391  -41.5143 H         1 UNK         0.0822 
    102 H102       23.8752  -33.7408  -42.7314 H         1 UNK         0.0787 
    103 H103       23.6081  -32.3063  -43.7120 H         1 UNK         0.0787 
    104 H104       25.1176  -33.2054  -43.8505 H         1 UNK         0.0787 
    105 H105       24.2347  -33.1804  -39.8710 H         1 UNK         0.3055 
    106 H106       22.8236  -30.9393  -38.6666 H         1 UNK         0.1106 
    107 H107       22.6065  -32.4913  -36.7435 H         1 UNK         0.0828 
    108 H108       23.2253  -33.8214  -37.7132 H         1 UNK         0.0828 
    109 H109       24.2618  -32.4479  -37.3219 H         1 UNK         0.0828 
    110 H110       21.4573  -31.1339  -40.8514 H         1 UNK         0.2931 
    111 H111       19.1968  -32.9704  -40.6929 H         1 UNK         0.0412 
    112 H112       19.7180  -29.6494  -39.4927 H         1 UNK         0.3472 
    113 H113       18.0517  -29.4499  -38.9933 H         1 UNK         0.3472 
    114 H114       19.6783  -30.6663  -42.6370 H         1 UNK         0.0970 
    115 H115       18.4132  -31.8669  -42.7700 H         1 UNK         0.0970 
    116 H116       18.9382  -33.1746  -45.0338 H         1 UNK         0.0612 
    117 H117       20.5663  -33.2374  -45.6674 H         1 UNK         0.0612 
@<TRIPOS>BOND
     1    1    2 1    
     2    1   62 1    
     3    1   63 1    
     4    1   64 1    
     5    2    3 2    
     6    2    4 am   BACKBONE|DICT|INTERRES
     7    4    5 1    
     8    4   65 1    
     9    5    6 1    
    10    5   25 1    
    11    5   66 1    
    12    6    7 1    
    13    6   67 1    
    14    6   68 1    
    15    7    8 1    
    16    8    9 1    
    17    8   69 1    
    18    8   70 1    
    19    9   10 ar   
    20    9   14 ar   
    21   10   11 ar   
    22   10   71 1    
    23   11   12 ar   
    24   11   61 1    
    25   12   13 ar   
    26   12   72 1    
    27   13   14 ar   
    28   13   15 1    
    29   14   73 1    
    30   15   16 1    
    31   15   74 1    
    32   15   75 1    
    33   16   17 1    
    34   17   18 1    
    35   17   76 1    
    36   17   77 1    
    37   18   19 1    
    38   18   27 1    
    39   18   78 1    
    40   19   20 am   BACKBONE|DICT|INTERRES
    41   19   79 1    
    42   20   21 2    
    43   20   22 1    
    44   22   23 1    
    45   22   24 1    
    46   22   80 1    
    47   23   81 1    
    48   23   82 1    
    49   23   83 1    
    50   24   25 am   BACKBONE|DICT|INTERRES
    51   24   84 1    
    52   25   26 2    
    53   27   28 2    
    54   27   29 am   BACKBONE|DICT|INTERRES
    55   29   30 1    
    56   29   85 1    
    57   30   31 1    
    58   30   32 1    
    59   30   86 1    
    60   31   87 1    
    61   31   88 1    
    62   31   89 1    
    63   32   33 2    
    64   32   34 am   BACKBONE|DICT|INTERRES
    65   34   35 1    
    66   34   90 1    
    67   35   36 1    
    68   35   37 1    
    69   35   91 1    
    70   36   92 1    
    71   36   93 1    
    72   36   94 1    
    73   37   38 2    
    74   37   39 am   BACKBONE|DICT|INTERRES
    75   39   40 1    
    76   39   95 1    
    77   40   41 1    
    78   40   42 1    
    79   40   96 1    
    80   41   97 1    
    81   41   98 1    
    82   41   99 1    
    83   42   43 2    
    84   42   44 am   BACKBONE|DICT|INTERRES
    85   44   45 1    
    86   44  100 1    
    87   45   46 1    
    88   45   47 1    
    89   45  101 1    
    90   46  102 1    
    91   46  103 1    
    92   46  104 1    
    93   47   48 2    
    94   47   49 am   BACKBONE|DICT|INTERRES
    95   49   50 1    
    96   49  105 1    
    97   50   51 1    
    98   50   52 1    
    99   50  106 1    
   100   51  107 1    
   101   51  108 1    
   102   51  109 1    
   103   52   53 2    
   104   52   54 am   BACKBONE|DICT|INTERRES
   105   54   55 1    
   106   54  110 1    
   107   55   56 1    
   108   55   59 1    
   109   55  111 1    
   110   56   57 am   BACKBONE|DICT|INTERRES
   111   56   58 2    
   112   57  112 1    
   113   57  113 1    
   114   59   60 1    
   115   59  114 1    
   116   59  115 1    
   117   60   61 1    
   118   61  116 1    
   119   61  117 1    
@<TRIPOS>SUBSTRUCTURE
     1 UNK         1 GROUP             0       ****    0 ROOT    
