@<TRIPOS>MOLECULE
3R8
117   119    1
SMALL
USER_CHARGES


@<TRIPOS>ATOM
      1 CA         14.5912  -23.6429  -40.8280 C.3       0 UNK        -0.2013 
      2 C          15.1569  -24.2248  -42.1148 C.2       0 UNK         0.4866 
      3 O          14.5000  -24.1650  -43.1548 O.2       0 UNK        -0.5176 
      4 N          16.3661  -24.7955  -42.0518 N.am      1 UNK        -0.4884 
      5 CA         17.0864  -25.3663  -43.1943 C.3       1 UNK         0.0853 
      6 C6         18.2804  -26.2417  -42.7378 C.3       10 UNK        -0.0849 
      7 S7         17.7551  -27.7105  -41.7851 S.3       10 UNK        -0.2776 
      8 C8         17.3155  -28.9037  -43.0939 C.3       10 UNK         0.0316 
      9 C9         18.5356  -29.5442  -43.7425 C.ar      10 UNK        -0.0863 
     10 C10        19.0388  -30.7578  -43.2652 C.ar      10 UNK        -0.1009 
     11 C11        20.1430  -31.3576  -43.8787 C.ar      10 UNK        -0.0712 
     12 C12        20.7523  -30.7301  -44.9704 C.ar      10 UNK        -0.0894 
     13 C13        20.2627  -29.5140  -45.4583 C.ar      10 UNK        -0.0745 
     14 C14        19.1478  -28.9359  -44.8404 C.ar      10 UNK        -0.0972 
     15 C15        20.9822  -28.8173  -46.6121 C.3       10 UNK         0.0209 
     16 S16        19.8751  -27.8474  -47.6951 S.3       10 UNK        -0.2568 
     17 C17        20.9635  -26.4741  -48.2149 C.3       10 UNK        -0.0983 
     18 CA         20.8420  -25.1777  -47.3632 C.3       3 UNK         0.0876 
     19 N          19.4478  -24.7915  -47.1387 N.am      3 UNK        -0.4424 
     20 C          19.0217  -23.5429  -46.9146 C.2       2 UNK         0.4918 
     21 O          19.7306  -22.5415  -47.0214 O.2       2 UNK        -0.4875 
     22 CA         17.5542  -23.3935  -46.4813 C.3       2 UNK         0.0481 
     23 CB         16.6102  -23.5475  -47.6852 C.3       2 UNK        -0.1831 
     24 N          17.1849  -24.3525  -45.4348 N.am      2 UNK        -0.4498 
     25 C          17.5549  -24.2477  -44.1490 C.2       1 UNK         0.5027 
     26 O          18.2266  -23.3151  -43.7003 O.2       1 UNK        -0.4969 
     27 C          21.5824  -25.2906  -46.0141 C.2       3 UNK         0.5005 
     28 O          20.9450  -25.4336  -44.9668 O.2       3 UNK        -0.5279 
     29 N          22.9206  -25.2410  -46.0637 N.am      4 UNK        -0.4463 
     30 CA         23.8022  -25.4195  -44.9091 C.3       4 UNK         0.0283 
     31 CB         25.2246  -24.9622  -45.2776 C.3       4 UNK        -0.1875 
     32 C          23.7839  -26.8824  -44.4346 C.2       4 UNK         0.4949 
     33 O          24.4246  -27.7333  -45.0549 O.2       4 UNK        -0.5039 
     34 N          23.0156  -27.1492  -43.3736 N.am      5 UNK        -0.4663 
     35 CA         22.8725  -28.4679  -42.7577 C.3       5 UNK         0.0242 
     36 CB         21.6640  -28.4425  -41.8089 C.3       5 UNK        -0.1982 
     37 C          24.1416  -28.8949  -42.0023 C.2       5 UNK         0.5017 
     38 O          24.8642  -28.0432  -41.4769 O.2       5 UNK        -0.5012 
     39 N          24.3615  -30.2115  -41.9335 N.am      6 UNK        -0.4439 
     40 CA         25.3966  -30.8423  -41.1158 C.3       6 UNK         0.0297 
     41 CB         25.8531  -32.1375  -41.8085 C.3       6 UNK        -0.2006 
     42 C          24.8634  -31.1200  -39.6991 C.2       6 UNK         0.4892 
     43 O          23.6625  -30.9861  -39.4491 O.2       6 UNK        -0.5089 
     44 N          25.7726  -31.5022  -38.7933 N.am      7 UNK        -0.4243 
     45 CA         25.4900  -31.8084  -37.3894 C.3       7 UNK         0.0196 
     46 CB         26.8160  -32.0642  -36.6514 C.3       7 UNK        -0.2007 
     47 C          24.5209  -32.9952  -37.2317 C.2       7 UNK         0.5020 
     48 O          24.9372  -34.1456  -37.3780 O.2       7 UNK        -0.5147 
     49 N          23.2516  -32.6771  -36.9406 N.am      8 UNK        -0.4734 
     50 CA         22.1330  -33.5938  -36.6844 C.3       8 UNK         0.0238 
     51 CB         22.3549  -34.3546  -35.3585 C.3       8 UNK        -0.1912 
     52 C          21.7953  -34.5325  -37.8621 C.2       8 UNK         0.5038 
     53 O          21.3966  -35.6761  -37.6283 O.2       8 UNK        -0.5046 
     54 N          21.9476  -34.0447  -39.1020 N.am      9 UNK        -0.4200 
     55 CA         21.5475  -34.7693  -40.3191 C.3       9 UNK         0.0839 
     56 C          20.0062  -34.9143  -40.4775 C.2       9 UNK         0.5513 
     57 N          19.5570  -35.8682  -41.2824 N.am      9 UNK        -0.7519 
     58 O          19.2180  -34.1640  -39.9047 O.2       9 UNK        -0.4960 
     59 C59        22.2301  -34.2014  -41.5913 C.3       10 UNK        -0.0876 
     60 S60        21.8146  -32.4649  -41.9785 S.3       10 UNK        -0.2414 
     61 C61        20.6664  -32.6906  -43.3691 C.3       10 UNK         0.0169 
     62 H62        15.2705  -23.7767  -39.9862 H         1 UNK         0.0903 
     63 H63        14.4066  -22.5758  -40.9484 H         1 UNK         0.0903 
     64 H64        13.6465  -24.1267  -40.5810 H         1 UNK         0.0903 
     65 H65        16.8644  -24.8124  -41.1733 H         1 UNK         0.3096 
     66 H66        16.3859  -26.0033  -43.7382 H         1 UNK         0.1121 
     67 H67        18.8894  -26.5537  -43.5837 H         1 UNK         0.0849 
     68 H68        18.9546  -25.6578  -42.1081 H         1 UNK         0.0849 
     69 H69        16.6874  -29.6800  -42.6544 H         1 UNK         0.0865 
     70 H70        16.6975  -28.4175  -43.8497 H         1 UNK         0.0865 
     71 H71        18.5711  -31.2393  -42.4170 H         1 UNK         0.1346 
     72 H72        21.6154  -31.1868  -45.4353 H         1 UNK         0.1412 
     73 H73        18.7557  -28.0011  -45.2112 H         1 UNK         0.1426 
     74 H74        21.5108  -29.5462  -47.2282 H         1 UNK         0.0716 
     75 H75        21.7432  -28.1684  -46.1817 H         1 UNK         0.0716 
     76 H76        21.9964  -26.8235  -48.2675 H         1 UNK         0.0695 
     77 H77        20.6927  -26.2369  -49.2448 H         1 UNK         0.0695 
     78 H78        21.3290  -24.3747  -47.9217 H         1 UNK         0.0983 
     79 H79        18.8090  -25.5587  -46.9950 H         1 UNK         0.3095 
     80 H80        17.4236  -22.3844  -46.0842 H         1 UNK         0.0454 
     81 H81        16.8608  -22.8320  -48.4696 H         1 UNK         0.0851 
     82 H82        16.6658  -24.5441  -48.1249 H         1 UNK         0.0851 
     83 H83        15.5738  -23.3633  -47.4017 H         1 UNK         0.0851 
     84 H84        16.6053  -25.1299  -45.7172 H         1 UNK         0.2976 
     85 H85        23.3741  -25.1496  -46.9617 H         1 UNK         0.3116 
     86 H86        23.4469  -24.7803  -44.0976 H         1 UNK         0.0646 
     87 H87        25.9043  -25.0932  -44.4345 H         1 UNK         0.0847 
     88 H88        25.2453  -23.9063  -45.5478 H         1 UNK         0.0847 
     89 H89        25.6325  -25.5311  -46.1142 H         1 UNK         0.0847 
     90 H90        22.4951  -26.3932  -42.9523 H         1 UNK         0.3040 
     91 H91        22.6791  -29.1918  -43.5516 H         1 UNK         0.1015 
     92 H92        20.7527  -28.1710  -42.3408 H         1 UNK         0.0786 
     93 H93        21.8031  -27.7323  -40.9930 H         1 UNK         0.0786 
     94 H94        21.4943  -29.4233  -41.3627 H         1 UNK         0.0786 
     95 H95        23.6531  -30.8346  -42.2983 H         1 UNK         0.3172 
     96 H96        26.2567  -30.1745  -41.0313 H         1 UNK         0.0595 
     97 H97        26.2561  -31.9316  -42.8003 H         1 UNK         0.0839 
     98 H98        25.0341  -32.8451  -41.9253 H         1 UNK         0.0839 
     99 H99        26.6388  -32.6388  -41.2423 H         1 UNK         0.0839 
    100 H100       26.7321  -31.6092  -39.0889 H         1 UNK         0.2998 
    101 H101       25.0304  -30.9236  -36.9434 H         1 UNK         0.0822 
    102 H102       27.4630  -31.1872  -36.6804 H         1 UNK         0.0787 
    103 H103       26.6377  -32.2991  -35.6011 H         1 UNK         0.0787 
    104 H104       27.3658  -32.9017  -37.0831 H         1 UNK         0.0787 
    105 H105       23.0145  -31.6937  -36.9212 H         1 UNK         0.3055 
    106 H106       21.2499  -32.9659  -36.5541 H         1 UNK         0.1106 
    107 H107       23.1895  -35.0531  -35.4283 H         1 UNK         0.0828 
    108 H108       22.5589  -33.6692  -34.5359 H         1 UNK         0.0828 
    109 H109       21.4710  -34.9313  -35.0830 H         1 UNK         0.0828 
    110 H110       22.2622  -33.0915  -39.2258 H         1 UNK         0.2931 
    111 H111       21.9306  -35.7854  -40.2013 H         1 UNK         0.0412 
    112 H112       18.5620  -35.9753  -41.4057 H         1 UNK         0.3472 
    113 H113       20.1889  -36.4951  -41.7558 H         1 UNK         0.3472 
    114 H114       22.0091  -34.8317  -42.4544 H         1 UNK         0.0970 
    115 H115       23.3104  -34.2681  -41.4663 H         1 UNK         0.0970 
    116 H116       21.1719  -33.2291  -44.1722 H         1 UNK         0.0612 
    117 H117       19.8309  -33.3172  -43.0539 H         1 UNK         0.0612 
@<TRIPOS>BOND
     1    1    2 1    
     2    1   62 1    
     3    1   63 1    
     4    1   64 1    
     5    2    3 2    
     6    2    4 am   BACKBONE|DICT|INTERRES
     7    4    5 1    
     8    4   65 1    
     9    5    6 1    
    10    5   25 1    
    11    5   66 1    
    12    6    7 1    
    13    6   67 1    
    14    6   68 1    
    15    7    8 1    
    16    8    9 1    
    17    8   69 1    
    18    8   70 1    
    19    9   10 ar   
    20    9   14 ar   
    21   10   11 ar   
    22   10   71 1    
    23   11   12 ar   
    24   11   61 1    
    25   12   13 ar   
    26   12   72 1    
    27   13   14 ar   
    28   13   15 1    
    29   14   73 1    
    30   15   16 1    
    31   15   74 1    
    32   15   75 1    
    33   16   17 1    
    34   17   18 1    
    35   17   76 1    
    36   17   77 1    
    37   18   19 1    
    38   18   27 1    
    39   18   78 1    
    40   19   20 am   BACKBONE|DICT|INTERRES
    41   19   79 1    
    42   20   21 2    
    43   20   22 1    
    44   22   23 1    
    45   22   24 1    
    46   22   80 1    
    47   23   81 1    
    48   23   82 1    
    49   23   83 1    
    50   24   25 am   BACKBONE|DICT|INTERRES
    51   24   84 1    
    52   25   26 2    
    53   27   28 2    
    54   27   29 am   BACKBONE|DICT|INTERRES
    55   29   30 1    
    56   29   85 1    
    57   30   31 1    
    58   30   32 1    
    59   30   86 1    
    60   31   87 1    
    61   31   88 1    
    62   31   89 1    
    63   32   33 2    
    64   32   34 am   BACKBONE|DICT|INTERRES
    65   34   35 1    
    66   34   90 1    
    67   35   36 1    
    68   35   37 1    
    69   35   91 1    
    70   36   92 1    
    71   36   93 1    
    72   36   94 1    
    73   37   38 2    
    74   37   39 am   BACKBONE|DICT|INTERRES
    75   39   40 1    
    76   39   95 1    
    77   40   41 1    
    78   40   42 1    
    79   40   96 1    
    80   41   97 1    
    81   41   98 1    
    82   41   99 1    
    83   42   43 2    
    84   42   44 am   BACKBONE|DICT|INTERRES
    85   44   45 1    
    86   44  100 1    
    87   45   46 1    
    88   45   47 1    
    89   45  101 1    
    90   46  102 1    
    91   46  103 1    
    92   46  104 1    
    93   47   48 2    
    94   47   49 am   BACKBONE|DICT|INTERRES
    95   49   50 1    
    96   49  105 1    
    97   50   51 1    
    98   50   52 1    
    99   50  106 1    
   100   51  107 1    
   101   51  108 1    
   102   51  109 1    
   103   52   53 2    
   104   52   54 am   BACKBONE|DICT|INTERRES
   105   54   55 1    
   106   54  110 1    
   107   55   56 1    
   108   55   59 1    
   109   55  111 1    
   110   56   57 am   BACKBONE|DICT|INTERRES
   111   56   58 2    
   112   57  112 1    
   113   57  113 1    
   114   59   60 1    
   115   59  114 1    
   116   59  115 1    
   117   60   61 1    
   118   61  116 1    
   119   61  117 1    
@<TRIPOS>SUBSTRUCTURE
     1 UNK         1 GROUP             0       ****    0 ROOT    
