@<TRIPOS>MOLECULE
3R8
117   119    1
SMALL
USER_CHARGES


@<TRIPOS>ATOM
      1 CA         15.3633  -20.8865  -42.9387 C.3       0 UNK        -0.2013 
      2 C          15.6171  -22.0629  -43.8697 C.2       0 UNK         0.4866 
      3 O          15.7638  -21.8678  -45.0768 O.2       0 UNK        -0.5176 
      4 N          15.6620  -23.2835  -43.3209 N.am      1 UNK        -0.4884 
      5 CA         15.9674  -24.5160  -44.0538 C.3       1 UNK         0.0853 
      6 C6         15.5230  -25.7609  -43.2488 C.3       10 UNK        -0.0849 
      7 S7         15.2825  -27.2342  -44.2978 S.3       10 UNK        -0.2776 
      8 C8         15.2290  -28.5588  -43.0473 C.3       10 UNK         0.0316 
      9 C9         16.6103  -29.1396  -42.7774 C.ar      10 UNK        -0.0863 
     10 C10        17.0294  -30.2957  -43.4436 C.ar      10 UNK        -0.1009 
     11 C11        18.2920  -30.8485  -43.2011 C.ar      10 UNK        -0.0712 
     12 C12        19.1407  -30.2210  -42.2801 C.ar      10 UNK        -0.0894 
     13 C13        18.7401  -29.0571  -41.6217 C.ar      10 UNK        -0.0745 
     14 C14        17.4677  -28.5327  -41.8570 C.ar      10 UNK        -0.0972 
     15 C15        19.6884  -28.3491  -40.6709 C.3       10 UNK         0.0209 
     16 S16        20.3912  -26.8599  -41.4448 S.3       10 UNK        -0.2568 
     17 C17        21.5934  -27.5682  -42.6212 C.3       10 UNK        -0.0983 
     18 CA         21.0759  -27.7478  -44.0750 C.3       3 UNK         0.0876 
     19 N          20.4065  -26.5511  -44.5916 N.am      3 UNK        -0.4424 
     20 C          19.7006  -26.5111  -45.7274 C.2       2 UNK         0.4918 
     21 O          19.4641  -27.4988  -46.4260 O.2       2 UNK        -0.4875 
     22 CA         19.1459  -25.1398  -46.1404 C.3       2 UNK         0.0481 
     23 CB         19.1451  -24.9586  -47.6691 C.3       2 UNK        -0.1831 
     24 N          17.7826  -24.9855  -45.6397 N.am      2 UNK        -0.4498 
     25 C          17.4691  -24.5691  -44.4070 C.2       1 UNK         0.5027 
     26 O          18.3060  -24.2381  -43.5623 O.2       1 UNK        -0.4969 
     27 C          22.2536  -28.1391  -44.9938 C.2       3 UNK         0.5005 
     28 O          23.0231  -27.2569  -45.3851 O.2       3 UNK        -0.5279 
     29 N          22.4111  -29.4385  -45.2904 N.am      4 UNK        -0.4463 
     30 CA         23.5645  -29.9624  -46.0395 C.3       4 UNK         0.0283 
     31 CB         23.2620  -31.3823  -46.5402 C.3       4 UNK        -0.1875 
     32 C          24.8656  -29.9419  -45.2134 C.2       4 UNK         0.4949 
     33 O          25.9477  -29.7853  -45.7784 O.2       4 UNK        -0.5039 
     34 N          24.7232  -30.0653  -43.8912 N.am      5 UNK        -0.4663 
     35 CA         25.7401  -29.8538  -42.8699 C.3       5 UNK         0.0242 
     36 CB         26.5400  -31.1432  -42.6262 C.3       5 UNK        -0.1982 
     37 C          24.9790  -29.4228  -41.6133 C.2       5 UNK         0.5017 
     38 O          23.8658  -29.9150  -41.4037 O.2       5 UNK        -0.5012 
     39 N          25.5695  -28.5128  -40.8268 N.am      6 UNK        -0.4439 
     40 CA         24.9589  -27.8425  -39.6718 C.3       6 UNK         0.0297 
     41 CB         26.0172  -26.9774  -38.9671 C.3       6 UNK        -0.2006 
     42 C          24.2975  -28.8118  -38.6767 C.2       6 UNK         0.4892 
     43 O          24.9944  -29.6286  -38.0706 O.2       6 UNK        -0.5089 
     44 N          22.9643  -28.7154  -38.5703 N.am      7 UNK        -0.4243 
     45 CA         22.0332  -29.5257  -37.7706 C.3       7 UNK         0.0196 
     46 CB         22.3311  -29.4008  -36.2635 C.3       7 UNK        -0.2007 
     47 C          21.9285  -31.0056  -38.1893 C.2       7 UNK         0.5020 
     48 O          20.8170  -31.5280  -38.2676 O.2       7 UNK        -0.5147 
     49 N          23.0699  -31.6612  -38.4238 N.am      8 UNK        -0.4734 
     50 CA         23.1810  -33.0948  -38.6992 C.3       8 UNK         0.0238 
     51 CB         24.6418  -33.5285  -38.4948 C.3       8 UNK        -0.1912 
     52 C          22.6939  -33.5137  -40.0955 C.2       8 UNK         0.5038 
     53 O          22.2157  -34.6390  -40.2432 O.2       8 UNK        -0.5046 
     54 N          22.8481  -32.6308  -41.0921 N.am      9 UNK        -0.4200 
     55 CA         22.5687  -32.8872  -42.5161 C.3       9 UNK         0.0839 
     56 C          23.5107  -33.9305  -43.1989 C.2       9 UNK         0.5513 
     57 N          24.6182  -34.3301  -42.5856 N.am      9 UNK        -0.7519 
     58 O          23.2502  -34.3725  -44.3141 O.2       9 UNK        -0.4960 
     59 C59        21.0594  -33.1570  -42.7944 C.3       10 UNK        -0.0876 
     60 S60        20.4696  -32.2918  -44.2916 S.3       10 UNK        -0.2414 
     61 C61        18.6878  -32.1291  -43.9366 C.3       10 UNK         0.0169 
     62 H62        14.4605  -20.3565  -43.2412 H         1 UNK         0.0903 
     63 H63        15.2389  -21.2042  -41.9036 H         1 UNK         0.0903 
     64 H64        16.1989  -20.1883  -42.9808 H         1 UNK         0.0903 
     65 H65        15.5723  -23.3788  -42.3192 H         1 UNK         0.3096 
     66 H66        15.3927  -24.4850  -44.9829 H         1 UNK         0.1121 
     67 H67        16.2278  -25.9719  -42.4448 H         1 UNK         0.0849 
     68 H68        14.5655  -25.5666  -42.7622 H         1 UNK         0.0849 
     69 H69        14.7857  -28.1867  -42.1222 H         1 UNK         0.0865 
     70 H70        14.5602  -29.3444  -43.4024 H         1 UNK         0.0865 
     71 H71        16.3652  -30.7704  -44.1533 H         1 UNK         0.1346 
     72 H72        20.1250  -30.6163  -42.0797 H         1 UNK         0.1412 
     73 H73        17.1589  -27.6414  -41.3305 H         1 UNK         0.1426 
     74 H74        20.4905  -29.0159  -40.3525 H         1 UNK         0.0716 
     75 H75        19.1495  -28.0605  -39.7672 H         1 UNK         0.0716 
     76 H76        22.4689  -26.9155  -42.6028 H         1 UNK         0.0695 
     77 H77        21.9285  -28.5285  -42.2318 H         1 UNK         0.0695 
     78 H78        20.3423  -28.5554  -44.0888 H         1 UNK         0.0983 
     79 H79        20.5157  -25.7072  -44.0475 H         1 UNK         0.3095 
     80 H80        19.7844  -24.3608  -45.7175 H         1 UNK         0.0454 
     81 H81        20.1488  -25.0882  -48.0758 H         1 UNK         0.0851 
     82 H82        18.4968  -25.6809  -48.1668 H         1 UNK         0.0851 
     83 H83        18.8093  -23.9600  -47.9489 H         1 UNK         0.0851 
     84 H84        17.0420  -25.2910  -46.2552 H         1 UNK         0.2976 
     85 H85        21.7286  -30.1131  -44.9698 H         1 UNK         0.3116 
     86 H86        23.7197  -29.3266  -46.9140 H         1 UNK         0.0646 
     87 H87        24.0821  -31.7616  -47.1513 H         1 UNK         0.0847 
     88 H88        22.3621  -31.4065  -47.1549 H         1 UNK         0.0847 
     89 H89        23.1251  -32.0812  -45.7162 H         1 UNK         0.0847 
     90 H90        23.7911  -30.1532  -43.5077 H         1 UNK         0.3040 
     91 H91        26.4095  -29.0512  -43.1878 H         1 UNK         0.1015 
     92 H92        27.0079  -31.5023  -43.5430 H         1 UNK         0.0786 
     93 H93        25.9067  -31.9399  -42.2386 H         1 UNK         0.0786 
     94 H94        27.3348  -30.9764  -41.8983 H         1 UNK         0.0786 
     95 H95        26.5004  -28.2065  -41.0703 H         1 UNK         0.3172 
     96 H96        24.1913  -27.1729  -40.0658 H         1 UNK         0.0595 
     97 H97        26.4192  -26.2146  -39.6342 H         1 UNK         0.0839 
     98 H98        26.8507  -27.5785  -38.6011 H         1 UNK         0.0839 
     99 H99        25.5889  -26.4595  -38.1077 H         1 UNK         0.0839 
    100 H100       22.5150  -28.0277  -39.1589 H         1 UNK         0.2998 
    101 H101       21.0477  -29.0883  -37.9377 H         1 UNK         0.0822 
    102 H102       22.3260  -28.3589  -35.9435 H         1 UNK         0.0787 
    103 H103       21.5771  -29.9244  -35.6742 H         1 UNK         0.0787 
    104 H104       23.2993  -29.8277  -36.0001 H         1 UNK         0.0787 
    105 H105       23.9332  -31.1297  -38.3312 H         1 UNK         0.3055 
    106 H106       22.5625  -33.6255  -37.9716 H         1 UNK         0.1106 
    107 H107       25.3188  -32.9987  -39.1663 H         1 UNK         0.0828 
    108 H108       24.9708  -33.3403  -37.4727 H         1 UNK         0.0828 
    109 H109       24.7641  -34.5968  -38.6805 H         1 UNK         0.0828 
    110 H110       23.2421  -31.7177  -40.8861 H         1 UNK         0.2931 
    111 H111       22.8296  -31.9424  -42.9908 H         1 UNK         0.0412 
    112 H112       25.2177  -34.9989  -43.0428 H         1 UNK         0.3472 
    113 H113       24.8482  -33.9906  -41.6670 H         1 UNK         0.3472 
    114 H114       20.4516  -32.8350  -41.9484 H         1 UNK         0.0970 
    115 H115       20.8564  -34.2252  -42.8932 H         1 UNK         0.0970 
    116 H116       18.3459  -32.9924  -43.3643 H         1 UNK         0.0612 
    117 H117       18.1659  -32.1717  -44.8938 H         1 UNK         0.0612 
@<TRIPOS>BOND
     1    1    2 1    
     2    1   62 1    
     3    1   63 1    
     4    1   64 1    
     5    2    3 2    
     6    2    4 am   BACKBONE|DICT|INTERRES
     7    4    5 1    
     8    4   65 1    
     9    5    6 1    
    10    5   25 1    
    11    5   66 1    
    12    6    7 1    
    13    6   67 1    
    14    6   68 1    
    15    7    8 1    
    16    8    9 1    
    17    8   69 1    
    18    8   70 1    
    19    9   10 ar   
    20    9   14 ar   
    21   10   11 ar   
    22   10   71 1    
    23   11   12 ar   
    24   11   61 1    
    25   12   13 ar   
    26   12   72 1    
    27   13   14 ar   
    28   13   15 1    
    29   14   73 1    
    30   15   16 1    
    31   15   74 1    
    32   15   75 1    
    33   16   17 1    
    34   17   18 1    
    35   17   76 1    
    36   17   77 1    
    37   18   19 1    
    38   18   27 1    
    39   18   78 1    
    40   19   20 am   BACKBONE|DICT|INTERRES
    41   19   79 1    
    42   20   21 2    
    43   20   22 1    
    44   22   23 1    
    45   22   24 1    
    46   22   80 1    
    47   23   81 1    
    48   23   82 1    
    49   23   83 1    
    50   24   25 am   BACKBONE|DICT|INTERRES
    51   24   84 1    
    52   25   26 2    
    53   27   28 2    
    54   27   29 am   BACKBONE|DICT|INTERRES
    55   29   30 1    
    56   29   85 1    
    57   30   31 1    
    58   30   32 1    
    59   30   86 1    
    60   31   87 1    
    61   31   88 1    
    62   31   89 1    
    63   32   33 2    
    64   32   34 am   BACKBONE|DICT|INTERRES
    65   34   35 1    
    66   34   90 1    
    67   35   36 1    
    68   35   37 1    
    69   35   91 1    
    70   36   92 1    
    71   36   93 1    
    72   36   94 1    
    73   37   38 2    
    74   37   39 am   BACKBONE|DICT|INTERRES
    75   39   40 1    
    76   39   95 1    
    77   40   41 1    
    78   40   42 1    
    79   40   96 1    
    80   41   97 1    
    81   41   98 1    
    82   41   99 1    
    83   42   43 2    
    84   42   44 am   BACKBONE|DICT|INTERRES
    85   44   45 1    
    86   44  100 1    
    87   45   46 1    
    88   45   47 1    
    89   45  101 1    
    90   46  102 1    
    91   46  103 1    
    92   46  104 1    
    93   47   48 2    
    94   47   49 am   BACKBONE|DICT|INTERRES
    95   49   50 1    
    96   49  105 1    
    97   50   51 1    
    98   50   52 1    
    99   50  106 1    
   100   51  107 1    
   101   51  108 1    
   102   51  109 1    
   103   52   53 2    
   104   52   54 am   BACKBONE|DICT|INTERRES
   105   54   55 1    
   106   54  110 1    
   107   55   56 1    
   108   55   59 1    
   109   55  111 1    
   110   56   57 am   BACKBONE|DICT|INTERRES
   111   56   58 2    
   112   57  112 1    
   113   57  113 1    
   114   59   60 1    
   115   59  114 1    
   116   59  115 1    
   117   60   61 1    
   118   61  116 1    
   119   61  117 1    
@<TRIPOS>SUBSTRUCTURE
     1 UNK         1 GROUP             0       ****    0 ROOT    
