@<TRIPOS>MOLECULE
3R8
117   119    1
SMALL
USER_CHARGES


@<TRIPOS>ATOM
      1 CA         13.5961  -23.8739  -43.6158 C.3       0 UNK        -0.2013 
      2 C          14.6762  -24.3836  -44.5582 C.2       0 UNK         0.4866 
      3 O          15.5886  -23.6337  -44.9052 O.2       0 UNK        -0.5176 
      4 N          14.5774  -25.6522  -44.9784 N.am      1 UNK        -0.4884 
      5 CA         15.5413  -26.3166  -45.8664 C.3       1 UNK         0.0853 
      6 C6         14.9497  -27.6288  -46.4426 C.3       10 UNK        -0.0849 
      7 S7         15.8092  -28.2031  -47.9469 S.3       10 UNK        -0.2776 
      8 C8         16.3216  -29.8930  -47.4843 C.3       10 UNK         0.0316 
      9 C9         17.5956  -29.9465  -46.6445 C.ar      10 UNK        -0.0863 
     10 C10        17.5916  -30.5642  -45.3878 C.ar      10 UNK        -0.1009 
     11 C11        18.7810  -30.7250  -44.6662 C.ar      10 UNK        -0.0712 
     12 C12        19.9768  -30.2523  -45.2119 C.ar      10 UNK        -0.0894 
     13 C13        19.9948  -29.6045  -46.4478 C.ar      10 UNK        -0.0745 
     14 C14        18.8012  -29.4593  -47.1621 C.ar      10 UNK        -0.0972 
     15 C15        21.3099  -29.1085  -47.0326 C.3       10 UNK         0.0209 
     16 S16        21.6928  -27.4009  -46.5269 S.3       10 UNK        -0.2568 
     17 C17        22.4317  -27.6175  -44.8699 C.3       10 UNK        -0.0983 
     18 CA         21.6522  -26.8515  -43.7713 C.3       3 UNK         0.0876 
     19 N          20.2776  -27.3474  -43.6319 N.am      3 UNK        -0.4424 
     20 C          19.2411  -26.6504  -43.1523 C.2       2 UNK         0.4918 
     21 O          19.3044  -25.4804  -42.7714 O.2       2 UNK        -0.4875 
     22 CA         17.9180  -27.4245  -43.0376 C.3       2 UNK         0.0481 
     23 CB         17.4506  -27.4919  -41.5742 C.3       2 UNK        -0.1831 
     24 N          16.8319  -26.9099  -43.8727 N.am      2 UNK        -0.4498 
     25 C          16.8938  -26.5813  -45.1737 C.2       1 UNK         0.5027 
     26 O          17.9306  -26.5002  -45.8317 O.2       1 UNK        -0.4969 
     27 C          22.4227  -26.8401  -42.4284 C.2       3 UNK         0.5005 
     28 O          23.5967  -26.4650  -42.4092 O.2       3 UNK        -0.5279 
     29 N          21.7572  -27.2298  -41.3304 N.am      4 UNK        -0.4463 
     30 CA         22.2346  -27.2222  -39.9478 C.3       4 UNK         0.0283 
     31 CB         22.4882  -25.7765  -39.4604 C.3       4 UNK        -0.1875 
     32 C          23.4195  -28.1838  -39.7542 C.2       4 UNK         0.4949 
     33 O          23.3392  -29.3313  -40.1982 O.2       4 UNK        -0.5039 
     34 N          24.4896  -27.7173  -39.0975 N.am      5 UNK        -0.4663 
     35 CA         25.6901  -28.4871  -38.7555 C.3       5 UNK         0.0242 
     36 CB         26.5966  -27.6265  -37.8607 C.3       5 UNK        -0.1982 
     37 C          26.4816  -29.0223  -39.9626 C.2       5 UNK         0.5017 
     38 O          27.2293  -29.9859  -39.7983 O.2       5 UNK        -0.5012 
     39 N          26.2955  -28.4193  -41.1466 N.am      6 UNK        -0.4439 
     40 CA         26.9040  -28.8622  -42.4048 C.3       6 UNK         0.0297 
     41 CB         26.7085  -27.7805  -43.4788 C.3       6 UNK        -0.2006 
     42 C          26.3604  -30.2154  -42.9003 C.2       6 UNK         0.4892 
     43 O          27.0946  -30.9449  -43.5675 O.2       6 UNK        -0.5089 
     44 N          25.1001  -30.5229  -42.5647 N.am      7 UNK        -0.4243 
     45 CA         24.4213  -31.7766  -42.9065 C.3       7 UNK         0.0196 
     46 CB         23.1436  -31.4315  -43.6813 C.3       7 UNK        -0.2007 
     47 C          24.0774  -32.6215  -41.6677 C.2       7 UNK         0.5020 
     48 O          23.6320  -33.7577  -41.8296 O.2       7 UNK        -0.5147 
     49 N          24.2697  -32.0558  -40.4672 N.am      8 UNK        -0.4734 
     50 CA         23.8850  -32.5833  -39.1541 C.3       8 UNK         0.0238 
     51 CB         24.6512  -33.8822  -38.8214 C.3       8 UNK        -0.1912 
     52 C          22.3560  -32.7144  -39.0055 C.2       8 UNK         0.5038 
     53 O          21.8740  -33.7314  -38.5022 O.2       8 UNK        -0.5046 
     54 N          21.6282  -31.6754  -39.4377 N.am      9 UNK        -0.4200 
     55 CA         20.1632  -31.5639  -39.3317 C.3       9 UNK         0.0839 
     56 C          19.6890  -30.2731  -38.6066 C.2       9 UNK         0.5513 
     57 N          20.5386  -29.6139  -37.8279 N.am      9 UNK        -0.7519 
     58 O          18.5316  -29.8783  -38.7187 O.2       9 UNK        -0.4960 
     59 C59        19.4430  -31.8535  -40.6767 C.3       10 UNK        -0.0876 
     60 S60        19.7349  -30.6464  -42.0156 S.3       10 UNK        -0.2414 
     61 C61        18.7767  -31.4706  -43.3349 C.3       10 UNK         0.0169 
     62 H62        13.0868  -23.0176  -44.0574 H         1 UNK         0.0903 
     63 H63        12.8489  -24.6370  -43.3986 H         1 UNK         0.0903 
     64 H64        14.0405  -23.5565  -42.6729 H         1 UNK         0.0903 
     65 H65        13.7944  -26.2140  -44.6734 H         1 UNK         0.3096 
     66 H66        15.7351  -25.6343  -46.6979 H         1 UNK         0.1121 
     67 H67        13.9081  -27.4699  -46.7268 H         1 UNK         0.0849 
     68 H68        14.9318  -28.4177  -45.6878 H         1 UNK         0.0849 
     69 H69        15.4957  -30.3980  -46.9808 H         1 UNK         0.0865 
     70 H70        16.4975  -30.4575  -48.4010 H         1 UNK         0.0865 
     71 H71        16.6667  -30.9563  -44.9872 H         1 UNK         0.1346 
     72 H72        20.8996  -30.4001  -44.6763 H         1 UNK         0.1412 
     73 H73        18.8112  -28.9813  -48.1322 H         1 UNK         0.1426 
     74 H74        22.1298  -29.7721  -46.7535 H         1 UNK         0.0716 
     75 H75        21.2589  -29.1407  -48.1220 H         1 UNK         0.0716 
     76 H76        22.5070  -28.6754  -44.6217 H         1 UNK         0.0695 
     77 H77        23.4582  -27.2527  -44.9372 H         1 UNK         0.0695 
     78 H78        21.5956  -25.8057  -44.0816 H         1 UNK         0.0983 
     79 H79        20.1094  -28.2849  -43.9695 H         1 UNK         0.3095 
     80 H80        18.0905  -28.4474  -43.3675 H         1 UNK         0.0454 
     81 H81        17.1884  -26.5059  -41.1885 H         1 UNK         0.0851 
     82 H82        16.5819  -28.1406  -41.4622 H         1 UNK         0.0851 
     83 H83        18.2331  -27.8967  -40.9305 H         1 UNK         0.0851 
     84 H84        15.9201  -26.8859  -43.4414 H         1 UNK         0.2976 
     85 H85        20.8191  -27.5767  -41.4634 H         1 UNK         0.3116 
     86 H86        21.4168  -27.6221  -39.3511 H         1 UNK         0.0646 
     87 H87        23.3240  -25.3043  -39.9783 H         1 UNK         0.0847 
     88 H88        21.6097  -25.1521  -39.6240 H         1 UNK         0.0847 
     89 H89        22.6972  -25.7481  -38.3903 H         1 UNK         0.0847 
     90 H90        24.4691  -26.7576  -38.7833 H         1 UNK         0.3040 
     91 H91        25.3678  -29.3566  -38.1786 H         1 UNK         0.1015 
     92 H92        26.9313  -26.7241  -38.3740 H         1 UNK         0.0786 
     93 H93        27.4878  -28.1791  -37.5591 H         1 UNK         0.0786 
     94 H94        26.0832  -27.3241  -36.9476 H         1 UNK         0.0786 
     95 H95        25.6526  -27.6394  -41.1951 H         1 UNK         0.3172 
     96 H96        27.9763  -28.9800  -42.2346 H         1 UNK         0.0595 
     97 H97        27.2031  -28.0624  -44.4094 H         1 UNK         0.0839 
     98 H98        27.1303  -26.8255  -43.1652 H         1 UNK         0.0839 
     99 H99        25.6542  -27.6236  -43.7074 H         1 UNK         0.0839 
    100 H100       24.5714  -29.8597  -42.0112 H         1 UNK         0.2998 
    101 H101       25.0526  -32.3978  -43.5453 H         1 UNK         0.0822 
    102 H102       22.5664  -32.3261  -43.9201 H         1 UNK         0.0787 
    103 H103       22.5030  -30.7714  -43.0965 H         1 UNK         0.0787 
    104 H104       23.3785  -30.9367  -44.6235 H         1 UNK         0.0787 
    105 H105       24.5841  -31.0951  -40.4597 H         1 UNK         0.3055 
    106 H106       24.1902  -31.8322  -38.4238 H         1 UNK         0.1106 
    107 H107       25.7273  -33.7458  -38.9281 H         1 UNK         0.0828 
    108 H108       24.4650  -34.1907  -37.7920 H         1 UNK         0.0828 
    109 H109       24.3518  -34.7099  -39.4647 H         1 UNK         0.0828 
    110 H110       22.1061  -30.8719  -39.8343 H         1 UNK         0.2931 
    111 H111       19.8186  -32.3441  -38.6510 H         1 UNK         0.0412 
    112 H112       20.2169  -28.7959  -37.3350 H         1 UNK         0.3472 
    113 H113       21.4747  -29.9560  -37.6851 H         1 UNK         0.3472 
    114 H114       19.7463  -32.8385  -41.0350 H         1 UNK         0.0970 
    115 H115       18.3665  -31.9233  -40.5101 H         1 UNK         0.0970 
    116 H116       19.1850  -32.4688  -43.4985 H         1 UNK         0.0612 
    117 H117       17.7529  -31.6054  -42.9825 H         1 UNK         0.0612 
@<TRIPOS>BOND
     1    1    2 1    
     2    1   62 1    
     3    1   63 1    
     4    1   64 1    
     5    2    3 2    
     6    2    4 am   BACKBONE|DICT|INTERRES
     7    4    5 1    
     8    4   65 1    
     9    5    6 1    
    10    5   25 1    
    11    5   66 1    
    12    6    7 1    
    13    6   67 1    
    14    6   68 1    
    15    7    8 1    
    16    8    9 1    
    17    8   69 1    
    18    8   70 1    
    19    9   10 ar   
    20    9   14 ar   
    21   10   11 ar   
    22   10   71 1    
    23   11   12 ar   
    24   11   61 1    
    25   12   13 ar   
    26   12   72 1    
    27   13   14 ar   
    28   13   15 1    
    29   14   73 1    
    30   15   16 1    
    31   15   74 1    
    32   15   75 1    
    33   16   17 1    
    34   17   18 1    
    35   17   76 1    
    36   17   77 1    
    37   18   19 1    
    38   18   27 1    
    39   18   78 1    
    40   19   20 am   BACKBONE|DICT|INTERRES
    41   19   79 1    
    42   20   21 2    
    43   20   22 1    
    44   22   23 1    
    45   22   24 1    
    46   22   80 1    
    47   23   81 1    
    48   23   82 1    
    49   23   83 1    
    50   24   25 am   BACKBONE|DICT|INTERRES
    51   24   84 1    
    52   25   26 2    
    53   27   28 2    
    54   27   29 am   BACKBONE|DICT|INTERRES
    55   29   30 1    
    56   29   85 1    
    57   30   31 1    
    58   30   32 1    
    59   30   86 1    
    60   31   87 1    
    61   31   88 1    
    62   31   89 1    
    63   32   33 2    
    64   32   34 am   BACKBONE|DICT|INTERRES
    65   34   35 1    
    66   34   90 1    
    67   35   36 1    
    68   35   37 1    
    69   35   91 1    
    70   36   92 1    
    71   36   93 1    
    72   36   94 1    
    73   37   38 2    
    74   37   39 am   BACKBONE|DICT|INTERRES
    75   39   40 1    
    76   39   95 1    
    77   40   41 1    
    78   40   42 1    
    79   40   96 1    
    80   41   97 1    
    81   41   98 1    
    82   41   99 1    
    83   42   43 2    
    84   42   44 am   BACKBONE|DICT|INTERRES
    85   44   45 1    
    86   44  100 1    
    87   45   46 1    
    88   45   47 1    
    89   45  101 1    
    90   46  102 1    
    91   46  103 1    
    92   46  104 1    
    93   47   48 2    
    94   47   49 am   BACKBONE|DICT|INTERRES
    95   49   50 1    
    96   49  105 1    
    97   50   51 1    
    98   50   52 1    
    99   50  106 1    
   100   51  107 1    
   101   51  108 1    
   102   51  109 1    
   103   52   53 2    
   104   52   54 am   BACKBONE|DICT|INTERRES
   105   54   55 1    
   106   54  110 1    
   107   55   56 1    
   108   55   59 1    
   109   55  111 1    
   110   56   57 am   BACKBONE|DICT|INTERRES
   111   56   58 2    
   112   57  112 1    
   113   57  113 1    
   114   59   60 1    
   115   59  114 1    
   116   59  115 1    
   117   60   61 1    
   118   61  116 1    
   119   61  117 1    
@<TRIPOS>SUBSTRUCTURE
     1 UNK         1 GROUP             0       ****    0 ROOT    
