@<TRIPOS>MOLECULE
3R8
117   119    1
SMALL
USER_CHARGES


@<TRIPOS>ATOM
      1 CA         17.2564  -28.8910  -50.5953 C.3       0 UNK        -0.2013 
      2 C          17.5295  -28.6302  -49.1209 C.2       0 UNK         0.4866 
      3 O          16.9913  -27.6697  -48.5695 O.2       0 UNK        -0.5176 
      4 N          18.3528  -29.4863  -48.4970 N.am      1 UNK        -0.4884 
      5 CA         18.8073  -29.4510  -47.0966 C.3       1 UNK         0.0853 
      6 C6         17.6536  -29.4186  -46.0535 C.3       10 UNK        -0.0849 
      7 S7         16.5254  -30.8452  -46.1371 S.3       10 UNK        -0.2776 
      8 C8         15.0792  -30.1707  -45.2506 C.3       10 UNK         0.0316 
      9 C9         15.4564  -29.6095  -43.8840 C.ar      10 UNK        -0.0863 
     10 C10        15.8545  -30.4703  -42.8586 C.ar      10 UNK        -0.1009 
     11 C11        16.2504  -29.9627  -41.6178 C.ar      10 UNK        -0.0712 
     12 C12        16.2176  -28.5816  -41.3954 C.ar      10 UNK        -0.0894 
     13 C13        15.7948  -27.7109  -42.4045 C.ar      10 UNK        -0.0745 
     14 C14        15.4228  -28.2308  -43.6487 C.ar      10 UNK        -0.0972 
     15 C15        15.6974  -26.2130  -42.1478 C.3       10 UNK         0.0209 
     16 S16        17.1123  -25.3002  -42.8409 S.3       10 UNK        -0.2568 
     17 C17        18.3169  -25.3183  -41.4667 C.3       10 UNK        -0.0983 
     18 CA         19.3957  -26.4191  -41.6127 C.3       3 UNK         0.0876 
     19 N          20.0570  -26.3756  -42.9236 N.am      3 UNK        -0.4424 
     20 C          20.6587  -27.4336  -43.4738 C.2       2 UNK         0.4918 
     21 O          20.8115  -28.5081  -42.8944 O.2       2 UNK        -0.4875 
     22 CA         21.0993  -27.3049  -44.9345 C.3       2 UNK         0.0481 
     23 CB         22.6197  -27.4443  -45.0907 C.3       2 UNK        -0.1831 
     24 N          20.4240  -28.3914  -45.6263 N.am      2 UNK        -0.4498 
     25 C          19.8014  -28.3043  -46.8051 C.2       1 UNK         0.5027 
     26 O          19.9634  -27.3710  -47.5955 O.2       1 UNK        -0.4969 
     27 C          20.3939  -26.3689  -40.4348 C.2       3 UNK         0.5005 
     28 O          20.0312  -26.7575  -39.3230 O.2       3 UNK        -0.5279 
     29 N          21.6196  -25.8828  -40.6834 N.am      4 UNK        -0.4463 
     30 CA         22.7127  -25.8331  -39.7124 C.3       4 UNK         0.0283 
     31 CB         23.8184  -24.9023  -40.2370 C.3       4 UNK        -0.1875 
     32 C          23.2765  -27.2378  -39.4588 C.2       4 UNK         0.4949 
     33 O          23.6092  -27.9359  -40.4177 O.2       4 UNK        -0.5039 
     34 N          23.4216  -27.6101  -38.1806 N.am      5 UNK        -0.4663 
     35 CA         23.8829  -28.9323  -37.7343 C.3       5 UNK         0.0242 
     36 CB         23.7612  -29.0192  -36.2044 C.3       5 UNK        -0.1982 
     37 C          25.3096  -29.3024  -38.1808 C.2       5 UNK         0.5017 
     38 O          25.6078  -30.4897  -38.3087 O.2       5 UNK        -0.5012 
     39 N          26.1527  -28.2890  -38.4255 N.am      6 UNK        -0.4439 
     40 CA         27.5053  -28.4399  -38.9687 C.3       6 UNK         0.0297 
     41 CB         28.2644  -27.1113  -38.8207 C.3       6 UNK        -0.2006 
     42 C          27.5201  -28.9074  -40.4365 C.2       6 UNK         0.4892 
     43 O          28.4504  -29.6116  -40.8307 O.2       6 UNK        -0.5089 
     44 N          26.5000  -28.5119  -41.2104 N.am      7 UNK        -0.4243 
     45 CA         26.2896  -28.9443  -42.5936 C.3       7 UNK         0.0196 
     46 CB         25.6466  -27.7963  -43.3847 C.3       7 UNK        -0.2007 
     47 C          25.4206  -30.2123  -42.6522 C.2       7 UNK         0.5020 
     48 O          25.6995  -31.0913  -43.4678 O.2       7 UNK        -0.5147 
     49 N          24.4268  -30.2820  -41.7545 N.am      8 UNK        -0.4734 
     50 CA         23.4566  -31.3522  -41.5048 C.3       8 UNK         0.0238 
     51 CB         24.1386  -32.7216  -41.3091 C.3       8 UNK        -0.1912 
     52 C          22.3257  -31.4200  -42.5457 C.2       8 UNK         0.5038 
     53 O          22.5243  -31.1175  -43.7248 O.2       8 UNK        -0.5046 
     54 N          21.1502  -31.8327  -42.0565 N.am      9 UNK        -0.4200 
     55 CA         19.8898  -31.9879  -42.7963 C.3       9 UNK         0.0839 
     56 C          19.9789  -33.0076  -43.9655 C.2       9 UNK         0.5513 
     57 N          19.1583  -32.8436  -44.9944 N.am      9 UNK        -0.7519 
     58 O          20.7408  -33.9719  -43.9259 O.2       9 UNK        -0.4960 
     59 C59        18.7406  -32.3738  -41.8281 C.3       10 UNK        -0.0876 
     60 S60        18.4949  -31.1475  -40.4932 S.3       10 UNK        -0.2414 
     61 C61        16.6908  -30.9055  -40.5082 C.3       10 UNK         0.0169 
     62 H62        17.7807  -29.7742  -50.9597 H         1 UNK         0.0903 
     63 H63        16.1893  -29.0402  -50.7579 H         1 UNK         0.0903 
     64 H64        17.5759  -28.0371  -51.1921 H         1 UNK         0.0903 
     65 H65        18.7559  -30.2361  -49.0418 H         1 UNK         0.3096 
     66 H66        19.3652  -30.3778  -46.9506 H         1 UNK         0.1121 
     67 H67        17.0732  -28.5001  -46.1522 H         1 UNK         0.0849 
     68 H68        18.0472  -29.4034  -45.0352 H         1 UNK         0.0849 
     69 H69        14.6110  -29.4027  -45.8686 H         1 UNK         0.0865 
     70 H70        14.3353  -30.9591  -45.1276 H         1 UNK         0.0865 
     71 H71        15.8652  -31.5361  -43.0376 H         1 UNK         0.1346 
     72 H72        16.5109  -28.1870  -40.4321 H         1 UNK         0.1412 
     73 H73        15.1073  -27.5572  -44.4341 H         1 UNK         0.1426 
     74 H74        14.7852  -25.8331  -42.6104 H         1 UNK         0.0716 
     75 H75        15.5963  -26.0053  -41.0816 H         1 UNK         0.0716 
     76 H76        17.7834  -25.4287  -40.5209 H         1 UNK         0.0695 
     77 H77        18.7862  -24.3332  -41.4315 H         1 UNK         0.0695 
     78 H78        18.8850  -27.3821  -41.5336 H         1 UNK         0.0983 
     79 H79        19.9227  -25.5348  -43.4668 H         1 UNK         0.3095 
     80 H80        20.7786  -26.3388  -45.3306 H         1 UNK         0.0454 
     81 H81        23.1356  -26.6258  -44.5886 H         1 UNK         0.0851 
     82 H82        22.9140  -27.4193  -46.1398 H         1 UNK         0.0851 
     83 H83        22.9817  -28.3814  -44.6643 H         1 UNK         0.0851 
     84 H84        20.2663  -29.1994  -45.0372 H         1 UNK         0.2976 
     85 H85        21.8414  -25.6237  -41.6330 H         1 UNK         0.3116 
     86 H86        22.3276  -25.4215  -38.7770 H         1 UNK         0.0646 
     87 H87        23.4421  -23.8926  -40.4024 H         1 UNK         0.0847 
     88 H88        24.6380  -24.8267  -39.5212 H         1 UNK         0.0847 
     89 H89        24.2399  -25.2614  -41.1771 H         1 UNK         0.0847 
     90 H90        23.1323  -26.9680  -37.4557 H         1 UNK         0.3040 
     91 H91        23.2127  -29.6753  -38.1724 H         1 UNK         0.1015 
     92 H92        24.3859  -28.2766  -35.7063 H         1 UNK         0.0786 
     93 H93        24.0709  -30.0009  -35.8426 H         1 UNK         0.0786 
     94 H94        22.7320  -28.8675  -35.8782 H         1 UNK         0.0786 
     95 H95        25.8196  -27.3490  -38.2683 H         1 UNK         0.3172 
     96 H96        28.0242  -29.1961  -38.3757 H         1 UNK         0.0595 
     97 H97        27.7855  -26.3055  -39.3786 H         1 UNK         0.0839 
     98 H98        29.2853  -27.2030  -39.1945 H         1 UNK         0.0839 
     99 H99        28.3311  -26.8052  -37.7765 H         1 UNK         0.0839 
    100 H100       25.7504  -27.9798  -40.7876 H         1 UNK         0.2998 
    101 H101       27.2516  -29.1747  -43.0571 H         1 UNK         0.0822 
    102 H102       25.4757  -28.0878  -44.4217 H         1 UNK         0.0787 
    103 H103       24.6871  -27.5045  -42.9569 H         1 UNK         0.0787 
    104 H104       26.2889  -26.9157  -43.3971 H         1 UNK         0.0787 
    105 H105       24.2452  -29.4375  -41.2147 H         1 UNK         0.3055 
    106 H106       22.9986  -31.0784  -40.5526 H         1 UNK         0.1106 
    107 H107       24.9358  -32.6651  -40.5675 H         1 UNK         0.0828 
    108 H108       23.4230  -33.4667  -40.9598 H         1 UNK         0.0828 
    109 H109       24.5659  -33.1012  -42.2374 H         1 UNK         0.0828 
    110 H110       21.0922  -32.0634  -41.0766 H         1 UNK         0.2931 
    111 H111       19.6576  -31.0131  -43.2296 H         1 UNK         0.0412 
    112 H112       19.1898  -33.5125  -45.7479 H         1 UNK         0.3472 
    113 H113       18.4788  -32.0986  -45.0199 H         1 UNK         0.3472 
    114 H114       17.8100  -32.5008  -42.3802 H         1 UNK         0.0970 
    115 H115       18.9415  -33.3421  -41.3657 H         1 UNK         0.0970 
    116 H116       16.1889  -31.8702  -40.5984 H         1 UNK         0.0612 
    117 H117       16.3882  -30.4978  -39.5425 H         1 UNK         0.0612 
@<TRIPOS>BOND
     1    1    2 1    
     2    1   62 1    
     3    1   63 1    
     4    1   64 1    
     5    2    3 2    
     6    2    4 am   BACKBONE|DICT|INTERRES
     7    4    5 1    
     8    4   65 1    
     9    5    6 1    
    10    5   25 1    
    11    5   66 1    
    12    6    7 1    
    13    6   67 1    
    14    6   68 1    
    15    7    8 1    
    16    8    9 1    
    17    8   69 1    
    18    8   70 1    
    19    9   10 ar   
    20    9   14 ar   
    21   10   11 ar   
    22   10   71 1    
    23   11   12 ar   
    24   11   61 1    
    25   12   13 ar   
    26   12   72 1    
    27   13   14 ar   
    28   13   15 1    
    29   14   73 1    
    30   15   16 1    
    31   15   74 1    
    32   15   75 1    
    33   16   17 1    
    34   17   18 1    
    35   17   76 1    
    36   17   77 1    
    37   18   19 1    
    38   18   27 1    
    39   18   78 1    
    40   19   20 am   BACKBONE|DICT|INTERRES
    41   19   79 1    
    42   20   21 2    
    43   20   22 1    
    44   22   23 1    
    45   22   24 1    
    46   22   80 1    
    47   23   81 1    
    48   23   82 1    
    49   23   83 1    
    50   24   25 am   BACKBONE|DICT|INTERRES
    51   24   84 1    
    52   25   26 2    
    53   27   28 2    
    54   27   29 am   BACKBONE|DICT|INTERRES
    55   29   30 1    
    56   29   85 1    
    57   30   31 1    
    58   30   32 1    
    59   30   86 1    
    60   31   87 1    
    61   31   88 1    
    62   31   89 1    
    63   32   33 2    
    64   32   34 am   BACKBONE|DICT|INTERRES
    65   34   35 1    
    66   34   90 1    
    67   35   36 1    
    68   35   37 1    
    69   35   91 1    
    70   36   92 1    
    71   36   93 1    
    72   36   94 1    
    73   37   38 2    
    74   37   39 am   BACKBONE|DICT|INTERRES
    75   39   40 1    
    76   39   95 1    
    77   40   41 1    
    78   40   42 1    
    79   40   96 1    
    80   41   97 1    
    81   41   98 1    
    82   41   99 1    
    83   42   43 2    
    84   42   44 am   BACKBONE|DICT|INTERRES
    85   44   45 1    
    86   44  100 1    
    87   45   46 1    
    88   45   47 1    
    89   45  101 1    
    90   46  102 1    
    91   46  103 1    
    92   46  104 1    
    93   47   48 2    
    94   47   49 am   BACKBONE|DICT|INTERRES
    95   49   50 1    
    96   49  105 1    
    97   50   51 1    
    98   50   52 1    
    99   50  106 1    
   100   51  107 1    
   101   51  108 1    
   102   51  109 1    
   103   52   53 2    
   104   52   54 am   BACKBONE|DICT|INTERRES
   105   54   55 1    
   106   54  110 1    
   107   55   56 1    
   108   55   59 1    
   109   55  111 1    
   110   56   57 am   BACKBONE|DICT|INTERRES
   111   56   58 2    
   112   57  112 1    
   113   57  113 1    
   114   59   60 1    
   115   59  114 1    
   116   59  115 1    
   117   60   61 1    
   118   61  116 1    
   119   61  117 1    
@<TRIPOS>SUBSTRUCTURE
     1 UNK         1 GROUP             0       ****    0 ROOT    
