@<TRIPOS>MOLECULE
3R8
117   119    1
SMALL
USER_CHARGES


@<TRIPOS>ATOM
      1 CA         15.4390  -23.2142  -42.0688 C.3       0 UNK        -0.2013 
      2 C          15.9937  -23.6633  -43.4125 C.2       0 UNK         0.4866 
      3 O          15.9462  -22.9025  -44.3801 O.2       0 UNK        -0.5176 
      4 N          16.5100  -24.8964  -43.4827 N.am      1 UNK        -0.4884 
      5 CA         17.1305  -25.4786  -44.6778 C.3       1 UNK         0.0853 
      6 C6         17.3273  -27.0084  -44.5365 C.3       10 UNK        -0.0849 
      7 S7         15.7679  -27.9126  -44.2449 S.3       10 UNK        -0.2776 
      8 C8         15.9975  -29.4068  -45.2675 C.3       10 UNK         0.0316 
      9 C9         17.2621  -30.1682  -44.8903 C.ar      10 UNK        -0.0863 
     10 C10        17.3458  -30.8347  -43.6639 C.ar      10 UNK        -0.1009 
     11 C11        18.5174  -31.5016  -43.2906 C.ar      10 UNK        -0.0712 
     12 C12        19.6142  -31.4869  -44.1614 C.ar      10 UNK        -0.0894 
     13 C13        19.5379  -30.8421  -45.3992 C.ar      10 UNK        -0.0745 
     14 C14        18.3551  -30.1922  -45.7617 C.ar      10 UNK        -0.0972 
     15 C15        20.7331  -30.8540  -46.3443 C.3       10 UNK         0.0209 
     16 S16        21.3495  -29.1831  -46.7314 S.3       10 UNK        -0.2568 
     17 C17        21.7690  -28.5335  -45.0779 C.3       10 UNK        -0.0983 
     18 CA         22.2133  -27.0499  -45.1248 C.3       3 UNK         0.0876 
     19 N          21.2064  -26.2077  -45.7779 N.am      3 UNK        -0.4424 
     20 C          21.3903  -24.9594  -46.2273 C.2       2 UNK         0.4918 
     21 O          22.4751  -24.3782  -46.2121 O.2       2 UNK        -0.4875 
     22 CA         20.1423  -24.2212  -46.7541 C.3       2 UNK         0.0481 
     23 CB         20.1320  -24.2245  -48.2911 C.3       2 UNK        -0.1831 
     24 N          18.8630  -24.7554  -46.2612 N.am      2 UNK        -0.4498 
     25 C          18.4898  -24.8120  -44.9732 C.2       1 UNK         0.5027 
     26 O          19.2065  -24.4398  -44.0392 O.2       1 UNK        -0.4969 
     27 C          22.5877  -26.5549  -43.7078 C.2       3 UNK         0.5005 
     28 O          23.5771  -27.0383  -43.1547 O.2       3 UNK        -0.5279 
     29 N          21.7931  -25.6356  -43.1275 N.am      4 UNK        -0.4463 
     30 CA         22.0145  -24.9336  -41.8526 C.3       4 UNK         0.0283 
     31 CB         23.1941  -23.9488  -41.9941 C.3       4 UNK        -0.1875 
     32 C          22.1742  -25.8575  -40.6271 C.2       4 UNK         0.4949 
     33 O          22.8132  -25.4693  -39.6485 O.2       4 UNK        -0.5039 
     34 N          21.6121  -27.0719  -40.7197 N.am      5 UNK        -0.4663 
     35 CA         21.7380  -28.1917  -39.7782 C.3       5 UNK         0.0242 
     36 CB         21.0549  -27.8626  -38.4336 C.3       5 UNK        -0.1982 
     37 C          23.1843  -28.7093  -39.6011 C.2       5 UNK         0.5017 
     38 O          23.4795  -29.3478  -38.5895 O.2       5 UNK        -0.5012 
     39 N          24.0661  -28.4395  -40.5771 N.am      6 UNK        -0.4439 
     40 CA         25.4495  -28.9229  -40.5864 C.3       6 UNK         0.0297 
     41 CB         26.3220  -27.9596  -41.4066 C.3       6 UNK        -0.2006 
     42 C          25.5606  -30.3518  -41.1428 C.2       6 UNK         0.4892 
     43 O          26.4752  -31.0820  -40.7589 O.2       6 UNK        -0.5089 
     44 N          24.6324  -30.7334  -42.0306 N.am      7 UNK        -0.4243 
     45 CA         24.5862  -32.0221  -42.7262 C.3       7 UNK         0.0196 
     46 CB         23.8117  -31.8370  -44.0431 C.3       7 UNK        -0.2007 
     47 C          24.0064  -33.1508  -41.8498 C.2       7 UNK         0.5020 
     48 O          23.0461  -33.8095  -42.2500 O.2       7 UNK        -0.5147 
     49 N          24.6058  -33.3536  -40.6697 N.am      8 UNK        -0.4734 
     50 CA         24.3018  -34.3503  -39.6319 C.3       8 UNK         0.0238 
     51 CB         24.4559  -35.7910  -40.1600 C.3       8 UNK        -0.1912 
     52 C          22.9476  -34.1514  -38.9271 C.2       8 UNK         0.5038 
     53 O          22.9275  -34.0499  -37.6994 O.2       8 UNK        -0.5046 
     54 N          21.8509  -34.1102  -39.6926 N.am      9 UNK        -0.4200 
     55 CA         20.4978  -33.8137  -39.2012 C.3       9 UNK         0.0839 
     56 C          20.3243  -32.3296  -38.7803 C.2       9 UNK         0.5513 
     57 N          19.4026  -32.0492  -37.8688 N.am      9 UNK        -0.7519 
     58 O          20.9826  -31.4316  -39.2969 O.2       9 UNK        -0.4960 
     59 C59        19.3910  -34.2783  -40.1885 C.3       10 UNK        -0.0876 
     60 S60        19.5910  -33.7112  -41.9136 S.3       10 UNK        -0.2414 
     61 C61        18.5864  -32.1866  -41.9267 C.3       10 UNK         0.0169 
     62 H62        14.3837  -22.9597  -42.1644 H         1 UNK         0.0903 
     63 H63        15.5331  -23.9897  -41.3088 H         1 UNK         0.0903 
     64 H64        15.9727  -22.3307  -41.7195 H         1 UNK         0.0903 
     65 H65        16.5260  -25.4790  -42.6579 H         1 UNK         0.3096 
     66 H66        16.4657  -25.2892  -45.5240 H         1 UNK         0.1121 
     67 H67        18.0103  -27.2413  -43.7165 H         1 UNK         0.0849 
     68 H68        17.7932  -27.4044  -45.4403 H         1 UNK         0.0849 
     69 H69        15.1324  -30.0597  -45.1427 H         1 UNK         0.0865 
     70 H70        16.0135  -29.1211  -46.3205 H         1 UNK         0.0865 
     71 H71        16.4995  -30.8146  -42.9905 H         1 UNK         0.1346 
     72 H72        20.5296  -31.9852  -43.8767 H         1 UNK         0.1412 
     73 H73        18.2982  -29.6869  -46.7164 H         1 UNK         0.1426 
     74 H74        20.4406  -31.3425  -47.2747 H         1 UNK         0.0716 
     75 H75        21.5517  -31.4468  -45.9354 H         1 UNK         0.0716 
     76 H76        22.5611  -29.1572  -44.6610 H         1 UNK         0.0695 
     77 H77        20.9035  -28.6493  -44.4228 H         1 UNK         0.0695 
     78 H78        23.1265  -26.9902  -45.7212 H         1 UNK         0.0983 
     79 H79        20.2925  -26.6200  -45.8829 H         1 UNK         0.3095 
     80 H80        20.2149  -23.1855  -46.4163 H         1 UNK         0.0454 
     81 H81        20.0358  -25.2340  -48.6928 H         1 UNK         0.0851 
     82 H82        21.0566  -23.8036  -48.6889 H         1 UNK         0.0851 
     83 H83        19.3119  -23.6245  -48.6856 H         1 UNK         0.0851 
     84 H84        18.2231  -25.0931  -46.9666 H         1 UNK         0.2976 
     85 H85        20.9727  -25.3227  -43.6389 H         1 UNK         0.3116 
     86 H86        21.1128  -24.3467  -41.6714 H         1 UNK         0.0646 
     87 H87        23.0606  -23.2908  -42.8527 H         1 UNK         0.0847 
     88 H88        24.1427  -24.4728  -42.1174 H         1 UNK         0.0847 
     89 H89        23.2855  -23.3128  -41.1128 H         1 UNK         0.0847 
     90 H90        21.1079  -27.2747  -41.5712 H         1 UNK         0.3040 
     91 H91        21.1862  -29.0167  -40.2300 H         1 UNK         0.1015 
     92 H92        21.5959  -27.0944  -37.8805 H         1 UNK         0.0786 
     93 H93        21.0047  -28.7468  -37.7967 H         1 UNK         0.0786 
     94 H94        20.0326  -27.5151  -38.5819 H         1 UNK         0.0786 
     95 H95        23.7717  -27.8814  -41.3752 H         1 UNK         0.3172 
     96 H96        25.8331  -28.9311  -39.5638 H         1 UNK         0.0595 
     97 H97        26.0236  -27.9340  -42.4554 H         1 UNK         0.0839 
     98 H98        27.3699  -28.2611  -41.3746 H         1 UNK         0.0839 
     99 H99        26.2646  -26.9428  -41.0177 H         1 UNK         0.0839 
    100 H100       23.9001  -30.0761  -42.2531 H         1 UNK         0.2998 
    101 H101       25.6062  -32.3159  -42.9837 H         1 UNK         0.0822 
    102 H102       24.2854  -31.0921  -44.6828 H         1 UNK         0.0787 
    103 H103       23.7682  -32.7677  -44.6106 H         1 UNK         0.0787 
    104 H104       22.7874  -31.5178  -43.8558 H         1 UNK         0.0787 
    105 H105       25.3669  -32.7172  -40.4478 H         1 UNK         0.3055 
    106 H106       25.0663  -34.2090  -38.8657 H         1 UNK         0.1106 
    107 H107       23.7263  -36.0269  -40.9351 H         1 UNK         0.0828 
    108 H108       24.3169  -36.5153  -39.3564 H         1 UNK         0.0828 
    109 H109       25.4500  -35.9561  -40.5752 H         1 UNK         0.0828 
    110 H110       21.9763  -34.1237  -40.7014 H         1 UNK         0.2931 
    111 H111       20.3663  -34.4054  -38.2926 H         1 UNK         0.0412 
    112 H112       19.2658  -31.0897  -37.5926 H         1 UNK         0.3472 
    113 H113       18.8519  -32.7766  -37.4396 H         1 UNK         0.3472 
    114 H114       18.4002  -34.0012  -39.8238 H         1 UNK         0.0970 
    115 H115       19.3859  -35.3689  -40.2152 H         1 UNK         0.0970 
    116 H116       17.5812  -32.4350  -41.5828 H         1 UNK         0.0612 
    117 H117       18.9972  -31.4747  -41.2115 H         1 UNK         0.0612 
@<TRIPOS>BOND
     1    1    2 1    
     2    1   62 1    
     3    1   63 1    
     4    1   64 1    
     5    2    3 2    
     6    2    4 am   BACKBONE|DICT|INTERRES
     7    4    5 1    
     8    4   65 1    
     9    5    6 1    
    10    5   25 1    
    11    5   66 1    
    12    6    7 1    
    13    6   67 1    
    14    6   68 1    
    15    7    8 1    
    16    8    9 1    
    17    8   69 1    
    18    8   70 1    
    19    9   10 ar   
    20    9   14 ar   
    21   10   11 ar   
    22   10   71 1    
    23   11   12 ar   
    24   11   61 1    
    25   12   13 ar   
    26   12   72 1    
    27   13   14 ar   
    28   13   15 1    
    29   14   73 1    
    30   15   16 1    
    31   15   74 1    
    32   15   75 1    
    33   16   17 1    
    34   17   18 1    
    35   17   76 1    
    36   17   77 1    
    37   18   19 1    
    38   18   27 1    
    39   18   78 1    
    40   19   20 am   BACKBONE|DICT|INTERRES
    41   19   79 1    
    42   20   21 2    
    43   20   22 1    
    44   22   23 1    
    45   22   24 1    
    46   22   80 1    
    47   23   81 1    
    48   23   82 1    
    49   23   83 1    
    50   24   25 am   BACKBONE|DICT|INTERRES
    51   24   84 1    
    52   25   26 2    
    53   27   28 2    
    54   27   29 am   BACKBONE|DICT|INTERRES
    55   29   30 1    
    56   29   85 1    
    57   30   31 1    
    58   30   32 1    
    59   30   86 1    
    60   31   87 1    
    61   31   88 1    
    62   31   89 1    
    63   32   33 2    
    64   32   34 am   BACKBONE|DICT|INTERRES
    65   34   35 1    
    66   34   90 1    
    67   35   36 1    
    68   35   37 1    
    69   35   91 1    
    70   36   92 1    
    71   36   93 1    
    72   36   94 1    
    73   37   38 2    
    74   37   39 am   BACKBONE|DICT|INTERRES
    75   39   40 1    
    76   39   95 1    
    77   40   41 1    
    78   40   42 1    
    79   40   96 1    
    80   41   97 1    
    81   41   98 1    
    82   41   99 1    
    83   42   43 2    
    84   42   44 am   BACKBONE|DICT|INTERRES
    85   44   45 1    
    86   44  100 1    
    87   45   46 1    
    88   45   47 1    
    89   45  101 1    
    90   46  102 1    
    91   46  103 1    
    92   46  104 1    
    93   47   48 2    
    94   47   49 am   BACKBONE|DICT|INTERRES
    95   49   50 1    
    96   49  105 1    
    97   50   51 1    
    98   50   52 1    
    99   50  106 1    
   100   51  107 1    
   101   51  108 1    
   102   51  109 1    
   103   52   53 2    
   104   52   54 am   BACKBONE|DICT|INTERRES
   105   54   55 1    
   106   54  110 1    
   107   55   56 1    
   108   55   59 1    
   109   55  111 1    
   110   56   57 am   BACKBONE|DICT|INTERRES
   111   56   58 2    
   112   57  112 1    
   113   57  113 1    
   114   59   60 1    
   115   59  114 1    
   116   59  115 1    
   117   60   61 1    
   118   61  116 1    
   119   61  117 1    
@<TRIPOS>SUBSTRUCTURE
     1 UNK         1 GROUP             0       ****    0 ROOT    
