@<TRIPOS>MOLECULE
3R8
117   119    1
SMALL
USER_CHARGES


@<TRIPOS>ATOM
      1 CA         15.5903  -24.0402  -41.2510 C.3       0 UNK        -0.2013 
      2 C          16.4738  -25.0285  -41.9967 C.2       0 UNK         0.4866 
      3 O          16.0034  -25.7021  -42.9147 O.2       0 UNK        -0.5176 
      4 N          17.7566  -25.1194  -41.6207 N.am      1 UNK        -0.4884 
      5 CA         18.7580  -26.0025  -42.2280 C.3       1 UNK         0.0853 
      6 C6         19.8874  -26.3343  -41.2167 C.3       10 UNK        -0.0849 
      7 S7         20.9774  -27.7106  -41.7270 S.3       10 UNK        -0.2776 
      8 C8         20.0283  -29.1852  -41.2024 C.3       10 UNK         0.0316 
      9 C9         19.2143  -29.8893  -42.2910 C.ar      10 UNK        -0.0863 
     10 C10        18.5851  -31.0964  -41.9696 C.ar      10 UNK        -0.1009 
     11 C11        17.8537  -31.8109  -42.9276 C.ar      10 UNK        -0.0712 
     12 C12        17.7432  -31.2918  -44.2218 C.ar      10 UNK        -0.0894 
     13 C13        18.3416  -30.0738  -44.5564 C.ar      10 UNK        -0.0745 
     14 C14        19.0738  -29.3832  -43.5882 C.ar      10 UNK        -0.0972 
     15 C15        18.1369  -29.4674  -45.9393 C.3       10 UNK         0.0209 
     16 S16        19.4644  -29.8650  -47.1293 S.3       10 UNK        -0.2568 
     17 C17        20.9617  -29.0500  -46.4676 C.3       10 UNK        -0.0983 
     18 CA         21.1125  -27.5579  -46.8709 C.3       3 UNK         0.0876 
     19 N          20.0129  -26.7455  -46.3470 N.am      3 UNK        -0.4424 
     20 C          19.7072  -25.4952  -46.7130 C.2       2 UNK         0.4918 
     21 O          20.2738  -24.8868  -47.6204 O.2       2 UNK        -0.4875 
     22 CA         18.5942  -24.7962  -45.9067 C.3       2 UNK         0.0481 
     23 CB         17.2723  -24.8256  -46.6896 C.3       2 UNK        -0.1831 
     24 N          18.3657  -25.3486  -44.5627 N.am      2 UNK        -0.4498 
     25 C          19.2627  -25.4143  -43.5672 C.2       1 UNK         0.5027 
     26 O          20.4304  -25.0391  -43.6858 O.2       1 UNK        -0.4969 
     27 C          22.4989  -27.0340  -46.4259 C.2       3 UNK         0.5005 
     28 O          23.4952  -27.4128  -47.0435 O.2       3 UNK        -0.5279 
     29 N          22.5497  -26.2106  -45.3607 N.am      4 UNK        -0.4463 
     30 CA         23.7530  -25.7085  -44.6806 C.3       4 UNK         0.0283 
     31 CB         24.5579  -24.7608  -45.5947 C.3       4 UNK        -0.1875 
     32 C          24.6049  -26.8486  -44.0872 C.2       4 UNK         0.4949 
     33 O          25.8348  -26.7956  -44.1217 O.2       4 UNK        -0.5039 
     34 N          23.9178  -27.8708  -43.5626 N.am      5 UNK        -0.4663 
     35 CA         24.4941  -29.1259  -43.0765 C.3       5 UNK         0.0242 
     36 CB         23.5578  -30.2689  -43.4994 C.3       5 UNK        -0.1982 
     37 C          24.7703  -29.1271  -41.5589 C.2       5 UNK         0.5017 
     38 O          25.1736  -30.1595  -41.0232 O.2       5 UNK        -0.5012 
     39 N          24.5821  -27.9711  -40.9037 N.am      6 UNK        -0.4439 
     40 CA         24.8708  -27.6811  -39.4937 C.3       6 UNK         0.0297 
     41 CB         26.3835  -27.7950  -39.2035 C.3       6 UNK        -0.2006 
     42 C          24.0034  -28.4936  -38.5135 C.2       6 UNK         0.4892 
     43 O          24.5305  -29.1379  -37.6050 O.2       6 UNK        -0.5089 
     44 N          22.6792  -28.4128  -38.7107 N.am      7 UNK        -0.4243 
     45 CA         21.6141  -28.9431  -37.8443 C.3       7 UNK         0.0196 
     46 CB         21.6630  -28.2922  -36.4448 C.3       7 UNK        -0.2007 
     47 C          21.5249  -30.4822  -37.7720 C.2       7 UNK         0.5020 
     48 O          20.8346  -31.0046  -36.8957 O.2       7 UNK        -0.5147 
     49 N          22.1693  -31.1832  -38.7090 N.am      8 UNK        -0.4734 
     50 CA         22.0336  -32.6194  -38.9414 C.3       8 UNK         0.0238 
     51 CB         23.3151  -33.3333  -38.4814 C.3       8 UNK        -0.1912 
     52 C          21.8057  -32.8184  -40.4424 C.2       8 UNK         0.5038 
     53 O          22.3348  -32.0368  -41.2312 O.2       8 UNK        -0.5046 
     54 N          21.0299  -33.8403  -40.8173 N.am      9 UNK        -0.4200 
     55 CA         20.6514  -34.1068  -42.2180 C.3       9 UNK         0.0839 
     56 C          21.7630  -34.7717  -43.0823 C.2       9 UNK         0.5513 
     57 N          22.8948  -35.1774  -42.5192 N.am      9 UNK        -0.7519 
     58 O          21.5940  -34.9229  -44.2894 O.2       9 UNK        -0.4960 
     59 C59        19.3163  -34.8909  -42.3258 C.3       10 UNK        -0.0876 
     60 S60        17.9582  -34.1606  -41.3471 S.3       10 UNK        -0.2414 
     61 C61        17.1178  -33.1052  -42.5777 C.3       10 UNK         0.0169 
     62 H62        15.1939  -23.2967  -41.9420 H         1 UNK         0.0903 
     63 H63        14.7504  -24.5610  -40.7922 H         1 UNK         0.0903 
     64 H64        16.1352  -23.5172  -40.4654 H         1 UNK         0.0903 
     65 H65        18.0960  -24.5160  -40.8841 H         1 UNK         0.3096 
     66 H66        18.2548  -26.9425  -42.4620 H         1 UNK         0.1121 
     67 H67        20.5087  -25.4550  -41.0359 H         1 UNK         0.0849 
     68 H68        19.4566  -26.5867  -40.2465 H         1 UNK         0.0849 
     69 H69        20.7468  -29.9035  -40.8103 H         1 UNK         0.0865 
     70 H70        19.3675  -28.9304  -40.3733 H         1 UNK         0.0865 
     71 H71        18.6700  -31.4824  -40.9633 H         1 UNK         0.1346 
     72 H72        17.1633  -31.8223  -44.9649 H         1 UNK         0.1412 
     73 H73        19.5304  -28.4454  -43.8562 H         1 UNK         0.1426 
     74 H74        18.0052  -28.3893  -45.8612 H         1 UNK         0.0716 
     75 H75        17.1982  -29.8352  -46.3567 H         1 UNK         0.0716 
     76 H76        21.8052  -29.6197  -46.8631 H         1 UNK         0.0695 
     77 H77        21.0208  -29.1811  -45.3885 H         1 UNK         0.0695 
     78 H78        21.0851  -27.4917  -47.9609 H         1 UNK         0.0983 
     79 H79        19.4662  -27.1599  -45.6113 H         1 UNK         0.3095 
     80 H80        18.8939  -23.7539  -45.7818 H         1 UNK         0.0454 
     81 H81        17.3952  -24.3908  -47.6826 H         1 UNK         0.0851 
     82 H82        16.4967  -24.2519  -46.1818 H         1 UNK         0.0851 
     83 H83        16.9041  -25.8436  -46.8229 H         1 UNK         0.0851 
     84 H84        17.4128  -25.6195  -44.3355 H         1 UNK         0.2976 
     85 H85        21.6759  -25.9265  -44.9262 H         1 UNK         0.3116 
     86 H86        23.3974  -25.1219  -43.8320 H         1 UNK         0.0646 
     87 H87        25.0065  -25.2900  -46.4358 H         1 UNK         0.0847 
     88 H88        23.9280  -23.9665  -45.9950 H         1 UNK         0.0847 
     89 H89        25.3691  -24.2837  -45.0436 H         1 UNK         0.0847 
     90 H90        22.9094  -27.8055  -43.5372 H         1 UNK         0.3040 
     91 H91        25.4578  -29.2920  -43.5631 H         1 UNK         0.1015 
     92 H92        23.9533  -31.2371  -43.1897 H         1 UNK         0.0786 
     93 H93        23.4394  -30.3039  -44.5824 H         1 UNK         0.0786 
     94 H94        22.5658  -30.1614  -43.0592 H         1 UNK         0.0786 
     95 H95        24.2326  -27.1970  -41.4507 H         1 UNK         0.3172 
     96 H96        24.5954  -26.6365  -39.3404 H         1 UNK         0.0595 
     97 H97        26.7400  -28.8215  -39.2933 H         1 UNK         0.0839 
     98 H98        26.6115  -27.4623  -38.1900 H         1 UNK         0.0839 
     99 H99        26.9668  -27.1763  -39.8853 H         1 UNK         0.0839 
    100 H100       22.3610  -27.8917  -39.5176 H         1 UNK         0.2998 
    101 H101       20.6793  -28.6231  -38.3054 H         1 UNK         0.0822 
    102 H102       20.7801  -28.5519  -35.8593 H         1 UNK         0.0787 
    103 H103       21.6935  -27.2047  -36.5130 H         1 UNK         0.0787 
    104 H104       22.5341  -28.6183  -35.8759 H         1 UNK         0.0787 
    105 H105       22.6926  -30.6905  -39.4227 H         1 UNK         0.3055 
    106 H106       21.1741  -33.0194  -38.3982 H         1 UNK         0.1106 
    107 H107       23.4947  -33.1741  -37.4180 H         1 UNK         0.0828 
    108 H108       23.2447  -34.4097  -38.6417 H         1 UNK         0.0828 
    109 H109       24.1914  -32.9759  -39.0247 H         1 UNK         0.0828 
    110 H110       20.6324  -34.4553  -40.1228 H         1 UNK         0.2931 
    111 H111       20.4768  -33.1379  -42.6897 H         1 UNK         0.0412 
    112 H112       23.6068  -35.6039  -43.0912 H         1 UNK         0.3472 
    113 H113       23.0491  -35.0468  -41.5328 H         1 UNK         0.3472 
    114 H114       19.0001  -34.9661  -43.3680 H         1 UNK         0.0970 
    115 H115       19.4567  -35.9174  -41.9824 H         1 UNK         0.0970 
    116 H116       16.9305  -33.6957  -43.4759 H         1 UNK         0.0612 
    117 H117       16.1387  -32.8363  -42.1798 H         1 UNK         0.0612 
@<TRIPOS>BOND
     1    1    2 1    
     2    1   62 1    
     3    1   63 1    
     4    1   64 1    
     5    2    3 2    
     6    2    4 am   BACKBONE|DICT|INTERRES
     7    4    5 1    
     8    4   65 1    
     9    5    6 1    
    10    5   25 1    
    11    5   66 1    
    12    6    7 1    
    13    6   67 1    
    14    6   68 1    
    15    7    8 1    
    16    8    9 1    
    17    8   69 1    
    18    8   70 1    
    19    9   10 ar   
    20    9   14 ar   
    21   10   11 ar   
    22   10   71 1    
    23   11   12 ar   
    24   11   61 1    
    25   12   13 ar   
    26   12   72 1    
    27   13   14 ar   
    28   13   15 1    
    29   14   73 1    
    30   15   16 1    
    31   15   74 1    
    32   15   75 1    
    33   16   17 1    
    34   17   18 1    
    35   17   76 1    
    36   17   77 1    
    37   18   19 1    
    38   18   27 1    
    39   18   78 1    
    40   19   20 am   BACKBONE|DICT|INTERRES
    41   19   79 1    
    42   20   21 2    
    43   20   22 1    
    44   22   23 1    
    45   22   24 1    
    46   22   80 1    
    47   23   81 1    
    48   23   82 1    
    49   23   83 1    
    50   24   25 am   BACKBONE|DICT|INTERRES
    51   24   84 1    
    52   25   26 2    
    53   27   28 2    
    54   27   29 am   BACKBONE|DICT|INTERRES
    55   29   30 1    
    56   29   85 1    
    57   30   31 1    
    58   30   32 1    
    59   30   86 1    
    60   31   87 1    
    61   31   88 1    
    62   31   89 1    
    63   32   33 2    
    64   32   34 am   BACKBONE|DICT|INTERRES
    65   34   35 1    
    66   34   90 1    
    67   35   36 1    
    68   35   37 1    
    69   35   91 1    
    70   36   92 1    
    71   36   93 1    
    72   36   94 1    
    73   37   38 2    
    74   37   39 am   BACKBONE|DICT|INTERRES
    75   39   40 1    
    76   39   95 1    
    77   40   41 1    
    78   40   42 1    
    79   40   96 1    
    80   41   97 1    
    81   41   98 1    
    82   41   99 1    
    83   42   43 2    
    84   42   44 am   BACKBONE|DICT|INTERRES
    85   44   45 1    
    86   44  100 1    
    87   45   46 1    
    88   45   47 1    
    89   45  101 1    
    90   46  102 1    
    91   46  103 1    
    92   46  104 1    
    93   47   48 2    
    94   47   49 am   BACKBONE|DICT|INTERRES
    95   49   50 1    
    96   49  105 1    
    97   50   51 1    
    98   50   52 1    
    99   50  106 1    
   100   51  107 1    
   101   51  108 1    
   102   51  109 1    
   103   52   53 2    
   104   52   54 am   BACKBONE|DICT|INTERRES
   105   54   55 1    
   106   54  110 1    
   107   55   56 1    
   108   55   59 1    
   109   55  111 1    
   110   56   57 am   BACKBONE|DICT|INTERRES
   111   56   58 2    
   112   57  112 1    
   113   57  113 1    
   114   59   60 1    
   115   59  114 1    
   116   59  115 1    
   117   60   61 1    
   118   61  116 1    
   119   61  117 1    
@<TRIPOS>SUBSTRUCTURE
     1 UNK         1 GROUP             0       ****    0 ROOT    
