@<TRIPOS>MOLECULE
3R8
117   119    1
SMALL
USER_CHARGES


@<TRIPOS>ATOM
      1 CA         15.2899  -24.2496  -41.4473 C.3       0 UNK        -0.2013 
      2 C          15.8491  -24.3613  -42.8579 C.2       0 UNK         0.4866 
      3 O          15.8696  -23.3703  -43.5892 O.2       0 UNK        -0.5176 
      4 N          16.2936  -25.5620  -43.2485 N.am      1 UNK        -0.4884 
      5 CA         16.9106  -25.8463  -44.5494 C.3       1 UNK         0.0853 
      6 C6         16.9835  -27.3679  -44.8334 C.3       10 UNK        -0.0849 
      7 S7         15.3633  -28.2082  -44.7207 S.3       10 UNK        -0.2776 
      8 C8         15.6854  -29.7951  -45.5682 C.3       10 UNK         0.0316 
      9 C9         16.9896  -30.4361  -45.1131 C.ar      10 UNK        -0.0863 
     10 C10        17.1304  -30.8988  -43.8004 C.ar      10 UNK        -0.1009 
     11 C11        18.3609  -31.3858  -43.3498 C.ar      10 UNK        -0.0712 
     12 C12        19.4436  -31.4344  -44.2310 C.ar      10 UNK        -0.0894 
     13 C13        19.3088  -30.9967  -45.5501 C.ar      10 UNK        -0.0745 
     14 C14        18.0768  -30.5069  -45.9899 C.ar      10 UNK        -0.0972 
     15 C15        20.5136  -30.9987  -46.4785 C.3       10 UNK         0.0209 
     16 S16        21.1603  -29.3173  -46.7471 S.3       10 UNK        -0.2568 
     17 C17        21.5474  -28.7971  -45.0404 C.3       10 UNK        -0.0983 
     18 CA         22.0913  -27.3529  -44.9744 C.3       3 UNK         0.0876 
     19 N          21.1125  -26.4064  -45.5184 N.am      3 UNK        -0.4424 
     20 C          21.3006  -25.0990  -45.7348 C.2       2 UNK         0.4918 
     21 O          22.3818  -24.5284  -45.5916 O.2       2 UNK        -0.4875 
     22 CA         20.0650  -24.2800  -46.1636 C.3       2 UNK         0.0481 
     23 CB         20.1296  -23.9705  -47.6678 C.3       2 UNK        -0.1831 
     24 N          18.7642  -24.8969  -45.8555 N.am      2 UNK        -0.4498 
     25 C          18.3228  -25.2272  -44.6315 C.2       1 UNK         0.5027 
     26 O          19.0050  -25.1167  -43.6081 O.2       1 UNK        -0.4969 
     27 C          22.5241  -27.0103  -43.5297 C.2       3 UNK         0.5005 
     28 O          23.6470  -27.3482  -43.1458 O.2       3 UNK        -0.5279 
     29 N          21.6420  -26.3323  -42.7730 N.am      4 UNK        -0.4463 
     30 CA         21.8461  -25.8003  -41.4219 C.3       4 UNK         0.0283 
     31 CB         22.7339  -24.5370  -41.4970 C.3       4 UNK        -0.1875 
     32 C          22.3478  -26.8651  -40.4230 C.2       4 UNK         0.4949 
     33 O          21.8676  -27.9985  -40.4508 O.2       4 UNK        -0.5039 
     34 N          23.2986  -26.4879  -39.5595 N.am      5 UNK        -0.4663 
     35 CA         23.9795  -27.3895  -38.6273 C.3       5 UNK         0.0242 
     36 CB         24.4198  -26.5857  -37.3925 C.3       5 UNK        -0.1982 
     37 C          25.1872  -28.1035  -39.2631 C.2       5 UNK         0.5017 
     38 O          25.7026  -29.0445  -38.6596 O.2       5 UNK        -0.5012 
     39 N          25.6310  -27.6478  -40.4462 N.am      6 UNK        -0.4439 
     40 CA         26.7695  -28.2038  -41.1861 C.3       6 UNK         0.0297 
     41 CB         27.1481  -27.2650  -42.3426 C.3       6 UNK        -0.2006 
     42 C          26.5014  -29.6278  -41.6997 C.2       6 UNK         0.4892 
     43 O          27.4013  -30.4673  -41.6567 O.2       6 UNK        -0.5089 
     44 N          25.2604  -29.8775  -42.1286 N.am      7 UNK        -0.4243 
     45 CA         24.7232  -31.1997  -42.4224 C.3       7 UNK         0.0196 
     46 CB         24.6430  -31.4107  -43.9451 C.3       7 UNK        -0.2007 
     47 C          23.3708  -31.2909  -41.7100 C.2       7 UNK         0.5020 
     48 O          22.3272  -31.1141  -42.3351 O.2       7 UNK        -0.5147 
     49 N          23.4297  -31.5193  -40.3905 N.am      8 UNK        -0.4734 
     50 CA         22.2906  -31.5036  -39.4627 C.3       8 UNK         0.0238 
     51 CB         22.8290  -31.5166  -38.0216 C.3       8 UNK        -0.1912 
     52 C          21.2504  -32.6250  -39.6602 C.2       8 UNK         0.5038 
     53 O          20.1799  -32.5405  -39.0591 O.2       8 UNK        -0.5046 
     54 N          21.5817  -33.6357  -40.4760 N.am      9 UNK        -0.4200 
     55 CA         20.7421  -34.7575  -40.9381 C.3       9 UNK         0.0839 
     56 C          20.1455  -35.7043  -39.8510 C.2       9 UNK         0.5513 
     57 N          20.5503  -35.6089  -38.5906 N.am      9 UNK        -0.7519 
     58 O          19.3442  -36.5813  -40.1645 O.2       9 UNK        -0.4960 
     59 C59        19.7489  -34.3551  -42.0732 C.3       10 UNK        -0.0876 
     60 S60        18.1984  -33.5276  -41.5613 S.3       10 UNK        -0.2414 
     61 C61        18.5471  -31.7701  -41.8902 C.3       10 UNK         0.0169 
     62 H62        15.3191  -25.2032  -40.9202 H         1 UNK         0.0903 
     63 H63        15.8670  -23.5264  -40.8718 H         1 UNK         0.0903 
     64 H64        14.2545  -23.9118  -41.4795 H         1 UNK         0.0903 
     65 H65        16.2561  -26.3419  -42.6079 H         1 UNK         0.3096 
     66 H66        16.2904  -25.3806  -45.3190 H         1 UNK         0.1121 
     67 H67        17.6661  -27.8546  -44.1329 H         1 UNK         0.0849 
     68 H68        17.3896  -27.5466  -45.8310 H         1 UNK         0.0849 
     69 H69        14.8576  -30.4788  -45.3749 H         1 UNK         0.0865 
     70 H70        15.6942  -29.6235  -46.6458 H         1 UNK         0.0865 
     71 H71        16.2957  -30.8300  -43.1159 H         1 UNK         0.1346 
     72 H72        20.4077  -31.7728  -43.8805 H         1 UNK         0.1412 
     73 H73        17.9824  -30.1396  -47.0028 H         1 UNK         0.1426 
     74 H74        20.2322  -31.4306  -47.4399 H         1 UNK         0.0716 
     75 H75        21.3108  -31.6280  -46.0793 H         1 UNK         0.0716 
     76 H76        22.2607  -29.5040  -44.6203 H         1 UNK         0.0695 
     77 H77        20.6465  -28.8791  -44.4297 H         1 UNK         0.0695 
     78 H78        22.9880  -27.2908  -45.5947 H         1 UNK         0.0983 
     79 H79        20.2001  -26.7889  -45.7122 H         1 UNK         0.3095 
     80 H80        20.1084  -23.3337  -45.6208 H         1 UNK         0.0454 
     81 H81        21.0692  -23.4800  -47.9265 H         1 UNK         0.0851 
     82 H82        19.3254  -23.3007  -47.9724 H         1 UNK         0.0851 
     83 H83        20.0604  -24.8773  -48.2700 H         1 UNK         0.0851 
     84 H84        18.1475  -25.0387  -46.6434 H         1 UNK         0.2976 
     85 H85        20.7404  -26.1076  -43.1820 H         1 UNK         0.3116 
     86 H86        20.8613  -25.4935  -41.0674 H         1 UNK         0.0646 
     87 H87        22.7746  -24.0146  -40.5406 H         1 UNK         0.0847 
     88 H88        23.7551  -24.7727  -41.7991 H         1 UNK         0.0847 
     89 H89        22.3369  -23.8268  -42.2226 H         1 UNK         0.0847 
     90 H90        23.6201  -25.5305  -39.5825 H         1 UNK         0.3040 
     91 H91        23.2819  -28.1633  -38.2988 H         1 UNK         0.1015 
     92 H92        24.9004  -27.2320  -36.6565 H         1 UNK         0.0786 
     93 H93        23.5678  -26.1167  -36.9001 H         1 UNK         0.0786 
     94 H94        25.1324  -25.8018  -37.6518 H         1 UNK         0.0786 
     95 H95        25.1161  -26.9038  -40.8943 H         1 UNK         0.3172 
     96 H96        27.6181  -28.2541  -40.5006 H         1 UNK         0.0595 
     97 H97        26.3359  -27.1574  -43.0622 H         1 UNK         0.0839 
     98 H98        28.0135  -27.6474  -42.8857 H         1 UNK         0.0839 
     99 H99        27.4089  -26.2711  -41.9791 H         1 UNK         0.0839 
    100 H100       24.5933  -29.1127  -42.1518 H         1 UNK         0.2998 
    101 H101       25.3630  -31.9815  -42.0066 H         1 UNK         0.0822 
    102 H102       24.0856  -32.3155  -44.1902 H         1 UNK         0.0787 
    103 H103       24.1597  -30.5759  -44.4478 H         1 UNK         0.0787 
    104 H104       25.6392  -31.5160  -44.3747 H         1 UNK         0.0787 
    105 H105       24.3418  -31.6286  -39.9689 H         1 UNK         0.3055 
    106 H106       21.7585  -30.5626  -39.6198 H         1 UNK         0.1106 
    107 H107       23.4934  -30.6728  -37.8361 H         1 UNK         0.0828 
    108 H108       22.0156  -31.4475  -37.2978 H         1 UNK         0.0828 
    109 H109       23.3806  -32.4321  -37.8052 H         1 UNK         0.0828 
    110 H110       22.5077  -33.6052  -40.8760 H         1 UNK         0.2931 
    111 H111       21.4737  -35.4021  -41.4269 H         1 UNK         0.0412 
    112 H112       20.1728  -36.2385  -37.8997 H         1 UNK         0.3472 
    113 H113       21.1913  -34.8814  -38.3173 H         1 UNK         0.3472 
    114 H114       20.2671  -33.7418  -42.8082 H         1 UNK         0.0970 
    115 H115       19.4554  -35.2528  -42.6199 H         1 UNK         0.0970 
    116 H116       19.5597  -31.5211  -41.5758 H         1 UNK         0.0612 
    117 H117       17.8862  -31.1669  -41.2662 H         1 UNK         0.0612 
@<TRIPOS>BOND
     1    1    2 1    
     2    1   62 1    
     3    1   63 1    
     4    1   64 1    
     5    2    3 2    
     6    2    4 am   BACKBONE|DICT|INTERRES
     7    4    5 1    
     8    4   65 1    
     9    5    6 1    
    10    5   25 1    
    11    5   66 1    
    12    6    7 1    
    13    6   67 1    
    14    6   68 1    
    15    7    8 1    
    16    8    9 1    
    17    8   69 1    
    18    8   70 1    
    19    9   10 ar   
    20    9   14 ar   
    21   10   11 ar   
    22   10   71 1    
    23   11   12 ar   
    24   11   61 1    
    25   12   13 ar   
    26   12   72 1    
    27   13   14 ar   
    28   13   15 1    
    29   14   73 1    
    30   15   16 1    
    31   15   74 1    
    32   15   75 1    
    33   16   17 1    
    34   17   18 1    
    35   17   76 1    
    36   17   77 1    
    37   18   19 1    
    38   18   27 1    
    39   18   78 1    
    40   19   20 am   BACKBONE|DICT|INTERRES
    41   19   79 1    
    42   20   21 2    
    43   20   22 1    
    44   22   23 1    
    45   22   24 1    
    46   22   80 1    
    47   23   81 1    
    48   23   82 1    
    49   23   83 1    
    50   24   25 am   BACKBONE|DICT|INTERRES
    51   24   84 1    
    52   25   26 2    
    53   27   28 2    
    54   27   29 am   BACKBONE|DICT|INTERRES
    55   29   30 1    
    56   29   85 1    
    57   30   31 1    
    58   30   32 1    
    59   30   86 1    
    60   31   87 1    
    61   31   88 1    
    62   31   89 1    
    63   32   33 2    
    64   32   34 am   BACKBONE|DICT|INTERRES
    65   34   35 1    
    66   34   90 1    
    67   35   36 1    
    68   35   37 1    
    69   35   91 1    
    70   36   92 1    
    71   36   93 1    
    72   36   94 1    
    73   37   38 2    
    74   37   39 am   BACKBONE|DICT|INTERRES
    75   39   40 1    
    76   39   95 1    
    77   40   41 1    
    78   40   42 1    
    79   40   96 1    
    80   41   97 1    
    81   41   98 1    
    82   41   99 1    
    83   42   43 2    
    84   42   44 am   BACKBONE|DICT|INTERRES
    85   44   45 1    
    86   44  100 1    
    87   45   46 1    
    88   45   47 1    
    89   45  101 1    
    90   46  102 1    
    91   46  103 1    
    92   46  104 1    
    93   47   48 2    
    94   47   49 am   BACKBONE|DICT|INTERRES
    95   49   50 1    
    96   49  105 1    
    97   50   51 1    
    98   50   52 1    
    99   50  106 1    
   100   51  107 1    
   101   51  108 1    
   102   51  109 1    
   103   52   53 2    
   104   52   54 am   BACKBONE|DICT|INTERRES
   105   54   55 1    
   106   54  110 1    
   107   55   56 1    
   108   55   59 1    
   109   55  111 1    
   110   56   57 am   BACKBONE|DICT|INTERRES
   111   56   58 2    
   112   57  112 1    
   113   57  113 1    
   114   59   60 1    
   115   59  114 1    
   116   59  115 1    
   117   60   61 1    
   118   61  116 1    
   119   61  117 1    
@<TRIPOS>SUBSTRUCTURE
     1 UNK         1 GROUP             0       ****    0 ROOT    
