@<TRIPOS>MOLECULE
3R8
117   119    1
SMALL
USER_CHARGES


@<TRIPOS>ATOM
      1 CA         14.0364  -23.3007  -44.0889 C.3       0 UNK        -0.2013 
      2 C          14.7895  -24.0560  -45.1735 C.2       0 UNK         0.4866 
      3 O          14.7236  -23.6767  -46.3429 O.2       0 UNK        -0.5176 
      4 N          15.5061  -25.1226  -44.7953 N.am      1 UNK        -0.4884 
      5 CA         16.2787  -25.9758  -45.7096 C.3       1 UNK         0.0853 
      6 C6         16.6152  -27.3461  -45.0714 C.3       10 UNK        -0.0849 
      7 S7         15.1369  -28.3547  -44.6926 S.3       10 UNK        -0.2776 
      8 C8         15.1837  -28.5283  -42.8739 C.3       10 UNK         0.0316 
      9 C9         16.5344  -29.0164  -42.3647 C.ar      10 UNK        -0.0863 
     10 C10        17.0049  -30.2925  -42.6952 C.ar      10 UNK        -0.1009 
     11 C11        18.2817  -30.7049  -42.2971 C.ar      10 UNK        -0.0712 
     12 C12        19.0800  -29.8329  -41.5502 C.ar      10 UNK        -0.0894 
     13 C13        18.6123  -28.5636  -41.2003 C.ar      10 UNK        -0.0745 
     14 C14        17.3354  -28.1650  -41.5984 C.ar      10 UNK        -0.0972 
     15 C15        19.5084  -27.6015  -40.4392 C.3       10 UNK         0.0209 
     16 S16        20.2623  -26.3456  -41.5270 S.3       10 UNK        -0.2568 
     17 C17        20.9089  -27.3163  -42.9450 C.3       10 UNK        -0.0983 
     18 CA         21.4404  -26.4554  -44.1236 C.3       3 UNK         0.0876 
     19 N          20.5156  -25.3732  -44.4542 N.am      3 UNK        -0.4424 
     20 C          20.5519  -24.5931  -45.5399 C.2       2 UNK         0.4918 
     21 O          21.4196  -24.6624  -46.4122 O.2       2 UNK        -0.4875 
     22 CA         19.3684  -23.6124  -45.6782 C.3       2 UNK         0.0481 
     23 CB         19.3893  -22.8168  -47.0006 C.3       2 UNK        -0.1831 
     24 N          18.0761  -24.2906  -45.4849 N.am      2 UNK        -0.4498 
     25 C          17.5789  -25.3079  -46.2114 C.2       1 UNK         0.5027 
     26 O          18.1159  -25.7525  -47.2271 O.2       1 UNK        -0.4969 
     27 C          22.8789  -25.9554  -43.8765 C.2       3 UNK         0.5005 
     28 O          23.0967  -25.1189  -42.9969 O.2       3 UNK        -0.5279 
     29 N          23.8353  -26.5024  -44.6402 N.am      4 UNK        -0.4463 
     30 CA         25.2720  -26.3407  -44.4049 C.3       4 UNK         0.0283 
     31 CB         26.0420  -26.4650  -45.7306 C.3       4 UNK        -0.1875 
     32 C          25.7542  -27.3793  -43.3816 C.2       4 UNK         0.4949 
     33 O          26.3582  -27.0141  -42.3730 O.2       4 UNK        -0.5039 
     34 N          25.4209  -28.6549  -43.6265 N.am      5 UNK        -0.4663 
     35 CA         25.6541  -29.7808  -42.7187 C.3       5 UNK         0.0242 
     36 CB         25.8078  -31.0706  -43.5479 C.3       5 UNK        -0.1982 
     37 C          24.5134  -29.8751  -41.6905 C.2       5 UNK         0.5017 
     38 O          23.7824  -30.8677  -41.6647 O.2       5 UNK        -0.5012 
     39 N          24.3503  -28.8106  -40.8944 N.am      6 UNK        -0.4439 
     40 CA         23.2922  -28.6612  -39.8959 C.3       6 UNK         0.0297 
     41 CB         23.3678  -27.2594  -39.2730 C.3       6 UNK        -0.2006 
     42 C          23.3463  -29.7524  -38.8156 C.2       6 UNK         0.4892 
     43 O          24.4379  -30.1187  -38.3748 O.2       6 UNK        -0.5089 
     44 N          22.1664  -30.2709  -38.4469 N.am      7 UNK        -0.4243 
     45 CA         21.8954  -31.3941  -37.5348 C.3       7 UNK         0.0196 
     46 CB         22.4393  -31.1232  -36.1181 C.3       7 UNK        -0.2007 
     47 C          22.3555  -32.7713  -38.0538 C.2       7 UNK         0.5020 
     48 O          21.6686  -33.7612  -37.8017 O.2       7 UNK        -0.5147 
     49 N          23.4885  -32.8226  -38.7646 N.am      8 UNK        -0.4734 
     50 CA         24.0341  -34.0224  -39.3999 C.3       8 UNK         0.0238 
     51 CB         25.4907  -33.7611  -39.8180 C.3       8 UNK        -0.1912 
     52 C          23.1970  -34.4853  -40.6029 C.2       8 UNK         0.5038 
     53 O          22.9416  -35.6836  -40.7295 O.2       8 UNK        -0.5046 
     54 N          22.7935  -33.5312  -41.4545 N.am      9 UNK        -0.4200 
     55 CA         22.0010  -33.7346  -42.6799 C.3       9 UNK         0.0839 
     56 C          22.7199  -34.5650  -43.7877 C.2       9 UNK         0.5513 
     57 N          24.0430  -34.6773  -43.7714 N.am      9 UNK        -0.7519 
     58 O          22.0789  -35.0886  -44.6955 O.2       9 UNK        -0.4960 
     59 C59        20.5488  -34.2197  -42.3921 C.3       10 UNK        -0.0876 
     60 S60        19.6020  -33.0094  -41.4072 S.3       10 UNK        -0.2414 
     61 C61        18.8305  -32.0512  -42.7534 C.3       10 UNK         0.0169 
     62 H62        14.3752  -22.2658  -44.0480 H         1 UNK         0.0903 
     63 H63        12.9683  -23.3011  -44.3049 H         1 UNK         0.0903 
     64 H64        14.1827  -23.7448  -43.1044 H         1 UNK         0.0903 
     65 H65        15.5067  -25.4038  -43.8254 H         1 UNK         0.3096 
     66 H66        15.6663  -26.1592  -46.5958 H         1 UNK         0.1121 
     67 H67        17.2292  -27.9428  -45.7496 H         1 UNK         0.0849 
     68 H68        17.2245  -27.2002  -44.1796 H         1 UNK         0.0849 
     69 H69        14.4095  -29.2322  -42.5653 H         1 UNK         0.0865 
     70 H70        14.9201  -27.5711  -42.4215 H         1 UNK         0.0865 
     71 H71        16.3906  -30.9450  -43.3009 H         1 UNK         0.1346 
     72 H72        20.0803  -30.1335  -41.2705 H         1 UNK         0.1412 
     73 H73        16.9865  -27.1727  -41.3460 H         1 UNK         0.1426 
     74 H74        20.2858  -28.1421  -39.9038 H         1 UNK         0.0716 
     75 H75        18.9239  -27.0910  -39.6725 H         1 UNK         0.0716 
     76 H76        20.0949  -27.9305  -43.3305 H         1 UNK         0.0695 
     77 H77        21.6666  -28.0182  -42.5924 H         1 UNK         0.0695 
     78 H78        21.4687  -27.1052  -45.0013 H         1 UNK         0.0983 
     79 H79        19.7908  -25.2152  -43.7698 H         1 UNK         0.3095 
     80 H80        19.4658  -22.8944  -44.8626 H         1 UNK         0.0454 
     81 H81        18.5504  -22.1237  -47.0596 H         1 UNK         0.0851 
     82 H82        19.3460  -23.4703  -47.8722 H         1 UNK         0.0851 
     83 H83        20.3031  -22.2275  -47.0847 H         1 UNK         0.0851 
     84 H84        17.5418  -24.0001  -44.6780 H         1 UNK         0.2976 
     85 H85        23.5643  -27.1432  -45.3724 H         1 UNK         0.3116 
     86 H86        25.4665  -25.3458  -43.9976 H         1 UNK         0.0646 
     87 H87        27.1145  -26.3482  -45.5688 H         1 UNK         0.0847 
     88 H88        25.7374  -25.6923  -46.4368 H         1 UNK         0.0847 
     89 H89        25.8892  -27.4330  -46.2092 H         1 UNK         0.0847 
     90 H90        24.8998  -28.8646  -44.4648 H         1 UNK         0.3040 
     91 H91        26.5838  -29.6229  -42.1670 H         1 UNK         0.1015 
     92 H92        26.6356  -30.9922  -44.2528 H         1 UNK         0.0786 
     93 H93        24.9046  -31.3006  -44.1151 H         1 UNK         0.0786 
     94 H94        26.0139  -31.9259  -42.9034 H         1 UNK         0.0786 
     95 H95        25.0037  -28.0431  -40.9955 H         1 UNK         0.3172 
     96 H96        22.3496  -28.7544  -40.4336 H         1 UNK         0.0595 
     97 H97        24.3140  -27.0995  -38.7542 H         1 UNK         0.0839 
     98 H98        22.5675  -27.1096  -38.5470 H         1 UNK         0.0839 
     99 H99        23.2628  -26.4827  -40.0317 H         1 UNK         0.0839 
    100 H100       21.3414  -29.9018  -38.8965 H         1 UNK         0.2998 
    101 H101       20.8078  -31.4469  -37.4590 H         1 UNK         0.0822 
    102 H102       23.5291  -31.0954  -36.0953 H         1 UNK         0.0787 
    103 H103       22.0705  -30.1756  -35.7256 H         1 UNK         0.0787 
    104 H104       22.1237  -31.9055  -35.4266 H         1 UNK         0.0787 
    105 H105       24.0052  -31.9555  -38.8777 H         1 UNK         0.3055 
    106 H106       24.0278  -34.8295  -38.6638 H         1 UNK         0.1106 
    107 H107       25.9242  -34.6406  -40.2961 H         1 UNK         0.0828 
    108 H108       25.5684  -32.9325  -40.5228 H         1 UNK         0.0828 
    109 H109       26.1128  -33.5236  -38.9548 H         1 UNK         0.0828 
    110 H110       23.0968  -32.5731  -41.2983 H         1 UNK         0.2931 
    111 H111       21.9195  -32.7403  -43.1205 H         1 UNK         0.0412 
    112 H112       24.5821  -34.2420  -43.0412 H         1 UNK         0.3472 
    113 H113       24.5031  -35.2060  -44.4958 H         1 UNK         0.3472 
    114 H114       20.0040  -34.4057  -43.3195 H         1 UNK         0.0970 
    115 H115       20.5592  -35.1727  -41.8616 H         1 UNK         0.0970 
    116 H116       19.5698  -31.8657  -43.5337 H         1 UNK         0.0612 
    117 H117       18.0442  -32.6579  -43.2053 H         1 UNK         0.0612 
@<TRIPOS>BOND
     1    1    2 1    
     2    1   62 1    
     3    1   63 1    
     4    1   64 1    
     5    2    3 2    
     6    2    4 am   BACKBONE|DICT|INTERRES
     7    4    5 1    
     8    4   65 1    
     9    5    6 1    
    10    5   25 1    
    11    5   66 1    
    12    6    7 1    
    13    6   67 1    
    14    6   68 1    
    15    7    8 1    
    16    8    9 1    
    17    8   69 1    
    18    8   70 1    
    19    9   10 ar   
    20    9   14 ar   
    21   10   11 ar   
    22   10   71 1    
    23   11   12 ar   
    24   11   61 1    
    25   12   13 ar   
    26   12   72 1    
    27   13   14 ar   
    28   13   15 1    
    29   14   73 1    
    30   15   16 1    
    31   15   74 1    
    32   15   75 1    
    33   16   17 1    
    34   17   18 1    
    35   17   76 1    
    36   17   77 1    
    37   18   19 1    
    38   18   27 1    
    39   18   78 1    
    40   19   20 am   BACKBONE|DICT|INTERRES
    41   19   79 1    
    42   20   21 2    
    43   20   22 1    
    44   22   23 1    
    45   22   24 1    
    46   22   80 1    
    47   23   81 1    
    48   23   82 1    
    49   23   83 1    
    50   24   25 am   BACKBONE|DICT|INTERRES
    51   24   84 1    
    52   25   26 2    
    53   27   28 2    
    54   27   29 am   BACKBONE|DICT|INTERRES
    55   29   30 1    
    56   29   85 1    
    57   30   31 1    
    58   30   32 1    
    59   30   86 1    
    60   31   87 1    
    61   31   88 1    
    62   31   89 1    
    63   32   33 2    
    64   32   34 am   BACKBONE|DICT|INTERRES
    65   34   35 1    
    66   34   90 1    
    67   35   36 1    
    68   35   37 1    
    69   35   91 1    
    70   36   92 1    
    71   36   93 1    
    72   36   94 1    
    73   37   38 2    
    74   37   39 am   BACKBONE|DICT|INTERRES
    75   39   40 1    
    76   39   95 1    
    77   40   41 1    
    78   40   42 1    
    79   40   96 1    
    80   41   97 1    
    81   41   98 1    
    82   41   99 1    
    83   42   43 2    
    84   42   44 am   BACKBONE|DICT|INTERRES
    85   44   45 1    
    86   44  100 1    
    87   45   46 1    
    88   45   47 1    
    89   45  101 1    
    90   46  102 1    
    91   46  103 1    
    92   46  104 1    
    93   47   48 2    
    94   47   49 am   BACKBONE|DICT|INTERRES
    95   49   50 1    
    96   49  105 1    
    97   50   51 1    
    98   50   52 1    
    99   50  106 1    
   100   51  107 1    
   101   51  108 1    
   102   51  109 1    
   103   52   53 2    
   104   52   54 am   BACKBONE|DICT|INTERRES
   105   54   55 1    
   106   54  110 1    
   107   55   56 1    
   108   55   59 1    
   109   55  111 1    
   110   56   57 am   BACKBONE|DICT|INTERRES
   111   56   58 2    
   112   57  112 1    
   113   57  113 1    
   114   59   60 1    
   115   59  114 1    
   116   59  115 1    
   117   60   61 1    
   118   61  116 1    
   119   61  117 1    
@<TRIPOS>SUBSTRUCTURE
     1 UNK         1 GROUP             0       ****    0 ROOT    
