@<TRIPOS>MOLECULE
3R8
117   119    1
SMALL
USER_CHARGES


@<TRIPOS>ATOM
      1 CA         14.2930  -23.1926  -43.3616 C.3       0 UNK        -0.2013 
      2 C          14.2976  -24.3958  -42.4217 C.2       0 UNK         0.4866 
      3 O          13.7526  -24.3041  -41.3231 O.2       0 UNK        -0.5176 
      4 N          14.8787  -25.5428  -42.8005 N.am      1 UNK        -0.4884 
      5 CA         15.6253  -25.7910  -44.0404 C.3       1 UNK         0.0853 
      6 C6         15.5890  -27.2986  -44.4156 C.3       10 UNK        -0.0849 
      7 S7         15.7432  -27.5764  -46.2162 S.3       10 UNK        -0.2776 
      8 C8         15.8947  -29.3886  -46.3084 C.3       10 UNK         0.0316 
      9 C9         17.2126  -29.8917  -45.7347 C.ar      10 UNK        -0.0863 
     10 C10        17.2504  -30.4495  -44.4528 C.ar      10 UNK        -0.1009 
     11 C11        18.4493  -30.9369  -43.9271 C.ar      10 UNK        -0.0712 
     12 C12        19.6122  -30.8797  -44.6984 C.ar      10 UNK        -0.0894 
     13 C13        19.5940  -30.3121  -45.9760 C.ar      10 UNK        -0.0745 
     14 C14        18.3889  -29.8211  -46.4908 C.ar      10 UNK        -0.0972 
     15 C15        20.8745  -30.2516  -46.8013 C.3       10 UNK         0.0209 
     16 S16        21.6925  -28.6228  -46.7257 S.3       10 UNK        -0.2568 
     17 C17        22.1998  -28.5330  -44.9718 C.3       10 UNK        -0.0983 
     18 CA         22.4708  -27.0883  -44.4594 C.3       3 UNK         0.0876 
     19 N          21.4307  -26.1121  -44.8245 N.am      3 UNK        -0.4424 
     20 C          20.1201  -26.1971  -44.5551 C.2       2 UNK         0.4918 
     21 O          19.6224  -27.0761  -43.8491 O.2       2 UNK        -0.4875 
     22 CA         19.2342  -25.1060  -45.1956 C.3       2 UNK         0.0481 
     23 CB         19.5358  -24.9338  -46.6976 C.3       2 UNK        -0.1831 
     24 N          17.8110  -25.4081  -45.0562 N.am      2 UNK        -0.4498 
     25 C          17.0727  -25.2491  -43.9530 C.2       1 UNK         0.5027 
     26 O          17.4863  -24.7089  -42.9228 O.2       1 UNK        -0.4969 
     27 C          22.8096  -27.0865  -42.9504 C.2       3 UNK         0.5005 
     28 O          23.4737  -28.0125  -42.4803 O.2       3 UNK        -0.5279 
     29 N          22.3835  -26.0503  -42.2111 N.am      4 UNK        -0.4463 
     30 CA         22.5248  -25.9248  -40.7541 C.3       4 UNK         0.0283 
     31 CB         21.7865  -24.6622  -40.2813 C.3       4 UNK        -0.1875 
     32 C          23.9782  -25.9200  -40.2452 C.2       4 UNK         0.4949 
     33 O          24.2184  -26.3276  -39.1093 O.2       4 UNK        -0.5039 
     34 N          24.9191  -25.4838  -41.0944 N.am      5 UNK        -0.4663 
     35 CA         26.3597  -25.5286  -40.8299 C.3       5 UNK         0.0242 
     36 CB         27.0864  -24.6258  -41.8399 C.3       5 UNK        -0.1982 
     37 C          26.9387  -26.9556  -40.8694 C.2       5 UNK         0.5017 
     38 O          27.9356  -27.2136  -40.1938 O.2       5 UNK        -0.5012 
     39 N          26.3152  -27.8466  -41.6534 N.am      6 UNK        -0.4439 
     40 CA         26.6719  -29.2626  -41.7508 C.3       6 UNK         0.0297 
     41 CB         26.4347  -29.7578  -43.1881 C.3       6 UNK        -0.2006 
     42 C          25.8678  -30.1075  -40.7520 C.2       6 UNK         0.4892 
     43 O          26.4345  -31.0202  -40.1505 O.2       6 UNK        -0.5089 
     44 N          24.5711  -29.7868  -40.6046 N.am      7 UNK        -0.4243 
     45 CA         23.5711  -30.4644  -39.7698 C.3       7 UNK         0.0196 
     46 CB         23.8858  -30.2752  -38.2712 C.3       7 UNK        -0.2007 
     47 C          23.3840  -31.9405  -40.1715 C.2       7 UNK         0.5020 
     48 O          23.3300  -32.8208  -39.3111 O.2       7 UNK        -0.5147 
     49 N          23.2979  -32.1802  -41.4888 N.am      8 UNK        -0.4734 
     50 CA         23.2786  -33.5050  -42.1238 C.3       8 UNK         0.0238 
     51 CB         23.2893  -33.3267  -43.6512 C.3       8 UNK        -0.1912 
     52 C          22.1196  -34.4261  -41.6981 C.2       8 UNK         0.5038 
     53 O          22.2635  -35.6462  -41.7876 O.2       8 UNK        -0.5046 
     54 N          21.0095  -33.8359  -41.2393 N.am      9 UNK        -0.4200 
     55 CA         19.8536  -34.5504  -40.6748 C.3       9 UNK         0.0839 
     56 C          20.0650  -35.0453  -39.2132 C.2       9 UNK         0.5513 
     57 N          21.1396  -34.6783  -38.5235 N.am      9 UNK        -0.7519 
     58 O          19.2349  -35.7878  -38.6951 O.2       9 UNK        -0.4960 
     59 C59        18.5438  -33.7284  -40.8027 C.3       10 UNK        -0.0876 
     60 S60        18.1548  -33.2978  -42.5333 S.3       10 UNK        -0.2414 
     61 C61        18.4966  -31.5136  -42.5225 C.3       10 UNK         0.0169 
     62 H62        15.3065  -22.8977  -43.6307 H         1 UNK         0.0903 
     63 H63        13.7336  -23.4123  -44.2704 H         1 UNK         0.0903 
     64 H64        13.8192  -22.3363  -42.8818 H         1 UNK         0.0903 
     65 H65        14.8911  -26.3051  -42.1379 H         1 UNK         0.3096 
     66 H66        15.1297  -25.2394  -44.8416 H         1 UNK         0.1121 
     67 H67        16.3621  -27.8529  -43.8799 H         1 UNK         0.0849 
     68 H68        14.6384  -27.7410  -44.1121 H         1 UNK         0.0849 
     69 H69        15.0483  -29.8494  -45.7964 H         1 UNK         0.0865 
     70 H70        15.8165  -29.6947  -47.3527 H         1 UNK         0.0865 
     71 H71        16.3468  -30.5044  -43.8610 H         1 UNK         0.1346 
     72 H72        20.5379  -31.2646  -44.2950 H         1 UNK         0.1412 
     73 H73        18.3666  -29.3849  -47.4802 H         1 UNK         0.1426 
     74 H74        21.5775  -31.0195  -46.4740 H         1 UNK         0.0716 
     75 H75        20.6437  -30.4784  -47.8431 H         1 UNK         0.0716 
     76 H76        21.4304  -28.9917  -44.3535 H         1 UNK         0.0695 
     77 H77        23.0900  -29.1537  -44.8536 H         1 UNK         0.0695 
     78 H78        23.3791  -26.7419  -44.9547 H         1 UNK         0.0983 
     79 H79        21.7468  -25.3497  -45.4066 H         1 UNK         0.3095 
     80 H80        19.4434  -24.1625  -44.6878 H         1 UNK         0.0454 
     81 H81        18.8519  -24.2220  -47.1605 H         1 UNK         0.0851 
     82 H82        20.5431  -24.5536  -46.8678 H         1 UNK         0.0851 
     83 H83        19.4472  -25.8790  -47.2359 H         1 UNK         0.0851 
     84 H84        17.3937  -25.9307  -45.8159 H         1 UNK         0.2976 
     85 H85        21.8503  -25.3310  -42.6774 H         1 UNK         0.3116 
     86 H86        22.0339  -26.7922  -40.3075 H         1 UNK         0.0646 
     87 H87        21.8469  -24.5577  -39.1969 H         1 UNK         0.0847 
     88 H88        20.7282  -24.6988  -40.5413 H         1 UNK         0.0847 
     89 H89        22.2108  -23.7576  -40.7190 H         1 UNK         0.0847 
     90 H90        24.6267  -25.1443  -41.9992 H         1 UNK         0.3040 
     91 H91        26.5363  -25.1329  -39.8269 H         1 UNK         0.1015 
     92 H92        26.7394  -23.5944  -41.7724 H         1 UNK         0.0786 
     93 H93        26.9390  -24.9648  -42.8661 H         1 UNK         0.0786 
     94 H94        28.1611  -24.6167  -41.6514 H         1 UNK         0.0786 
     95 H95        25.4614  -27.5643  -42.1201 H         1 UNK         0.3172 
     96 H96        27.7328  -29.3913  -41.5251 H         1 UNK         0.0595 
     97 H97        25.3909  -29.6620  -43.4888 H         1 UNK         0.0839 
     98 H98        26.7054  -30.8100  -43.2862 H         1 UNK         0.0839 
     99 H99        27.0404  -29.2006  -43.9028 H         1 UNK         0.0839 
    100 H100       24.2014  -29.0493  -41.2030 H         1 UNK         0.2998 
    101 H101       22.6197  -29.9694  -39.9706 H         1 UNK         0.0822 
    102 H102       23.9947  -29.2195  -38.0215 H         1 UNK         0.0787 
    103 H103       23.0832  -30.6748  -37.6502 H         1 UNK         0.0787 
    104 H104       24.8051  -30.7851  -37.9816 H         1 UNK         0.0787 
    105 H105       23.3520  -31.3867  -42.1111 H         1 UNK         0.3055 
    106 H106       24.2016  -34.0117  -41.8329 H         1 UNK         0.1106 
    107 H107       23.3177  -34.2931  -44.1569 H         1 UNK         0.0828 
    108 H108       22.4005  -32.8030  -44.0034 H         1 UNK         0.0828 
    109 H109       24.1644  -32.7667  -43.9816 H         1 UNK         0.0828 
    110 H110       20.9898  -32.8300  -41.1859 H         1 UNK         0.2931 
    111 H111       19.7129  -35.4563  -41.2679 H         1 UNK         0.0412 
    112 H112       21.2546  -35.0160  -37.5812 H         1 UNK         0.3472 
    113 H113       21.8445  -34.0680  -38.9252 H         1 UNK         0.3472 
    114 H114       18.5946  -32.8249  -40.1924 H         1 UNK         0.0970 
    115 H115       17.6984  -34.3012  -40.4163 H         1 UNK         0.0970 
    116 H116       17.7697  -31.0095  -41.8836 H         1 UNK         0.0612 
    117 H117       19.4771  -31.3302  -42.0807 H         1 UNK         0.0612 
@<TRIPOS>BOND
     1    1    2 1    
     2    1   62 1    
     3    1   63 1    
     4    1   64 1    
     5    2    3 2    
     6    2    4 am   BACKBONE|DICT|INTERRES
     7    4    5 1    
     8    4   65 1    
     9    5    6 1    
    10    5   25 1    
    11    5   66 1    
    12    6    7 1    
    13    6   67 1    
    14    6   68 1    
    15    7    8 1    
    16    8    9 1    
    17    8   69 1    
    18    8   70 1    
    19    9   10 ar   
    20    9   14 ar   
    21   10   11 ar   
    22   10   71 1    
    23   11   12 ar   
    24   11   61 1    
    25   12   13 ar   
    26   12   72 1    
    27   13   14 ar   
    28   13   15 1    
    29   14   73 1    
    30   15   16 1    
    31   15   74 1    
    32   15   75 1    
    33   16   17 1    
    34   17   18 1    
    35   17   76 1    
    36   17   77 1    
    37   18   19 1    
    38   18   27 1    
    39   18   78 1    
    40   19   20 am   BACKBONE|DICT|INTERRES
    41   19   79 1    
    42   20   21 2    
    43   20   22 1    
    44   22   23 1    
    45   22   24 1    
    46   22   80 1    
    47   23   81 1    
    48   23   82 1    
    49   23   83 1    
    50   24   25 am   BACKBONE|DICT|INTERRES
    51   24   84 1    
    52   25   26 2    
    53   27   28 2    
    54   27   29 am   BACKBONE|DICT|INTERRES
    55   29   30 1    
    56   29   85 1    
    57   30   31 1    
    58   30   32 1    
    59   30   86 1    
    60   31   87 1    
    61   31   88 1    
    62   31   89 1    
    63   32   33 2    
    64   32   34 am   BACKBONE|DICT|INTERRES
    65   34   35 1    
    66   34   90 1    
    67   35   36 1    
    68   35   37 1    
    69   35   91 1    
    70   36   92 1    
    71   36   93 1    
    72   36   94 1    
    73   37   38 2    
    74   37   39 am   BACKBONE|DICT|INTERRES
    75   39   40 1    
    76   39   95 1    
    77   40   41 1    
    78   40   42 1    
    79   40   96 1    
    80   41   97 1    
    81   41   98 1    
    82   41   99 1    
    83   42   43 2    
    84   42   44 am   BACKBONE|DICT|INTERRES
    85   44   45 1    
    86   44  100 1    
    87   45   46 1    
    88   45   47 1    
    89   45  101 1    
    90   46  102 1    
    91   46  103 1    
    92   46  104 1    
    93   47   48 2    
    94   47   49 am   BACKBONE|DICT|INTERRES
    95   49   50 1    
    96   49  105 1    
    97   50   51 1    
    98   50   52 1    
    99   50  106 1    
   100   51  107 1    
   101   51  108 1    
   102   51  109 1    
   103   52   53 2    
   104   52   54 am   BACKBONE|DICT|INTERRES
   105   54   55 1    
   106   54  110 1    
   107   55   56 1    
   108   55   59 1    
   109   55  111 1    
   110   56   57 am   BACKBONE|DICT|INTERRES
   111   56   58 2    
   112   57  112 1    
   113   57  113 1    
   114   59   60 1    
   115   59  114 1    
   116   59  115 1    
   117   60   61 1    
   118   61  116 1    
   119   61  117 1    
@<TRIPOS>SUBSTRUCTURE
     1 UNK         1 GROUP             0       ****    0 ROOT    
