@<TRIPOS>MOLECULE
3R8
117   119    1
SMALL
USER_CHARGES


@<TRIPOS>ATOM
      1 CA         14.1066  -22.5186  -42.8285 C.3       0 UNK        -0.2013 
      2 C          15.2442  -23.0073  -43.7127 C.2       0 UNK         0.4866 
      3 O          15.5509  -22.3739  -44.7234 O.2       0 UNK        -0.5176 
      4 N          15.8747  -24.1235  -43.3375 N.am      1 UNK        -0.4884 
      5 CA         16.9926  -24.7448  -44.0460 C.3       1 UNK         0.0853 
      6 C6         16.5964  -25.4684  -45.3729 C.3       10 UNK        -0.0849 
      7 S7         14.9884  -26.3447  -45.4517 S.3       10 UNK        -0.2776 
      8 C8         14.9894  -27.4949  -44.0323 C.3       10 UNK         0.0316 
      9 C9         16.0564  -28.5895  -44.0641 C.ar      10 UNK        -0.0863 
     10 C10        16.5740  -29.0581  -42.8526 C.ar      10 UNK        -0.1009 
     11 C11        17.5106  -30.0950  -42.8189 C.ar      10 UNK        -0.0712 
     12 C12        17.9209  -30.6786  -44.0213 C.ar      10 UNK        -0.0894 
     13 C13        17.4254  -30.2154  -45.2424 C.ar      10 UNK        -0.0745 
     14 C14        16.4898  -29.1760  -45.2589 C.ar      10 UNK        -0.0972 
     15 C15        17.8842  -30.8524  -46.5444 C.3       10 UNK         0.0209 
     16 S16        19.2604  -29.9313  -47.2985 S.3       10 UNK        -0.2568 
     17 C17        20.6937  -30.4558  -46.2969 C.3       10 UNK        -0.0983 
     18 CA         21.3815  -29.2551  -45.6048 C.3       3 UNK         0.0876 
     19 N          20.5491  -28.6631  -44.5528 N.am      3 UNK        -0.4424 
     20 C          20.8195  -27.5043  -43.9412 C.2       2 UNK         0.4918 
     21 O          21.7579  -26.7655  -44.2469 O.2       2 UNK        -0.4875 
     22 CA         19.8283  -27.0450  -42.8704 C.3       2 UNK         0.0481 
     23 CB         20.5380  -26.4669  -41.6325 C.3       2 UNK        -0.1831 
     24 N          18.9728  -26.0526  -43.5071 N.am      2 UNK        -0.4498 
     25 C          17.7738  -25.6479  -43.0777 C.2       1 UNK         0.5027 
     26 O          17.2805  -25.9611  -41.9901 O.2       1 UNK        -0.4969 
     27 C          22.7660  -29.6496  -45.0523 C.2       3 UNK         0.5005 
     28 O          22.8587  -30.1407  -43.9264 O.2       3 UNK        -0.5279 
     29 N          23.8112  -29.4127  -45.8579 N.am      4 UNK        -0.4463 
     30 CA         25.2426  -29.5275  -45.5474 C.3       4 UNK         0.0283 
     31 CB         25.6414  -30.9459  -45.0882 C.3       4 UNK        -0.1875 
     32 C          25.7259  -28.4443  -44.5668 C.2       4 UNK         0.4949 
     33 O          26.5857  -27.6447  -44.9371 O.2       4 UNK        -0.5039 
     34 N          25.1562  -28.4190  -43.3584 N.am      5 UNK        -0.4663 
     35 CA         25.4260  -27.4692  -42.2796 C.3       5 UNK         0.0242 
     36 CB         26.8617  -27.6432  -41.7356 C.3       5 UNK        -0.1982 
     37 C          24.3895  -27.6767  -41.1664 C.2       5 UNK         0.5017 
     38 O          23.6338  -28.6518  -41.2026 O.2       5 UNK        -0.5012 
     39 N          24.3889  -26.7711  -40.1782 N.am      6 UNK        -0.4439 
     40 CA         23.5505  -26.8264  -38.9767 C.3       6 UNK         0.0297 
     41 CB         23.8550  -25.6116  -38.0842 C.3       6 UNK        -0.2006 
     42 C          23.7426  -28.1436  -38.2031 C.2       6 UNK         0.4892 
     43 O          24.8355  -28.3916  -37.6905 O.2       6 UNK        -0.5089 
     44 N          22.6812  -28.9622  -38.1786 N.am      7 UNK        -0.4243 
     45 CA         22.5983  -30.3071  -37.5937 C.3       7 UNK         0.0196 
     46 CB         22.8334  -30.2672  -36.0680 C.3       7 UNK        -0.2007 
     47 C          23.4687  -31.3720  -38.2970 C.2       7 UNK         0.5020 
     48 O          23.6590  -32.4509  -37.7343 O.2       7 UNK        -0.5147 
     49 N          23.9466  -31.0920  -39.5187 N.am      8 UNK        -0.4734 
     50 CA         24.6989  -32.0358  -40.3580 C.3       8 UNK         0.0238 
     51 CB         25.8977  -31.3065  -40.9851 C.3       8 UNK        -0.1912 
     52 C          23.8148  -32.6859  -41.4404 C.2       8 UNK         0.5038 
     53 O          24.3464  -33.3659  -42.3196 O.2       8 UNK        -0.5046 
     54 N          22.4980  -32.4570  -41.3557 N.am      9 UNK        -0.4200 
     55 CA         21.4342  -32.9481  -42.2413 C.3       9 UNK         0.0839 
     56 C          21.4814  -34.4818  -42.4836 C.2       9 UNK         0.5513 
     57 N          21.2992  -34.9225  -43.7209 N.am      9 UNK        -0.7519 
     58 O          21.6264  -35.2713  -41.5523 O.2       9 UNK        -0.4960 
     59 C59        20.0437  -32.5486  -41.6837 C.3       10 UNK        -0.0876 
     60 S60        19.8577  -30.7482  -41.4320 S.3       10 UNK        -0.2414 
     61 C61        18.0429  -30.5812  -41.4742 C.3       10 UNK         0.0169 
     62 H62        13.9462  -23.1729  -41.9718 H         1 UNK         0.0903 
     63 H63        14.3236  -21.5180  -42.4556 H         1 UNK         0.0903 
     64 H64        13.1799  -22.4763  -43.4002 H         1 UNK         0.0903 
     65 H65        15.6365  -24.5914  -42.4712 H         1 UNK         0.3096 
     66 H66        17.6870  -23.9407  -44.3026 H         1 UNK         0.1121 
     67 H67        17.3734  -26.1608  -45.7022 H         1 UNK         0.0849 
     68 H68        16.5545  -24.7145  -46.1605 H         1 UNK         0.0849 
     69 H69        15.0554  -26.9162  -43.1112 H         1 UNK         0.0865 
     70 H70        14.0156  -27.9848  -44.0007 H         1 UNK         0.0865 
     71 H71        16.2408  -28.6119  -41.9250 H         1 UNK         0.1346 
     72 H72        18.6307  -31.4920  -44.0119 H         1 UNK         0.1412 
     73 H73        16.0935  -28.8341  -46.2051 H         1 UNK         0.1426 
     74 H74        17.0526  -30.8759  -47.2504 H         1 UNK         0.0716 
     75 H75        18.1753  -31.8924  -46.3883 H         1 UNK         0.0716 
     76 H76        20.4009  -31.2102  -45.5655 H         1 UNK         0.0695 
     77 H77        21.3865  -30.9537  -46.9783 H         1 UNK         0.0695 
     78 H78        21.5385  -28.4779  -46.3565 H         1 UNK         0.0983 
     79 H79        19.7474  -29.2020  -44.2577 H         1 UNK         0.3095 
     80 H80        19.2217  -27.8949  -42.5574 H         1 UNK         0.0454 
     81 H81        21.1362  -25.5885  -41.8769 H         1 UNK         0.0851 
     82 H82        21.2073  -27.2124  -41.2034 H         1 UNK         0.0851 
     83 H83        19.8262  -26.1852  -40.8570 H         1 UNK         0.0851 
     84 H84        19.3088  -25.7280  -44.4045 H         1 UNK         0.2976 
     85 H85        23.6164  -29.0001  -46.7603 H         1 UNK         0.3116 
     86 H86        25.7587  -29.3454  -46.4916 H         1 UNK         0.0646 
     87 H87        25.1899  -31.2200  -44.1348 H         1 UNK         0.0847 
     88 H88        26.7221  -31.0209  -44.9618 H         1 UNK         0.0847 
     89 H89        25.3481  -31.6965  -45.8218 H         1 UNK         0.0847 
     90 H90        24.3924  -29.0677  -43.1677 H         1 UNK         0.3040 
     91 H91        25.3007  -26.4588  -42.6743 H         1 UNK         0.1015 
     92 H92        27.0329  -28.6507  -41.3585 H         1 UNK         0.0786 
     93 H93        27.0646  -26.9532  -40.9160 H         1 UNK         0.0786 
     94 H94        27.6117  -27.4450  -42.5007 H         1 UNK         0.0786 
     95 H95        25.0615  -26.0191  -40.2163 H         1 UNK         0.3172 
     96 H96        22.5096  -26.7508  -39.2945 H         1 UNK         0.0595 
     97 H97        23.2384  -25.6257  -37.1844 H         1 UNK         0.0839 
     98 H98        23.6480  -24.6747  -38.6017 H         1 UNK         0.0839 
     99 H99        24.8973  -25.5960  -37.7629 H         1 UNK         0.0839 
    100 H100       21.8504  -28.6607  -38.6693 H         1 UNK         0.2998 
    101 H101       21.5677  -30.6292  -37.7512 H         1 UNK         0.0822 
    102 H102       22.6015  -31.2296  -35.6101 H         1 UNK         0.0787 
    103 H103       23.8701  -30.0353  -35.8227 H         1 UNK         0.0787 
    104 H104       22.1993  -29.5222  -35.5873 H         1 UNK         0.0787 
    105 H105       23.7408  -30.1890  -39.9400 H         1 UNK         0.3055 
    106 H106       25.0918  -32.8503  -39.7457 H         1 UNK         0.1106 
    107 H107       26.5466  -32.0029  -41.5176 H         1 UNK         0.0828 
    108 H108       25.5723  -30.5563  -41.7030 H         1 UNK         0.0828 
    109 H109       26.5047  -30.8130  -40.2262 H         1 UNK         0.0828 
    110 H110       22.1857  -31.8567  -40.6088 H         1 UNK         0.2931 
    111 H111       21.5743  -32.4464  -43.2004 H         1 UNK         0.0412 
    112 H112       21.3082  -35.9160  -43.8932 H         1 UNK         0.3472 
    113 H113       21.1749  -34.2829  -44.4899 H         1 UNK         0.3472 
    114 H114       19.8617  -33.0417  -40.7265 H         1 UNK         0.0970 
    115 H115       19.2571  -32.9005  -42.3526 H         1 UNK         0.0970 
    116 H116       17.7639  -29.8803  -40.6859 H         1 UNK         0.0612 
    117 H117       17.5679  -31.5289  -41.2179 H         1 UNK         0.0612 
@<TRIPOS>BOND
     1    1    2 1    
     2    1   62 1    
     3    1   63 1    
     4    1   64 1    
     5    2    3 2    
     6    2    4 am   BACKBONE|DICT|INTERRES
     7    4    5 1    
     8    4   65 1    
     9    5    6 1    
    10    5   25 1    
    11    5   66 1    
    12    6    7 1    
    13    6   67 1    
    14    6   68 1    
    15    7    8 1    
    16    8    9 1    
    17    8   69 1    
    18    8   70 1    
    19    9   10 ar   
    20    9   14 ar   
    21   10   11 ar   
    22   10   71 1    
    23   11   12 ar   
    24   11   61 1    
    25   12   13 ar   
    26   12   72 1    
    27   13   14 ar   
    28   13   15 1    
    29   14   73 1    
    30   15   16 1    
    31   15   74 1    
    32   15   75 1    
    33   16   17 1    
    34   17   18 1    
    35   17   76 1    
    36   17   77 1    
    37   18   19 1    
    38   18   27 1    
    39   18   78 1    
    40   19   20 am   BACKBONE|DICT|INTERRES
    41   19   79 1    
    42   20   21 2    
    43   20   22 1    
    44   22   23 1    
    45   22   24 1    
    46   22   80 1    
    47   23   81 1    
    48   23   82 1    
    49   23   83 1    
    50   24   25 am   BACKBONE|DICT|INTERRES
    51   24   84 1    
    52   25   26 2    
    53   27   28 2    
    54   27   29 am   BACKBONE|DICT|INTERRES
    55   29   30 1    
    56   29   85 1    
    57   30   31 1    
    58   30   32 1    
    59   30   86 1    
    60   31   87 1    
    61   31   88 1    
    62   31   89 1    
    63   32   33 2    
    64   32   34 am   BACKBONE|DICT|INTERRES
    65   34   35 1    
    66   34   90 1    
    67   35   36 1    
    68   35   37 1    
    69   35   91 1    
    70   36   92 1    
    71   36   93 1    
    72   36   94 1    
    73   37   38 2    
    74   37   39 am   BACKBONE|DICT|INTERRES
    75   39   40 1    
    76   39   95 1    
    77   40   41 1    
    78   40   42 1    
    79   40   96 1    
    80   41   97 1    
    81   41   98 1    
    82   41   99 1    
    83   42   43 2    
    84   42   44 am   BACKBONE|DICT|INTERRES
    85   44   45 1    
    86   44  100 1    
    87   45   46 1    
    88   45   47 1    
    89   45  101 1    
    90   46  102 1    
    91   46  103 1    
    92   46  104 1    
    93   47   48 2    
    94   47   49 am   BACKBONE|DICT|INTERRES
    95   49   50 1    
    96   49  105 1    
    97   50   51 1    
    98   50   52 1    
    99   50  106 1    
   100   51  107 1    
   101   51  108 1    
   102   51  109 1    
   103   52   53 2    
   104   52   54 am   BACKBONE|DICT|INTERRES
   105   54   55 1    
   106   54  110 1    
   107   55   56 1    
   108   55   59 1    
   109   55  111 1    
   110   56   57 am   BACKBONE|DICT|INTERRES
   111   56   58 2    
   112   57  112 1    
   113   57  113 1    
   114   59   60 1    
   115   59  114 1    
   116   59  115 1    
   117   60   61 1    
   118   61  116 1    
   119   61  117 1    
@<TRIPOS>SUBSTRUCTURE
     1 UNK         1 GROUP             0       ****    0 ROOT    
