@<TRIPOS>MOLECULE
3R8
117   119    1
SMALL
USER_CHARGES


@<TRIPOS>ATOM
      1 CA         12.5131  -23.9694  -46.8722 C.3       0 UNK        -0.2013 
      2 C          14.0153  -24.1836  -46.7601 C.2       0 UNK         0.4866 
      3 O          14.7873  -23.4266  -47.3500 O.2       0 UNK        -0.5176 
      4 N          14.4350  -25.2142  -46.0160 N.am      1 UNK        -0.4884 
      5 CA         15.8414  -25.5429  -45.7572 C.3       1 UNK         0.0853 
      6 C6         15.9973  -26.9639  -45.1659 C.3       10 UNK        -0.0849 
      7 S7         15.5145  -28.2520  -46.3626 S.3       10 UNK        -0.2776 
      8 C8         15.8273  -29.7747  -45.4034 C.3       10 UNK         0.0316 
      9 C9         17.2615  -29.9059  -44.8941 C.ar      10 UNK        -0.0863 
     10 C10        17.4938  -30.3561  -43.5901 C.ar      10 UNK        -0.1009 
     11 C11        18.7980  -30.4968  -43.1060 C.ar      10 UNK        -0.0712 
     12 C12        19.8775  -30.1700  -43.9311 C.ar      10 UNK        -0.0894 
     13 C13        19.6604  -29.6964  -45.2279 C.ar      10 UNK        -0.0745 
     14 C14        18.3536  -29.5903  -45.7117 C.ar      10 UNK        -0.0972 
     15 C15        20.8341  -29.2817  -46.1029 C.3       10 UNK         0.0209 
     16 S16        21.0407  -27.4707  -46.1379 S.3       10 UNK        -0.2568 
     17 C17        21.6019  -27.1313  -44.4358 C.3       10 UNK        -0.0983 
     18 CA         21.6236  -25.6190  -44.1062 C.3       3 UNK         0.0876 
     19 N          20.2930  -25.0141  -44.2153 N.am      3 UNK        -0.4424 
     20 C          20.0564  -23.6963  -44.2632 C.2       2 UNK         0.4918 
     21 O          20.9487  -22.8471  -44.2968 O.2       2 UNK        -0.4875 
     22 CA         18.5809  -23.2614  -44.2935 C.3       2 UNK         0.0481 
     23 CB         18.3832  -21.8313  -44.8350 C.3       2 UNK        -0.1831 
     24 N          17.7741  -24.2064  -45.0685 N.am      2 UNK        -0.4498 
     25 C          16.4919  -24.5025  -44.8233 C.2       1 UNK         0.5027 
     26 O          15.8391  -24.0205  -43.8932 O.2       1 UNK        -0.4969 
     27 C          22.1861  -25.3942  -42.6890 C.2       3 UNK         0.5005 
     28 O          21.4431  -25.5204  -41.7110 O.2       3 UNK        -0.5279 
     29 N          23.4915  -25.1123  -42.5892 N.am      4 UNK        -0.4463 
     30 CA         24.2083  -24.8604  -41.3337 C.3       4 UNK         0.0283 
     31 CB         25.4559  -24.0083  -41.6356 C.3       4 UNK        -0.1875 
     32 C          24.5477  -26.1637  -40.5809 C.2       4 UNK         0.4949 
     33 O          25.7200  -26.4300  -40.3127 O.2       4 UNK        -0.5039 
     34 N          23.5093  -26.9567  -40.2746 N.am      5 UNK        -0.4663 
     35 CA         23.5421  -28.2556  -39.5850 C.3       5 UNK         0.0242 
     36 CB         23.9113  -28.0692  -38.0979 C.3       5 UNK        -0.1982 
     37 C          24.4339  -29.2934  -40.2968 C.2       5 UNK         0.5017 
     38 O          25.2063  -29.9971  -39.6415 O.2       5 UNK        -0.5012 
     39 N          24.3147  -29.3507  -41.6324 N.am      6 UNK        -0.4439 
     40 CA         25.0771  -30.2149  -42.5390 C.3       6 UNK         0.0297 
     41 CB         24.5787  -30.0034  -43.9784 C.3       6 UNK        -0.2006 
     42 C          24.9897  -31.6974  -42.1416 C.2       6 UNK         0.4892 
     43 O          23.9002  -32.2721  -42.1891 O.2       6 UNK        -0.5089 
     44 N          26.1265  -32.2553  -41.6970 N.am      7 UNK        -0.4243 
     45 CA         26.3013  -33.6144  -41.1614 C.3       7 UNK         0.0196 
     46 CB         26.1653  -34.6545  -42.2941 C.3       7 UNK        -0.2007 
     47 C          25.3829  -33.9331  -39.9607 C.2       7 UNK         0.5020 
     48 O          25.0039  -35.0907  -39.7753 O.2       7 UNK        -0.5147 
     49 N          24.9897  -32.8961  -39.2013 N.am      8 UNK        -0.4734 
     50 CA         23.9804  -32.9102  -38.1310 C.3       8 UNK         0.0238 
     51 CB         24.4924  -33.7020  -36.9092 C.3       8 UNK        -0.1912 
     52 C          22.5881  -33.3859  -38.6045 C.2       8 UNK         0.5038 
     53 O          21.8034  -33.8789  -37.7926 O.2       8 UNK        -0.5046 
     54 N          22.3141  -33.2432  -39.9095 N.am      9 UNK        -0.4200 
     55 CA         21.1546  -33.7929  -40.6229 C.3       9 UNK         0.0839 
     56 C          21.1488  -35.3488  -40.7489 C.2       9 UNK         0.5513 
     57 N          22.2593  -36.0408  -40.5177 N.am      9 UNK        -0.7519 
     58 O          20.1294  -35.9450  -41.0868 O.2       9 UNK        -0.4960 
     59 C59        19.8018  -33.1933  -40.1332 C.3       10 UNK        -0.0876 
     60 S60        18.7140  -32.7677  -41.5339 S.3       10 UNK        -0.2414 
     61 C61        19.0440  -30.9855  -41.6873 C.3       10 UNK         0.0169 
     62 H62        12.2449  -22.9863  -46.4861 H         1 UNK         0.0903 
     63 H63        12.2032  -24.0223  -47.9155 H         1 UNK         0.0903 
     64 H64        11.9513  -24.7179  -46.3136 H         1 UNK         0.0903 
     65 H65        13.7582  -25.7993  -45.5473 H         1 UNK         0.3096 
     66 H66        16.3685  -25.5087  -46.7140 H         1 UNK         0.1121 
     67 H67        17.0353  -27.1433  -44.8790 H         1 UNK         0.0849 
     68 H68        15.4040  -27.0772  -44.2562 H         1 UNK         0.0849 
     69 H69        15.1214  -29.8064  -44.5718 H         1 UNK         0.0865 
     70 H70        15.6006  -30.6375  -46.0310 H         1 UNK         0.0865 
     71 H71        16.6607  -30.6081  -42.9479 H         1 UNK         0.1346 
     72 H72        20.8879  -30.2668  -43.5574 H         1 UNK         0.1412 
     73 H73        18.1881  -29.2346  -46.7195 H         1 UNK         0.1426 
     74 H74        20.6713  -29.6377  -47.1213 H         1 UNK         0.0716 
     75 H75        21.7592  -29.7480  -45.7617 H         1 UNK         0.0716 
     76 H76        22.5968  -27.5651  -44.3224 H         1 UNK         0.0695 
     77 H77        20.9523  -27.6544  -43.7329 H         1 UNK         0.0695 
     78 H78        22.2799  -25.1190  -44.8225 H         1 UNK         0.0983 
     79 H79        19.5118  -25.6482  -44.1469 H         1 UNK         0.3095 
     80 H80        18.2492  -23.2784  -43.2532 H         1 UNK         0.0454 
     81 H81        18.9387  -21.1043  -44.2413 H         1 UNK         0.0851 
     82 H82        17.3346  -21.5352  -44.8034 H         1 UNK         0.0851 
     83 H83        18.7252  -21.7428  -45.8666 H         1 UNK         0.0851 
     84 H84        18.2442  -24.6465  -45.8489 H         1 UNK         0.2976 
     85 H85        24.0451  -25.0651  -43.4333 H         1 UNK         0.3116 
     86 H86        23.5643  -24.2726  -40.6757 H         1 UNK         0.0646 
     87 H87        26.1551  -24.5305  -42.2898 H         1 UNK         0.0847 
     88 H88        25.9915  -23.7607  -40.7180 H         1 UNK         0.0847 
     89 H89        25.1877  -23.0659  -42.1135 H         1 UNK         0.0847 
     90 H90        22.5925  -26.6265  -40.5675 H         1 UNK         0.3040 
     91 H91        22.5269  -28.6543  -39.6233 H         1 UNK         0.1015 
     92 H92        24.9344  -27.7113  -37.9770 H         1 UNK         0.0786 
     93 H93        23.8298  -29.0104  -37.5525 H         1 UNK         0.0786 
     94 H94        23.2468  -27.3558  -37.6106 H         1 UNK         0.0786 
     95 H95        23.6490  -28.7284  -42.0636 H         1 UNK         0.3172 
     96 H96        26.1205  -29.8963  -42.4921 H         1 UNK         0.0595 
     97 H97        25.1264  -30.6371  -44.6773 H         1 UNK         0.0839 
     98 H98        24.7188  -28.9723  -44.3028 H         1 UNK         0.0839 
     99 H99        23.5211  -30.2500  -44.0787 H         1 UNK         0.0839 
    100 H100       26.9510  -31.6710  -41.6612 H         1 UNK         0.2998 
    101 H101       27.3223  -33.6679  -40.7808 H         1 UNK         0.0822 
    102 H102       26.4263  -35.6540  -41.9440 H         1 UNK         0.0787 
    103 H103       25.1457  -34.7008  -42.6787 H         1 UNK         0.0787 
    104 H104       26.8282  -34.4229  -43.1278 H         1 UNK         0.0787 
    105 H105       25.3256  -31.9689  -39.4518 H         1 UNK         0.3055 
    106 H106       23.8503  -31.8717  -37.8218 H         1 UNK         0.1106 
    107 H107       23.8153  -33.5957  -36.0608 H         1 UNK         0.0828 
    108 H108       24.5778  -34.7677  -37.1236 H         1 UNK         0.0828 
    109 H109       25.4703  -33.3450  -36.5864 H         1 UNK         0.0828 
    110 H110       23.0268  -32.8488  -40.5162 H         1 UNK         0.2931 
    111 H111       21.3227  -33.4501  -41.6446 H         1 UNK         0.0412 
    112 H112       23.1221  -35.5817  -40.2447 H         1 UNK         0.3472 
    113 H113       22.2386  -37.0437  -40.6127 H         1 UNK         0.3472 
    114 H114       19.9638  -32.2939  -39.5372 H         1 UNK         0.0970 
    115 H115       19.2790  -33.8824  -39.4673 H         1 UNK         0.0970 
    116 H116       20.0753  -30.7779  -41.3963 H         1 UNK         0.0612 
    117 H117       18.4087  -30.4386  -40.9891 H         1 UNK         0.0612 
@<TRIPOS>BOND
     1    1    2 1    
     2    1   62 1    
     3    1   63 1    
     4    1   64 1    
     5    2    3 2    
     6    2    4 am   BACKBONE|DICT|INTERRES
     7    4    5 1    
     8    4   65 1    
     9    5    6 1    
    10    5   25 1    
    11    5   66 1    
    12    6    7 1    
    13    6   67 1    
    14    6   68 1    
    15    7    8 1    
    16    8    9 1    
    17    8   69 1    
    18    8   70 1    
    19    9   10 ar   
    20    9   14 ar   
    21   10   11 ar   
    22   10   71 1    
    23   11   12 ar   
    24   11   61 1    
    25   12   13 ar   
    26   12   72 1    
    27   13   14 ar   
    28   13   15 1    
    29   14   73 1    
    30   15   16 1    
    31   15   74 1    
    32   15   75 1    
    33   16   17 1    
    34   17   18 1    
    35   17   76 1    
    36   17   77 1    
    37   18   19 1    
    38   18   27 1    
    39   18   78 1    
    40   19   20 am   BACKBONE|DICT|INTERRES
    41   19   79 1    
    42   20   21 2    
    43   20   22 1    
    44   22   23 1    
    45   22   24 1    
    46   22   80 1    
    47   23   81 1    
    48   23   82 1    
    49   23   83 1    
    50   24   25 am   BACKBONE|DICT|INTERRES
    51   24   84 1    
    52   25   26 2    
    53   27   28 2    
    54   27   29 am   BACKBONE|DICT|INTERRES
    55   29   30 1    
    56   29   85 1    
    57   30   31 1    
    58   30   32 1    
    59   30   86 1    
    60   31   87 1    
    61   31   88 1    
    62   31   89 1    
    63   32   33 2    
    64   32   34 am   BACKBONE|DICT|INTERRES
    65   34   35 1    
    66   34   90 1    
    67   35   36 1    
    68   35   37 1    
    69   35   91 1    
    70   36   92 1    
    71   36   93 1    
    72   36   94 1    
    73   37   38 2    
    74   37   39 am   BACKBONE|DICT|INTERRES
    75   39   40 1    
    76   39   95 1    
    77   40   41 1    
    78   40   42 1    
    79   40   96 1    
    80   41   97 1    
    81   41   98 1    
    82   41   99 1    
    83   42   43 2    
    84   42   44 am   BACKBONE|DICT|INTERRES
    85   44   45 1    
    86   44  100 1    
    87   45   46 1    
    88   45   47 1    
    89   45  101 1    
    90   46  102 1    
    91   46  103 1    
    92   46  104 1    
    93   47   48 2    
    94   47   49 am   BACKBONE|DICT|INTERRES
    95   49   50 1    
    96   49  105 1    
    97   50   51 1    
    98   50   52 1    
    99   50  106 1    
   100   51  107 1    
   101   51  108 1    
   102   51  109 1    
   103   52   53 2    
   104   52   54 am   BACKBONE|DICT|INTERRES
   105   54   55 1    
   106   54  110 1    
   107   55   56 1    
   108   55   59 1    
   109   55  111 1    
   110   56   57 am   BACKBONE|DICT|INTERRES
   111   56   58 2    
   112   57  112 1    
   113   57  113 1    
   114   59   60 1    
   115   59  114 1    
   116   59  115 1    
   117   60   61 1    
   118   61  116 1    
   119   61  117 1    
@<TRIPOS>SUBSTRUCTURE
     1 UNK         1 GROUP             0       ****    0 ROOT    
