@<TRIPOS>MOLECULE
3R8
117   119    1
SMALL
USER_CHARGES


@<TRIPOS>ATOM
      1 CA         18.8386  -23.6138  -41.1290 C.3       0 UNK        -0.2013 
      2 C          18.8935  -25.0539  -40.6228 C.2       0 UNK         0.4866 
      3 O          19.1700  -25.2606  -39.4434 O.2       0 UNK        -0.5176 
      4 N          18.6223  -26.0759  -41.4486 N.am      1 UNK        -0.4884 
      5 CA         18.3017  -26.0190  -42.8814 C.3       1 UNK         0.0853 
      6 C6         17.8706  -27.3999  -43.4340 C.3       10 UNK        -0.0849 
      7 S7         16.5931  -28.2523  -42.4418 S.3       10 UNK        -0.2776 
      8 C8         15.9361  -29.4802  -43.6238 C.3       10 UNK         0.0316 
      9 C9         17.0418  -30.2872  -44.2922 C.ar      10 UNK        -0.0863 
     10 C10        17.5828  -31.4167  -43.6731 C.ar      10 UNK        -0.1009 
     11 C11        18.6183  -32.1288  -44.2866 C.ar      10 UNK        -0.0712 
     12 C12        19.1312  -31.6859  -45.5110 C.ar      10 UNK        -0.0894 
     13 C13        18.6124  -30.5463  -46.1352 C.ar      10 UNK        -0.0745 
     14 C14        17.5379  -29.8808  -45.5326 C.ar      10 UNK        -0.0972 
     15 C15        19.2411  -30.0608  -47.4441 C.3       10 UNK         0.0209 
     16 S16        18.9301  -28.2963  -47.8177 S.3       10 UNK        -0.2568 
     17 C17        20.5136  -27.7442  -48.5387 C.3       10 UNK        -0.0983 
     18 CA         21.4206  -26.9654  -47.5483 C.3       3 UNK         0.0876 
     19 N          20.6831  -25.9306  -46.8138 N.am      3 UNK        -0.4424 
     20 C          21.2395  -24.8549  -46.2435 C.2       2 UNK         0.4918 
     21 O          22.4395  -24.5887  -46.3052 O.2       2 UNK        -0.4875 
     22 CA         20.2999  -23.9265  -45.4510 C.3       2 UNK         0.0481 
     23 CB         19.6418  -22.9026  -46.3893 C.3       2 UNK        -0.1831 
     24 N          19.2619  -24.6186  -44.6730 N.am      2 UNK        -0.4498 
     25 C          19.5073  -25.4996  -43.6926 C.2       1 UNK         0.5027 
     26 O          20.6340  -25.9202  -43.4240 O.2       1 UNK        -0.4969 
     27 C          22.2036  -27.9173  -46.6185 C.2       3 UNK         0.5005 
     28 O          23.2138  -28.4748  -47.0509 O.2       3 UNK        -0.5279 
     29 N          21.7376  -28.0918  -45.3731 N.am      4 UNK        -0.4463 
     30 CA         22.3972  -28.9137  -44.3565 C.3       4 UNK         0.0283 
     31 CB         21.3644  -29.3935  -43.3261 C.3       4 UNK        -0.1875 
     32 C          23.5296  -28.1498  -43.6552 C.2       4 UNK         0.4949 
     33 O          24.5586  -28.7493  -43.3427 O.2       4 UNK        -0.5039 
     34 N          23.3054  -26.8522  -43.3993 N.am      5 UNK        -0.4663 
     35 CA         24.1691  -25.8690  -42.7324 C.3       5 UNK         0.0242 
     36 CB         25.4922  -25.6618  -43.4954 C.3       5 UNK        -0.1982 
     37 C          24.4070  -26.1660  -41.2421 C.2       5 UNK         0.5017 
     38 O          24.0818  -25.3297  -40.3993 O.2       5 UNK        -0.5012 
     39 N          24.9522  -27.3512  -40.9445 N.am      6 UNK        -0.4439 
     40 CA         25.1707  -27.8621  -39.5895 C.3       6 UNK         0.0297 
     41 CB         26.2648  -28.9418  -39.6296 C.3       6 UNK        -0.2006 
     42 C          23.8883  -28.4268  -38.9530 C.2       6 UNK         0.4892 
     43 O          23.8006  -28.4683  -37.7260 O.2       6 UNK        -0.5089 
     44 N          22.9404  -28.8715  -39.7955 N.am      7 UNK        -0.4243 
     45 CA         21.6433  -29.4785  -39.4539 C.3       7 UNK         0.0196 
     46 CB         20.7419  -28.4694  -38.7144 C.3       7 UNK        -0.2007 
     47 C          21.7432  -30.8287  -38.7130 C.2       7 UNK         0.5020 
     48 O          20.7515  -31.2835  -38.1411 O.2       7 UNK        -0.5147 
     49 N          22.9186  -31.4733  -38.7626 N.am      8 UNK        -0.4734 
     50 CA         23.2164  -32.7506  -38.1020 C.3       8 UNK         0.0238 
     51 CB         24.7236  -33.0333  -38.2134 C.3       8 UNK        -0.1912 
     52 C          22.4015  -33.9409  -38.6401 C.2       8 UNK         0.5038 
     53 O          22.2098  -34.9174  -37.9145 O.2       8 UNK        -0.5046 
     54 N          21.9311  -33.8301  -39.8879 N.am      9 UNK        -0.4200 
     55 CA         21.0039  -34.7671  -40.5335 C.3       9 UNK         0.0839 
     56 C          19.5300  -34.6756  -40.0351 C.2       9 UNK         0.5513 
     57 N          19.1553  -33.7014  -39.2126 N.am      9 UNK        -0.7519 
     58 O          18.7118  -35.5176  -40.3958 O.2       9 UNK        -0.4960 
     59 C59        21.1147  -34.6861  -42.0786 C.3       10 UNK        -0.0876 
     60 S60        20.7401  -33.0312  -42.7600 S.3       10 UNK        -0.2414 
     61 C61        19.1827  -33.3785  -43.6304 C.3       10 UNK         0.0169 
     62 H62        19.7514  -23.3631  -41.6686 H         1 UNK         0.0903 
     63 H63        17.9829  -23.4407  -41.7797 H         1 UNK         0.0903 
     64 H64        18.7505  -22.9233  -40.2904 H         1 UNK         0.0903 
     65 H65        18.6519  -27.0111  -41.0696 H         1 UNK         0.3096 
     66 H66        17.4626  -25.3326  -43.0082 H         1 UNK         0.1121 
     67 H67        18.7257  -28.0744  -43.5032 H         1 UNK         0.0849 
     68 H68        17.4922  -27.2766  -44.4499 H         1 UNK         0.0849 
     69 H69        15.2545  -30.1506  -43.0980 H         1 UNK         0.0865 
     70 H70        15.3337  -28.9665  -44.3747 H         1 UNK         0.0865 
     71 H71        17.2002  -31.7386  -42.7140 H         1 UNK         0.1346 
     72 H72        19.9492  -32.2247  -45.9698 H         1 UNK         0.1412 
     73 H73        17.0974  -29.0159  -46.0063 H         1 UNK         0.1426 
     74 H74        18.8649  -30.6677  -48.2684 H         1 UNK         0.0716 
     75 H75        20.3179  -30.2299  -47.3983 H         1 UNK         0.0716 
     76 H76        20.2657  -27.0885  -49.3747 H         1 UNK         0.0695 
     77 H77        21.0406  -28.5893  -48.9864 H         1 UNK         0.0695 
     78 H78        22.1781  -26.4573  -48.1501 H         1 UNK         0.0983 
     79 H79        19.6860  -26.0708  -46.7364 H         1 UNK         0.3095 
     80 H80        20.9191  -23.3762  -44.7392 H         1 UNK         0.0454 
     81 H81        18.9696  -23.3797  -47.1035 H         1 UNK         0.0851 
     82 H82        20.3938  -22.3595  -46.9636 H         1 UNK         0.0851 
     83 H83        19.0692  -22.1618  -45.8312 H         1 UNK         0.0851 
     84 H84        18.3081  -24.3385  -44.8548 H         1 UNK         0.2976 
     85 H85        20.9277  -27.5639  -45.0823 H         1 UNK         0.3116 
     86 H86        22.8255  -29.7960  -44.8374 H         1 UNK         0.0646 
     87 H87        20.5208  -29.8877  -43.8059 H         1 UNK         0.0847 
     88 H88        20.9738  -28.5743  -42.7217 H         1 UNK         0.0847 
     89 H89        21.8140  -30.1188  -42.6481 H         1 UNK         0.0847 
     90 H90        22.3734  -26.5002  -43.6109 H         1 UNK         0.3040 
     91 H91        23.6200  -24.9264  -42.7760 H         1 UNK         0.1015 
     92 H92        26.0869  -24.8726  -43.0337 H         1 UNK         0.0786 
     93 H93        25.3064  -25.3655  -44.5281 H         1 UNK         0.0786 
     94 H94        26.1068  -26.5621  -43.5123 H         1 UNK         0.0786 
     95 H95        25.1410  -27.9775  -41.7245 H         1 UNK         0.3172 
     96 H96        25.5224  -27.0434  -38.9579 H         1 UNK         0.0595 
     97 H97        25.9845  -29.7819  -40.2663 H         1 UNK         0.0839 
     98 H98        26.4599  -29.3384  -38.6320 H         1 UNK         0.0839 
     99 H99        27.2054  -28.5376  -40.0044 H         1 UNK         0.0839 
    100 H100       23.1366  -28.7886  -40.7822 H         1 UNK         0.2998 
    101 H101       21.1546  -29.7058  -40.4010 H         1 UNK         0.0822 
    102 H102       20.6821  -27.5251  -39.2549 H         1 UNK         0.0787 
    103 H103       19.7245  -28.8495  -38.6146 H         1 UNK         0.0787 
    104 H104       21.1087  -28.2572  -37.7098 H         1 UNK         0.0787 
    105 H105       23.6794  -31.0292  -39.2549 H         1 UNK         0.3055 
    106 H106       22.9631  -32.6433  -37.0448 H         1 UNK         0.1106 
    107 H107       25.0416  -33.1306  -39.2522 H         1 UNK         0.0828 
    108 H108       24.9850  -33.9624  -37.7047 H         1 UNK         0.0828 
    109 H109       25.3123  -32.2391  -37.7536 H         1 UNK         0.0828 
    110 H110       22.1287  -32.9853  -40.4027 H         1 UNK         0.2931 
    111 H111       21.3325  -35.7710  -40.2572 H         1 UNK         0.0412 
    112 H112       19.8099  -32.9934  -38.9020 H         1 UNK         0.3472 
    113 H113       18.1984  -33.6665  -38.8992 H         1 UNK         0.3472 
    114 H114       22.1306  -34.9446  -42.3808 H         1 UNK         0.0970 
    115 H115       20.4787  -35.4398  -42.5470 H         1 UNK         0.0970 
    116 H116       18.4615  -33.7961  -42.9259 H         1 UNK         0.0612 
    117 H117       19.3549  -34.1436  -44.3889 H         1 UNK         0.0612 
@<TRIPOS>BOND
     1    1    2 1    
     2    1   62 1    
     3    1   63 1    
     4    1   64 1    
     5    2    3 2    
     6    2    4 am   BACKBONE|DICT|INTERRES
     7    4    5 1    
     8    4   65 1    
     9    5    6 1    
    10    5   25 1    
    11    5   66 1    
    12    6    7 1    
    13    6   67 1    
    14    6   68 1    
    15    7    8 1    
    16    8    9 1    
    17    8   69 1    
    18    8   70 1    
    19    9   10 ar   
    20    9   14 ar   
    21   10   11 ar   
    22   10   71 1    
    23   11   12 ar   
    24   11   61 1    
    25   12   13 ar   
    26   12   72 1    
    27   13   14 ar   
    28   13   15 1    
    29   14   73 1    
    30   15   16 1    
    31   15   74 1    
    32   15   75 1    
    33   16   17 1    
    34   17   18 1    
    35   17   76 1    
    36   17   77 1    
    37   18   19 1    
    38   18   27 1    
    39   18   78 1    
    40   19   20 am   BACKBONE|DICT|INTERRES
    41   19   79 1    
    42   20   21 2    
    43   20   22 1    
    44   22   23 1    
    45   22   24 1    
    46   22   80 1    
    47   23   81 1    
    48   23   82 1    
    49   23   83 1    
    50   24   25 am   BACKBONE|DICT|INTERRES
    51   24   84 1    
    52   25   26 2    
    53   27   28 2    
    54   27   29 am   BACKBONE|DICT|INTERRES
    55   29   30 1    
    56   29   85 1    
    57   30   31 1    
    58   30   32 1    
    59   30   86 1    
    60   31   87 1    
    61   31   88 1    
    62   31   89 1    
    63   32   33 2    
    64   32   34 am   BACKBONE|DICT|INTERRES
    65   34   35 1    
    66   34   90 1    
    67   35   36 1    
    68   35   37 1    
    69   35   91 1    
    70   36   92 1    
    71   36   93 1    
    72   36   94 1    
    73   37   38 2    
    74   37   39 am   BACKBONE|DICT|INTERRES
    75   39   40 1    
    76   39   95 1    
    77   40   41 1    
    78   40   42 1    
    79   40   96 1    
    80   41   97 1    
    81   41   98 1    
    82   41   99 1    
    83   42   43 2    
    84   42   44 am   BACKBONE|DICT|INTERRES
    85   44   45 1    
    86   44  100 1    
    87   45   46 1    
    88   45   47 1    
    89   45  101 1    
    90   46  102 1    
    91   46  103 1    
    92   46  104 1    
    93   47   48 2    
    94   47   49 am   BACKBONE|DICT|INTERRES
    95   49   50 1    
    96   49  105 1    
    97   50   51 1    
    98   50   52 1    
    99   50  106 1    
   100   51  107 1    
   101   51  108 1    
   102   51  109 1    
   103   52   53 2    
   104   52   54 am   BACKBONE|DICT|INTERRES
   105   54   55 1    
   106   54  110 1    
   107   55   56 1    
   108   55   59 1    
   109   55  111 1    
   110   56   57 am   BACKBONE|DICT|INTERRES
   111   56   58 2    
   112   57  112 1    
   113   57  113 1    
   114   59   60 1    
   115   59  114 1    
   116   59  115 1    
   117   60   61 1    
   118   61  116 1    
   119   61  117 1    
@<TRIPOS>SUBSTRUCTURE
     1 UNK         1 GROUP             0       ****    0 ROOT    
