@<TRIPOS>MOLECULE
3R8
117   119    1
SMALL
USER_CHARGES


@<TRIPOS>ATOM
      1 CA         15.9399  -26.4043  -40.2926 C.3       0 UNK        -0.2013 
      2 C          15.7440  -27.6126  -41.2056 C.2       0 UNK         0.4866 
      3 O          15.1539  -28.5992  -40.7722 O.2       0 UNK        -0.5176 
      4 N          16.1939  -27.5798  -42.4674 N.am      1 UNK        -0.4884 
      5 CA         16.8715  -26.4611  -43.1343 C.3       1 UNK         0.0853 
      6 C6         16.7866  -26.5382  -44.6844 C.3       10 UNK        -0.0849 
      7 S7         15.1303  -27.0017  -45.3103 S.3       10 UNK        -0.2776 
      8 C8         15.4831  -28.4309  -46.3949 C.3       10 UNK         0.0316 
      9 C9         16.3697  -29.4841  -45.7389 C.ar      10 UNK        -0.0863 
     10 C10        15.9090  -30.2213  -44.6425 C.ar      10 UNK        -0.1009 
     11 C11        16.7376  -31.1656  -44.0266 C.ar      10 UNK        -0.0712 
     12 C12        18.0172  -31.3908  -44.5352 C.ar      10 UNK        -0.0894 
     13 C13        18.5033  -30.6351  -45.6019 C.ar      10 UNK        -0.0745 
     14 C14        17.6684  -29.6983  -46.2160 C.ar      10 UNK        -0.0972 
     15 C15        19.9462  -30.8098  -46.0462 C.3       10 UNK         0.0209 
     16 S16        21.0580  -29.7673  -45.0473 S.3       10 UNK        -0.2568 
     17 C17        21.0096  -28.2104  -45.9986 C.3       10 UNK        -0.0983 
     18 CA         21.7909  -27.0306  -45.3657 C.3       3 UNK         0.0876 
     19 N          21.1461  -26.5445  -44.1416 N.am      3 UNK        -0.4424 
     20 C          21.2149  -25.2860  -43.6878 C.2       2 UNK         0.4918 
     21 O          21.8823  -24.4051  -44.2321 O.2       2 UNK        -0.4875 
     22 CA         20.3534  -24.9507  -42.4519 C.3       2 UNK         0.0481 
     23 CB         20.5357  -23.4971  -41.9781 C.3       2 UNK        -0.1831 
     24 N          18.9309  -25.1944  -42.7112 N.am      2 UNK        -0.4498 
     25 C          18.3487  -26.4002  -42.7052 C.2       1 UNK         0.5027 
     26 O          18.9514  -27.4409  -42.4330 O.2       1 UNK        -0.4969 
     27 C          23.2968  -27.3334  -45.1974 C.2       3 UNK         0.5005 
     28 O          23.9602  -27.6108  -46.1983 O.2       3 UNK        -0.5279 
     29 N          23.8101  -27.2760  -43.9575 N.am      4 UNK        -0.4463 
     30 CA         25.1992  -27.5325  -43.5637 C.3       4 UNK         0.0283 
     31 CB         26.1722  -26.5337  -44.2271 C.3       4 UNK        -0.1875 
     32 C          25.6342  -29.0011  -43.7282 C.2       4 UNK         0.4949 
     33 O          26.8301  -29.2624  -43.8652 O.2       4 UNK        -0.5039 
     34 N          24.6786  -29.9415  -43.6642 N.am      5 UNK        -0.4663 
     35 CA         24.9566  -31.3811  -43.6025 C.3       5 UNK         0.0242 
     36 CB         23.6811  -32.1767  -43.9160 C.3       5 UNK        -0.1982 
     37 C          25.5536  -31.7723  -42.2394 C.2       5 UNK         0.5017 
     38 O          26.5429  -32.5042  -42.1940 O.2       5 UNK        -0.5012 
     39 N          24.9867  -31.2083  -41.1671 N.am      6 UNK        -0.4439 
     40 CA         25.5657  -31.1565  -39.8262 C.3       6 UNK         0.0297 
     41 CB         25.2859  -32.4553  -39.0455 C.3       6 UNK        -0.2006 
     42 C          24.9972  -29.9014  -39.1574 C.2       6 UNK         0.4892 
     43 O          24.1863  -30.0047  -38.2349 O.2       6 UNK        -0.5089 
     44 N          25.3581  -28.7384  -39.7239 N.am      7 UNK        -0.4243 
     45 CA         24.7682  -27.4039  -39.5302 C.3       7 UNK         0.0196 
     46 CB         24.8587  -26.9233  -38.0672 C.3       7 UNK        -0.2007 
     47 C          23.3333  -27.3373  -40.0817 C.2       7 UNK         0.5020 
     48 O          23.0868  -26.6296  -41.0588 O.2       7 UNK        -0.5147 
     49 N          22.4393  -28.1314  -39.4860 N.am      8 UNK        -0.4734 
     50 CA         21.1187  -28.4579  -40.0134 C.3       8 UNK         0.0238 
     51 CB         20.1067  -28.4936  -38.8500 C.3       8 UNK        -0.1912 
     52 C          21.2037  -29.7701  -40.8193 C.2       8 UNK         0.5038 
     53 O          22.2076  -29.9958  -41.5039 O.2       8 UNK        -0.5046 
     54 N          20.1611  -30.6061  -40.7156 N.am      9 UNK        -0.4200 
     55 CA         19.9764  -31.8697  -41.4477 C.3       9 UNK         0.0839 
     56 C          21.0685  -32.9564  -41.2306 C.2       9 UNK         0.5513 
     57 N          21.8736  -32.8886  -40.1796 N.am      9 UNK        -0.7519 
     58 O          21.1733  -33.8852  -42.0268 O.2       9 UNK        -0.4960 
     59 C59        18.5767  -32.4990  -41.1853 C.3       10 UNK        -0.0876 
     60 S60        17.1606  -31.3477  -41.2997 S.3       10 UNK        -0.2414 
     61 C61        16.2740  -31.9178  -42.7894 C.3       10 UNK         0.0169 
     62 H62        15.5189  -26.6021  -39.3068 H         1 UNK         0.0903 
     63 H63        16.9971  -26.1804  -40.1561 H         1 UNK         0.0903 
     64 H64        15.4369  -25.5244  -40.6920 H         1 UNK         0.0903 
     65 H65        16.0999  -28.4091  -43.0366 H         1 UNK         0.3096 
     66 H66        16.3813  -25.5353  -42.8282 H         1 UNK         0.1121 
     67 H67        17.0415  -25.5687  -45.1163 H         1 UNK         0.0849 
     68 H68        17.5340  -27.2265  -45.0788 H         1 UNK         0.0849 
     69 H69        14.5394  -28.8916  -46.6900 H         1 UNK         0.0865 
     70 H70        15.9397  -28.0639  -47.3155 H         1 UNK         0.0865 
     71 H71        14.9139  -30.0420  -44.2580 H         1 UNK         0.1346 
     72 H72        18.6531  -32.1302  -44.0736 H         1 UNK         0.1412 
     73 H73        18.0413  -29.1159  -47.0473 H         1 UNK         0.1426 
     74 H74        20.0584  -30.5771  -47.1062 H         1 UNK         0.0716 
     75 H75        20.2451  -31.8526  -45.9292 H         1 UNK         0.0716 
     76 H76        19.9678  -27.9191  -46.1356 H         1 UNK         0.0695 
     77 H77        21.3936  -28.4140  -46.9999 H         1 UNK         0.0695 
     78 H78        21.7475  -26.2159  -46.0923 H         1 UNK         0.0983 
     79 H79        20.5596  -27.2062  -43.6422 H         1 UNK         0.3095 
     80 H80        20.6807  -25.5969  -41.6375 H         1 UNK         0.0454 
     81 H81        21.5811  -23.2946  -41.7411 H         1 UNK         0.0851 
     82 H82        19.9580  -23.2984  -41.0754 H         1 UNK         0.0851 
     83 H83        20.2284  -22.7792  -42.7395 H         1 UNK         0.0851 
     84 H84        18.3872  -24.3883  -42.9864 H         1 UNK         0.2976 
     85 H85        23.1870  -27.0394  -43.1922 H         1 UNK         0.3116 
     86 H86        25.2399  -27.3405  -42.4931 H         1 UNK         0.0646 
     87 H87        25.8401  -25.5048  -44.0895 H         1 UNK         0.0847 
     88 H88        26.2752  -26.7143  -45.2973 H         1 UNK         0.0847 
     89 H89        27.1689  -26.6109  -43.7912 H         1 UNK         0.0847 
     90 H90        23.7164  -29.6544  -43.5369 H         1 UNK         0.3040 
     91 H91        25.6990  -31.6229  -44.3665 H         1 UNK         0.1015 
     92 H92        23.8461  -33.2489  -43.8020 H         1 UNK         0.0786 
     93 H93        23.3526  -32.0051  -44.9411 H         1 UNK         0.0786 
     94 H94        22.8603  -31.8996  -43.2564 H         1 UNK         0.0786 
     95 H95        24.1358  -30.6667  -41.3036 H         1 UNK         0.3172 
     96 H96        26.6473  -31.0270  -39.9060 H         1 UNK         0.0595 
     97 H97        24.2211  -32.6107  -38.8811 H         1 UNK         0.0839 
     98 H98        25.7610  -32.4237  -38.0644 H         1 UNK         0.0839 
     99 H99        25.6773  -33.3285  -39.5672 H         1 UNK         0.0839 
    100 H100       26.0311  -28.7944  -40.4756 H         1 UNK         0.2998 
    101 H101       25.3689  -26.7174  -40.1291 H         1 UNK         0.0822 
    102 H102       25.8894  -26.9332  -37.7128 H         1 UNK         0.0787 
    103 H103       24.4946  -25.8992  -37.9755 H         1 UNK         0.0787 
    104 H104       24.2672  -27.5355  -37.3864 H         1 UNK         0.0787 
    105 H105       22.8020  -28.7508  -38.7662 H         1 UNK         0.3055 
    106 H106       20.8033  -27.6828  -40.7100 H         1 UNK         0.1106 
    107 H107       20.1364  -27.5650  -38.2796 H         1 UNK         0.0828 
    108 H108       19.0841  -28.6022  -39.2145 H         1 UNK         0.0828 
    109 H109       20.3090  -29.3120  -38.1576 H         1 UNK         0.0828 
    110 H110       19.3806  -30.3298  -40.1395 H         1 UNK         0.2931 
    111 H111       20.0423  -31.5961  -42.4998 H         1 UNK         0.0412 
    112 H112       21.7970  -32.1279  -39.5246 H         1 UNK         0.3472 
    113 H113       22.5696  -33.6046  -40.0500 H         1 UNK         0.3472 
    114 H114       18.4123  -33.3400  -41.8612 H         1 UNK         0.0970 
    115 H115       18.5482  -32.9263  -40.1809 H         1 UNK         0.0970 
    116 H116       15.2066  -31.7571  -42.6308 H         1 UNK         0.0612 
    117 H117       16.4009  -32.9917  -42.9302 H         1 UNK         0.0612 
@<TRIPOS>BOND
     1    1    2 1    
     2    1   62 1    
     3    1   63 1    
     4    1   64 1    
     5    2    3 2    
     6    2    4 am   BACKBONE|DICT|INTERRES
     7    4    5 1    
     8    4   65 1    
     9    5    6 1    
    10    5   25 1    
    11    5   66 1    
    12    6    7 1    
    13    6   67 1    
    14    6   68 1    
    15    7    8 1    
    16    8    9 1    
    17    8   69 1    
    18    8   70 1    
    19    9   10 ar   
    20    9   14 ar   
    21   10   11 ar   
    22   10   71 1    
    23   11   12 ar   
    24   11   61 1    
    25   12   13 ar   
    26   12   72 1    
    27   13   14 ar   
    28   13   15 1    
    29   14   73 1    
    30   15   16 1    
    31   15   74 1    
    32   15   75 1    
    33   16   17 1    
    34   17   18 1    
    35   17   76 1    
    36   17   77 1    
    37   18   19 1    
    38   18   27 1    
    39   18   78 1    
    40   19   20 am   BACKBONE|DICT|INTERRES
    41   19   79 1    
    42   20   21 2    
    43   20   22 1    
    44   22   23 1    
    45   22   24 1    
    46   22   80 1    
    47   23   81 1    
    48   23   82 1    
    49   23   83 1    
    50   24   25 am   BACKBONE|DICT|INTERRES
    51   24   84 1    
    52   25   26 2    
    53   27   28 2    
    54   27   29 am   BACKBONE|DICT|INTERRES
    55   29   30 1    
    56   29   85 1    
    57   30   31 1    
    58   30   32 1    
    59   30   86 1    
    60   31   87 1    
    61   31   88 1    
    62   31   89 1    
    63   32   33 2    
    64   32   34 am   BACKBONE|DICT|INTERRES
    65   34   35 1    
    66   34   90 1    
    67   35   36 1    
    68   35   37 1    
    69   35   91 1    
    70   36   92 1    
    71   36   93 1    
    72   36   94 1    
    73   37   38 2    
    74   37   39 am   BACKBONE|DICT|INTERRES
    75   39   40 1    
    76   39   95 1    
    77   40   41 1    
    78   40   42 1    
    79   40   96 1    
    80   41   97 1    
    81   41   98 1    
    82   41   99 1    
    83   42   43 2    
    84   42   44 am   BACKBONE|DICT|INTERRES
    85   44   45 1    
    86   44  100 1    
    87   45   46 1    
    88   45   47 1    
    89   45  101 1    
    90   46  102 1    
    91   46  103 1    
    92   46  104 1    
    93   47   48 2    
    94   47   49 am   BACKBONE|DICT|INTERRES
    95   49   50 1    
    96   49  105 1    
    97   50   51 1    
    98   50   52 1    
    99   50  106 1    
   100   51  107 1    
   101   51  108 1    
   102   51  109 1    
   103   52   53 2    
   104   52   54 am   BACKBONE|DICT|INTERRES
   105   54   55 1    
   106   54  110 1    
   107   55   56 1    
   108   55   59 1    
   109   55  111 1    
   110   56   57 am   BACKBONE|DICT|INTERRES
   111   56   58 2    
   112   57  112 1    
   113   57  113 1    
   114   59   60 1    
   115   59  114 1    
   116   59  115 1    
   117   60   61 1    
   118   61  116 1    
   119   61  117 1    
@<TRIPOS>SUBSTRUCTURE
     1 UNK         1 GROUP             0       ****    0 ROOT    
