@<TRIPOS>MOLECULE
3R8
117   119    1
SMALL
USER_CHARGES


@<TRIPOS>ATOM
      1 CA         22.4892  -22.2971  -43.8428 C.3       0 UNK        -0.2013 
      2 C          22.1657  -23.7809  -43.7589 C.2       0 UNK         0.4866 
      3 O          22.7951  -24.4970  -42.9803 O.2       0 UNK        -0.5176 
      4 N          21.1964  -24.2425  -44.5587 N.am      1 UNK        -0.4884 
      5 CA         20.7217  -25.6274  -44.5811 C.3       1 UNK         0.0853 
      6 C6         20.3286  -26.0898  -46.0099 C.3       10 UNK        -0.0849 
      7 S7         21.7820  -26.6386  -46.9598 S.3       10 UNK        -0.2776 
      8 C8         21.0653  -27.9228  -48.0426 C.3       10 UNK         0.0316 
      9 C9         20.4259  -29.0785  -47.2772 C.ar      10 UNK        -0.0863 
     10 C10        21.2026  -29.9034  -46.4571 C.ar      10 UNK        -0.1009 
     11 C11        20.6224  -30.9828  -45.7833 C.ar      10 UNK        -0.0712 
     12 C12        19.2572  -31.2401  -45.9382 C.ar      10 UNK        -0.0894 
     13 C13        18.4658  -30.4160  -46.7432 C.ar      10 UNK        -0.0745 
     14 C14        19.0572  -29.3397  -47.4130 C.ar      10 UNK        -0.0972 
     15 C15        16.9782  -30.7009  -46.9094 C.3       10 UNK         0.0209 
     16 S16        15.9384  -29.4773  -46.0473 S.3       10 UNK        -0.2568 
     17 C17        16.0923  -29.9806  -44.2965 C.3       10 UNK        -0.0983 
     18 CA         17.2938  -29.3130  -43.5764 C.3       3 UNK         0.0876 
     19 N          17.3440  -27.8575  -43.7377 N.am      3 UNK        -0.4424 
     20 C          16.5976  -26.9207  -43.1362 C.2       2 UNK         0.4918 
     21 O          15.6027  -27.1689  -42.4546 O.2       2 UNK        -0.4875 
     22 CA         17.0680  -25.4526  -43.2927 C.3       2 UNK         0.0481 
     23 CB         17.0782  -24.7236  -41.9327 C.3       2 UNK        -0.1831 
     24 N          18.3692  -25.2834  -43.9705 N.am      2 UNK        -0.4498 
     25 C          19.5538  -25.7986  -43.5974 C.2       1 UNK         0.5027 
     26 O          19.7111  -26.4667  -42.5745 O.2       1 UNK        -0.4969 
     27 C          17.4592  -29.7432  -42.0994 C.2       3 UNK         0.5005 
     28 O          16.8041  -30.6877  -41.6533 O.2       3 UNK        -0.5279 
     29 N          18.3203  -29.0225  -41.3651 N.am      4 UNK        -0.4463 
     30 CA         18.5751  -29.2172  -39.9356 C.3       4 UNK         0.0283 
     31 CB         17.4913  -28.5048  -39.1058 C.3       4 UNK        -0.1875 
     32 C          19.9759  -28.7448  -39.5180 C.2       4 UNK         0.4949 
     33 O          20.5392  -29.3077  -38.5786 O.2       4 UNK        -0.5039 
     34 N          20.5158  -27.7252  -40.1998 N.am      5 UNK        -0.4663 
     35 CA         21.8872  -27.2528  -40.0449 C.3       5 UNK         0.0242 
     36 CB         21.9048  -25.7125  -40.0648 C.3       5 UNK        -0.1982 
     37 C          22.7582  -27.9326  -41.1141 C.2       5 UNK         0.5017 
     38 O          22.8519  -29.1607  -41.0930 O.2       5 UNK        -0.5012 
     39 N          23.4053  -27.1645  -42.0040 N.am      6 UNK        -0.4439 
     40 CA         24.4246  -27.6171  -42.9606 C.3       6 UNK         0.0297 
     41 CB         23.8018  -28.5046  -44.0647 C.3       6 UNK        -0.2006 
     42 C          25.6097  -28.2727  -42.2214 C.2       6 UNK         0.4892 
     43 O          26.3468  -27.5693  -41.5297 O.2       6 UNK        -0.5089 
     44 N          25.7401  -29.6005  -42.3370 N.am      7 UNK        -0.4243 
     45 CA         26.7098  -30.4328  -41.6175 C.3       7 UNK         0.0196 
     46 CB         27.1783  -31.5555  -42.5627 C.3       7 UNK        -0.2007 
     47 C          26.1383  -31.0041  -40.3000 C.2       7 UNK         0.5020 
     48 O          26.6713  -31.9927  -39.7955 O.2       7 UNK        -0.5147 
     49 N          25.0558  -30.3991  -39.7870 N.am      8 UNK        -0.4734 
     50 CA         24.1864  -30.8561  -38.6935 C.3       8 UNK         0.0238 
     51 CB         24.9561  -31.0040  -37.3629 C.3       8 UNK        -0.1912 
     52 C          23.4088  -32.1182  -39.1076 C.2       8 UNK         0.5038 
     53 O          23.3926  -33.1080  -38.3720 O.2       8 UNK        -0.5046 
     54 N          22.8211  -32.0671  -40.3103 N.am      9 UNK        -0.4200 
     55 CA         22.0719  -33.1692  -40.9243 C.3       9 UNK         0.0839 
     56 C          20.6607  -33.3908  -40.3096 C.2       9 UNK         0.5513 
     57 N          20.0406  -34.5301  -40.5887 N.am      9 UNK        -0.7519 
     58 O          20.1177  -32.5530  -39.5939 O.2       9 UNK        -0.4960 
     59 C59        22.0600  -33.0561  -42.4714 C.3       10 UNK        -0.0876 
     60 S60        21.2074  -31.5874  -43.1419 S.3       10 UNK        -0.2414 
     61 C61        21.4693  -31.8986  -44.9150 C.3       10 UNK         0.0169 
     62 H62        23.5296  -22.1574  -44.1355 H         1 UNK         0.0903 
     63 H63        21.8602  -21.7808  -44.5678 H         1 UNK         0.0903 
     64 H64        22.3428  -21.8272  -42.8705 H         1 UNK         0.0903 
     65 H65        20.7210  -23.5994  -45.1758 H         1 UNK         0.3096 
     66 H66        21.5120  -26.2865  -44.2164 H         1 UNK         0.1121 
     67 H67        19.6220  -26.9192  -45.9673 H         1 UNK         0.0849 
     68 H68        19.8233  -25.2971  -46.5642 H         1 UNK         0.0849 
     69 H69        20.3416  -27.4529  -48.7106 H         1 UNK         0.0865 
     70 H70        21.8537  -28.3196  -48.6836 H         1 UNK         0.0865 
     71 H71        22.2609  -29.7077  -46.3524 H         1 UNK         0.1346 
     72 H72        18.8113  -32.0798  -45.4223 H         1 UNK         0.1412 
     73 H73        18.4461  -28.7089  -48.0445 H         1 UNK         0.1426 
     74 H74        16.7313  -30.6795  -47.9718 H         1 UNK         0.0716 
     75 H75        16.7279  -31.7045  -46.5618 H         1 UNK         0.0716 
     76 H76        15.1613  -29.7189  -43.7908 H         1 UNK         0.0695 
     77 H77        16.1700  -31.0682  -44.2482 H         1 UNK         0.0695 
     78 H78        18.2010  -29.6767  -44.0550 H         1 UNK         0.0983 
     79 H79        18.1133  -27.5249  -44.2962 H         1 UNK         0.3095 
     80 H80        16.3285  -24.9635  -43.9282 H         1 UNK         0.0454 
     81 H81        16.0848  -24.7180  -41.4824 H         1 UNK         0.0851 
     82 H82        17.7523  -25.2005  -41.2205 H         1 UNK         0.0851 
     83 H83        17.3868  -23.6842  -42.0416 H         1 UNK         0.0851 
     84 H84        18.3327  -24.7590  -44.8337 H         1 UNK         0.2976 
     85 H85        18.8281  -28.2756  -41.8227 H         1 UNK         0.3116 
     86 H86        18.5309  -30.2865  -39.7184 H         1 UNK         0.0646 
     87 H87        17.6742  -28.6256  -38.0373 H         1 UNK         0.0847 
     88 H88        16.5010  -28.9111  -39.3119 H         1 UNK         0.0847 
     89 H89        17.4639  -27.4349  -39.3158 H         1 UNK         0.0847 
     90 H90        20.0149  -27.2955  -40.9717 H         1 UNK         0.3040 
     91 H91        22.2887  -27.5679  -39.0795 H         1 UNK         0.1015 
     92 H92        21.3659  -25.3107  -39.2066 H         1 UNK         0.0786 
     93 H93        21.4325  -25.3073  -40.9581 H         1 UNK         0.0786 
     94 H94        22.9215  -25.3209  -40.0119 H         1 UNK         0.0786 
     95 H95        23.2326  -26.1618  -42.0050 H         1 UNK         0.3172 
     96 H96        24.8172  -26.7201  -43.4419 H         1 UNK         0.0595 
     97 H97        23.3215  -29.3997  -43.6696 H         1 UNK         0.0839 
     98 H98        24.5550  -28.8217  -44.7872 H         1 UNK         0.0839 
     99 H99        23.0457  -27.9567  -44.6225 H         1 UNK         0.0839 
    100 H100       25.0560  -30.0919  -42.8945 H         1 UNK         0.2998 
    101 H101       27.5813  -29.8306  -41.3513 H         1 UNK         0.0822 
    102 H102       27.5846  -31.1499  -43.4896 H         1 UNK         0.0787 
    103 H103       27.9665  -32.1543  -42.1041 H         1 UNK         0.0787 
    104 H104       26.3621  -32.2319  -42.8205 H         1 UNK         0.0787 
    105 H105       24.6581  -29.6445  -40.3353 H         1 UNK         0.3055 
    106 H106       23.4346  -30.0780  -38.5479 H         1 UNK         0.1106 
    107 H107       24.2688  -31.2077  -36.5410 H         1 UNK         0.0828 
    108 H108       25.6732  -31.8245  -37.3912 H         1 UNK         0.0828 
    109 H109       25.4977  -30.0917  -37.1142 H         1 UNK         0.0828 
    110 H110       22.8102  -31.1827  -40.8080 H         1 UNK         0.2931 
    111 H111       22.6325  -34.0780  -40.6947 H         1 UNK         0.0412 
    112 H112       19.1229  -34.6922  -40.2040 H         1 UNK         0.3472 
    113 H113       20.4715  -35.2341  -41.1673 H         1 UNK         0.3472 
    114 H114       21.6058  -33.9477  -42.9070 H         1 UNK         0.0970 
    115 H115       23.0881  -33.0469  -42.8372 H         1 UNK         0.0970 
    116 H116       21.2194  -32.9356  -45.1444 H         1 UNK         0.0612 
    117 H117       22.5290  -31.7775  -45.1455 H         1 UNK         0.0612 
@<TRIPOS>BOND
     1    1    2 1    
     2    1   62 1    
     3    1   63 1    
     4    1   64 1    
     5    2    3 2    
     6    2    4 am   BACKBONE|DICT|INTERRES
     7    4    5 1    
     8    4   65 1    
     9    5    6 1    
    10    5   25 1    
    11    5   66 1    
    12    6    7 1    
    13    6   67 1    
    14    6   68 1    
    15    7    8 1    
    16    8    9 1    
    17    8   69 1    
    18    8   70 1    
    19    9   10 ar   
    20    9   14 ar   
    21   10   11 ar   
    22   10   71 1    
    23   11   12 ar   
    24   11   61 1    
    25   12   13 ar   
    26   12   72 1    
    27   13   14 ar   
    28   13   15 1    
    29   14   73 1    
    30   15   16 1    
    31   15   74 1    
    32   15   75 1    
    33   16   17 1    
    34   17   18 1    
    35   17   76 1    
    36   17   77 1    
    37   18   19 1    
    38   18   27 1    
    39   18   78 1    
    40   19   20 am   BACKBONE|DICT|INTERRES
    41   19   79 1    
    42   20   21 2    
    43   20   22 1    
    44   22   23 1    
    45   22   24 1    
    46   22   80 1    
    47   23   81 1    
    48   23   82 1    
    49   23   83 1    
    50   24   25 am   BACKBONE|DICT|INTERRES
    51   24   84 1    
    52   25   26 2    
    53   27   28 2    
    54   27   29 am   BACKBONE|DICT|INTERRES
    55   29   30 1    
    56   29   85 1    
    57   30   31 1    
    58   30   32 1    
    59   30   86 1    
    60   31   87 1    
    61   31   88 1    
    62   31   89 1    
    63   32   33 2    
    64   32   34 am   BACKBONE|DICT|INTERRES
    65   34   35 1    
    66   34   90 1    
    67   35   36 1    
    68   35   37 1    
    69   35   91 1    
    70   36   92 1    
    71   36   93 1    
    72   36   94 1    
    73   37   38 2    
    74   37   39 am   BACKBONE|DICT|INTERRES
    75   39   40 1    
    76   39   95 1    
    77   40   41 1    
    78   40   42 1    
    79   40   96 1    
    80   41   97 1    
    81   41   98 1    
    82   41   99 1    
    83   42   43 2    
    84   42   44 am   BACKBONE|DICT|INTERRES
    85   44   45 1    
    86   44  100 1    
    87   45   46 1    
    88   45   47 1    
    89   45  101 1    
    90   46  102 1    
    91   46  103 1    
    92   46  104 1    
    93   47   48 2    
    94   47   49 am   BACKBONE|DICT|INTERRES
    95   49   50 1    
    96   49  105 1    
    97   50   51 1    
    98   50   52 1    
    99   50  106 1    
   100   51  107 1    
   101   51  108 1    
   102   51  109 1    
   103   52   53 2    
   104   52   54 am   BACKBONE|DICT|INTERRES
   105   54   55 1    
   106   54  110 1    
   107   55   56 1    
   108   55   59 1    
   109   55  111 1    
   110   56   57 am   BACKBONE|DICT|INTERRES
   111   56   58 2    
   112   57  112 1    
   113   57  113 1    
   114   59   60 1    
   115   59  114 1    
   116   59  115 1    
   117   60   61 1    
   118   61  116 1    
   119   61  117 1    
@<TRIPOS>SUBSTRUCTURE
     1 UNK         1 GROUP             0       ****    0 ROOT    
