@<TRIPOS>MOLECULE
3R8
117   119    1
SMALL
USER_CHARGES


@<TRIPOS>ATOM
      1 CA         17.6435  -22.5918  -41.1077 C.3       0 UNK        -0.2013 
      2 C          17.9850  -22.9893  -42.5357 C.2       0 UNK         0.4866 
      3 O          18.6667  -22.2388  -43.2347 O.2       0 UNK        -0.5176 
      4 N          17.5113  -24.1613  -42.9756 N.am      1 UNK        -0.4884 
      5 CA         17.8242  -24.7702  -44.2724 C.3       1 UNK         0.0853 
      6 C6         16.8540  -25.9295  -44.6341 C.3       10 UNK        -0.0849 
      7 S7         16.4047  -27.0206  -43.2371 S.3       10 UNK        -0.2776 
      8 C8         15.5479  -28.3815  -44.0878 C.3       10 UNK         0.0316 
      9 C9         16.4948  -29.5406  -44.3508 C.ar      10 UNK        -0.0863 
     10 C10        16.6568  -30.5414  -43.3867 C.ar      10 UNK        -0.1009 
     11 C11        17.5454  -31.5976  -43.6045 C.ar      10 UNK        -0.0712 
     12 C12        18.2584  -31.6592  -44.8032 C.ar      10 UNK        -0.0894 
     13 C13        18.1183  -30.6555  -45.7662 C.ar      10 UNK        -0.0745 
     14 C14        17.2240  -29.6050  -45.5420 C.ar      10 UNK        -0.0972 
     15 C15        18.9650  -30.6909  -47.0302 C.3       10 UNK         0.0209 
     16 S16        20.3043  -29.4522  -46.9989 S.3       10 UNK        -0.2568 
     17 C17        21.2576  -29.9218  -45.5057 C.3       10 UNK        -0.0983 
     18 CA         21.8877  -28.7533  -44.6840 C.3       3 UNK         0.0876 
     19 N          21.3832  -27.4104  -44.9724 N.am      3 UNK        -0.4424 
     20 C          21.9778  -26.5066  -45.7528 C.2       2 UNK         0.4918 
     21 O          22.9781  -26.7499  -46.4297 O.2       2 UNK        -0.4875 
     22 CA         21.3814  -25.0798  -45.7594 C.3       2 UNK         0.0481 
     23 CB         21.6983  -24.3308  -47.0675 C.3       2 UNK        -0.1831 
     24 N          19.9373  -24.9755  -45.5004 N.am      2 UNK        -0.4498 
     25 C          19.3062  -25.1948  -44.3378 C.2       1 UNK         0.5027 
     26 O          19.8449  -25.7118  -43.3547 O.2       1 UNK        -0.4969 
     27 C          21.7635  -28.9663  -43.1669 C.2       3 UNK         0.5005 
     28 O          22.7559  -29.3017  -42.5200 O.2       3 UNK        -0.5279 
     29 N          20.5769  -28.6839  -42.6033 N.am      4 UNK        -0.4463 
     30 CA         20.3244  -28.6566  -41.1575 C.3       4 UNK         0.0283 
     31 CB         18.8378  -28.3818  -40.8931 C.3       4 UNK        -0.1875 
     32 C          21.1916  -27.6273  -40.4169 C.2       4 UNK         0.4949 
     33 O          21.6923  -27.9272  -39.3341 O.2       4 UNK        -0.5039 
     34 N          21.4196  -26.4656  -41.0464 N.am      5 UNK        -0.4663 
     35 CA         22.3328  -25.4177  -40.5781 C.3       5 UNK         0.0242 
     36 CB         22.1775  -24.1838  -41.4818 C.3       5 UNK        -0.1982 
     37 C          23.8106  -25.8560  -40.5124 C.2       5 UNK         0.5017 
     38 O          24.5787  -25.2561  -39.7602 O.2       5 UNK        -0.5012 
     39 N          24.1757  -26.8924  -41.2802 N.am      6 UNK        -0.4439 
     40 CA         25.4945  -27.5293  -41.2817 C.3       6 UNK         0.0297 
     41 CB         25.9048  -27.7980  -42.7410 C.3       6 UNK        -0.2006 
     42 C          25.5149  -28.8353  -40.4610 C.2       6 UNK         0.4892 
     43 O          26.5588  -29.4872  -40.4162 O.2       6 UNK        -0.5089 
     44 N          24.3772  -29.2044  -39.8475 N.am      7 UNK        -0.4243 
     45 CA         24.1170  -30.4440  -39.1045 C.3       7 UNK         0.0196 
     46 CB         24.9567  -30.4981  -37.8105 C.3       7 UNK        -0.2007 
     47 C          24.2537  -31.7179  -39.9648 C.2       7 UNK         0.5020 
     48 O          24.6295  -32.7709  -39.4468 O.2       7 UNK        -0.5147 
     49 N          23.9317  -31.6168  -41.2627 N.am      8 UNK        -0.4734 
     50 CA         24.0473  -32.7108  -42.2350 C.3       8 UNK         0.0238 
     51 CB         24.0373  -32.1217  -43.6546 C.3       8 UNK        -0.1912 
     52 C          22.9593  -33.7925  -42.0972 C.2       8 UNK         0.5038 
     53 O          23.1036  -34.8612  -42.6923 O.2       8 UNK        -0.5046 
     54 N          21.8939  -33.4999  -41.3404 N.am      9 UNK        -0.4200 
     55 CA         20.7443  -34.3893  -41.1021 C.3       9 UNK         0.0839 
     56 C          21.0575  -35.6476  -40.2404 C.2       9 UNK         0.5513 
     57 N          22.1883  -35.7163  -39.5473 N.am      9 UNK        -0.7519 
     58 O          20.2562  -36.5776  -40.2019 O.2       9 UNK        -0.4960 
     59 C59        19.5250  -33.6243  -40.5186 C.3       10 UNK        -0.0876 
     60 S60        19.1294  -32.1003  -41.4370 S.3       10 UNK        -0.2414 
     61 C61        17.7843  -32.6438  -42.5287 C.3       10 UNK         0.0169 
     62 H62        17.1054  -21.6443  -41.0997 H         1 UNK         0.0903 
     63 H63        17.0225  -23.3392  -40.6141 H         1 UNK         0.0903 
     64 H64        18.5563  -22.4713  -40.5249 H         1 UNK         0.0903 
     65 H65        16.9786  -24.7550  -42.3545 H         1 UNK         0.3096 
     66 H66        17.6856  -23.9888  -45.0234 H         1 UNK         0.1121 
     67 H67        17.2495  -26.5308  -45.4548 H         1 UNK         0.0849 
     68 H68        15.9239  -25.5017  -45.0117 H         1 UNK         0.0849 
     69 H69        15.1001  -28.0287  -45.0182 H         1 UNK         0.0865 
     70 H70        14.7185  -28.7180  -43.4638 H         1 UNK         0.0865 
     71 H71        16.1130  -30.4832  -42.4536 H         1 UNK         0.1346 
     72 H72        18.9591  -32.4670  -44.9652 H         1 UNK         0.1412 
     73 H73        17.1175  -28.8269  -46.2853 H         1 UNK         0.1426 
     74 H74        18.3297  -30.5034  -47.8969 H         1 UNK         0.0716 
     75 H75        19.3999  -31.6806  -47.1782 H         1 UNK         0.0716 
     76 H76        22.0537  -30.5894  -45.8382 H         1 UNK         0.0695 
     77 H77        20.6333  -30.5454  -44.8693 H         1 UNK         0.0695 
     78 H78        22.9607  -28.7595  -44.8910 H         1 UNK         0.0983 
     79 H79        20.6265  -27.0698  -44.3895 H         1 UNK         0.3095 
     80 H80        21.8863  -24.5449  -44.9529 H         1 UNK         0.0454 
     81 H81        21.2479  -24.8228  -47.9304 H         1 UNK         0.0851 
     82 H82        22.7733  -24.2799  -47.2457 H         1 UNK         0.0851 
     83 H83        21.3355  -23.3032  -47.0373 H         1 UNK         0.0851 
     84 H84        19.3946  -24.6018  -46.2660 H         1 UNK         0.2976 
     85 H85        19.7916  -28.4521  -43.1945 H         1 UNK         0.3116 
     86 H86        20.5731  -29.6416  -40.7594 H         1 UNK         0.0646 
     87 H87        18.2010  -29.1094  -41.3951 H         1 UNK         0.0847 
     88 H88        18.5475  -27.3874  -41.2335 H         1 UNK         0.0847 
     89 H89        18.6151  -28.4388  -39.8270 H         1 UNK         0.0847 
     90 H90        20.9169  -26.2771  -41.9111 H         1 UNK         0.3040 
     91 H91        22.0321  -25.1440  -39.5644 H         1 UNK         0.1015 
     92 H92        22.8119  -23.3648  -41.1401 H         1 UNK         0.0786 
     93 H93        21.1500  -23.8186  -41.4834 H         1 UNK         0.0786 
     94 H94        22.4543  -24.4042  -42.5133 H         1 UNK         0.0786 
     95 H95        23.4656  -27.3553  -41.8342 H         1 UNK         0.3172 
     96 H96        26.2346  -26.8589  -40.8404 H         1 UNK         0.0595 
     97 H97        25.2384  -28.5126  -43.2251 H         1 UNK         0.0839 
     98 H98        26.9138  -28.2090  -42.7946 H         1 UNK         0.0839 
     99 H99        25.8994  -26.8813  -43.3308 H         1 UNK         0.0839 
    100 H100       23.5758  -28.5892  -39.9291 H         1 UNK         0.2998 
    101 H101       23.0675  -30.3982  -38.8099 H         1 UNK         0.0822 
    102 H102       24.8277  -29.5933  -37.2165 H         1 UNK         0.0787 
    103 H103       24.6578  -31.3398  -37.1846 H         1 UNK         0.0787 
    104 H104       26.0202  -30.6129  -38.0218 H         1 UNK         0.0787 
    105 H105       23.6035  -30.7216  -41.6222 H         1 UNK         0.3055 
    106 H106       25.0099  -33.2028  -42.0776 H         1 UNK         0.1106 
    107 H107       24.2386  -32.8930  -44.3993 H         1 UNK         0.0828 
    108 H108       24.7971  -31.3490  -43.7734 H         1 UNK         0.0828 
    109 H109       23.0694  -31.6840  -43.8956 H         1 UNK         0.0828 
    110 H110       21.8527  -32.5910  -40.9057 H         1 UNK         0.2931 
    111 H111       20.4426  -34.7673  -42.0810 H         1 UNK         0.0412 
    112 H112       22.8526  -34.9574  -39.5745 H         1 UNK         0.3472 
    113 H113       22.3810  -36.5370  -38.9945 H         1 UNK         0.3472 
    114 H114       18.6426  -34.2669  -40.4935 H         1 UNK         0.0970 
    115 H115       19.7188  -33.3413  -39.4822 H         1 UNK         0.0970 
    116 H116       16.8788  -32.8076  -41.9427 H         1 UNK         0.0612 
    117 H117       18.0447  -33.6003  -42.9848 H         1 UNK         0.0612 
@<TRIPOS>BOND
     1    1    2 1    
     2    1   62 1    
     3    1   63 1    
     4    1   64 1    
     5    2    3 2    
     6    2    4 am   BACKBONE|DICT|INTERRES
     7    4    5 1    
     8    4   65 1    
     9    5    6 1    
    10    5   25 1    
    11    5   66 1    
    12    6    7 1    
    13    6   67 1    
    14    6   68 1    
    15    7    8 1    
    16    8    9 1    
    17    8   69 1    
    18    8   70 1    
    19    9   10 ar   
    20    9   14 ar   
    21   10   11 ar   
    22   10   71 1    
    23   11   12 ar   
    24   11   61 1    
    25   12   13 ar   
    26   12   72 1    
    27   13   14 ar   
    28   13   15 1    
    29   14   73 1    
    30   15   16 1    
    31   15   74 1    
    32   15   75 1    
    33   16   17 1    
    34   17   18 1    
    35   17   76 1    
    36   17   77 1    
    37   18   19 1    
    38   18   27 1    
    39   18   78 1    
    40   19   20 am   BACKBONE|DICT|INTERRES
    41   19   79 1    
    42   20   21 2    
    43   20   22 1    
    44   22   23 1    
    45   22   24 1    
    46   22   80 1    
    47   23   81 1    
    48   23   82 1    
    49   23   83 1    
    50   24   25 am   BACKBONE|DICT|INTERRES
    51   24   84 1    
    52   25   26 2    
    53   27   28 2    
    54   27   29 am   BACKBONE|DICT|INTERRES
    55   29   30 1    
    56   29   85 1    
    57   30   31 1    
    58   30   32 1    
    59   30   86 1    
    60   31   87 1    
    61   31   88 1    
    62   31   89 1    
    63   32   33 2    
    64   32   34 am   BACKBONE|DICT|INTERRES
    65   34   35 1    
    66   34   90 1    
    67   35   36 1    
    68   35   37 1    
    69   35   91 1    
    70   36   92 1    
    71   36   93 1    
    72   36   94 1    
    73   37   38 2    
    74   37   39 am   BACKBONE|DICT|INTERRES
    75   39   40 1    
    76   39   95 1    
    77   40   41 1    
    78   40   42 1    
    79   40   96 1    
    80   41   97 1    
    81   41   98 1    
    82   41   99 1    
    83   42   43 2    
    84   42   44 am   BACKBONE|DICT|INTERRES
    85   44   45 1    
    86   44  100 1    
    87   45   46 1    
    88   45   47 1    
    89   45  101 1    
    90   46  102 1    
    91   46  103 1    
    92   46  104 1    
    93   47   48 2    
    94   47   49 am   BACKBONE|DICT|INTERRES
    95   49   50 1    
    96   49  105 1    
    97   50   51 1    
    98   50   52 1    
    99   50  106 1    
   100   51  107 1    
   101   51  108 1    
   102   51  109 1    
   103   52   53 2    
   104   52   54 am   BACKBONE|DICT|INTERRES
   105   54   55 1    
   106   54  110 1    
   107   55   56 1    
   108   55   59 1    
   109   55  111 1    
   110   56   57 am   BACKBONE|DICT|INTERRES
   111   56   58 2    
   112   57  112 1    
   113   57  113 1    
   114   59   60 1    
   115   59  114 1    
   116   59  115 1    
   117   60   61 1    
   118   61  116 1    
   119   61  117 1    
@<TRIPOS>SUBSTRUCTURE
     1 UNK         1 GROUP             0       ****    0 ROOT    
