@<TRIPOS>MOLECULE
3R8
117   119    1
SMALL
USER_CHARGES


@<TRIPOS>ATOM
      1 CA         17.7645  -24.4226  -48.8509 C.3       0 UNK        -0.2013 
      2 C          17.5680  -25.6375  -47.9562 C.2       0 UNK         0.4866 
      3 O          17.9026  -26.7511  -48.3602 O.2       0 UNK        -0.5176 
      4 N          17.0360  -25.4243  -46.7482 N.am      1 UNK        -0.4884 
      5 CA         16.8176  -26.4423  -45.7180 C.3       1 UNK         0.0853 
      6 C6         15.3421  -26.9363  -45.6805 C.3       10 UNK        -0.0849 
      7 S7         15.0446  -28.2562  -46.9030 S.3       10 UNK        -0.2776 
      8 C8         15.0714  -29.7594  -45.8610 C.3       10 UNK         0.0316 
      9 C9         16.3531  -29.9083  -45.0447 C.ar      10 UNK        -0.0863 
     10 C10        16.2890  -30.0796  -43.6577 C.ar      10 UNK        -0.1009 
     11 C11        17.4581  -30.2082  -42.9003 C.ar      10 UNK        -0.0712 
     12 C12        18.6993  -30.1551  -43.5405 C.ar      10 UNK        -0.0894 
     13 C13        18.7788  -29.9723  -44.9237 C.ar      10 UNK        -0.0745 
     14 C14        17.6024  -29.8775  -45.6719 C.ar      10 UNK        -0.0972 
     15 C15        20.1289  -29.8678  -45.6171 C.3       10 UNK         0.0209 
     16 S16        20.8648  -28.2105  -45.4101 S.3       10 UNK        -0.2568 
     17 C17        21.7848  -28.4048  -43.8445 C.3       10 UNK        -0.0983 
     18 CA         21.3960  -27.4093  -42.7171 C.3       3 UNK         0.0876 
     19 N          19.9379  -27.3231  -42.5494 N.am      3 UNK        -0.4424 
     20 C          19.2415  -26.3790  -41.9023 C.2       2 UNK         0.4918 
     21 O          19.7600  -25.4502  -41.2810 O.2       2 UNK        -0.4875 
     22 CA         17.7104  -26.5245  -41.9606 C.3       2 UNK         0.0481 
     23 CB         16.9560  -25.3639  -41.2773 C.3       2 UNK        -0.1831 
     24 N          17.2417  -26.7526  -43.3328 N.am      2 UNK        -0.4498 
     25 C          17.2814  -25.8882  -44.3593 C.2       1 UNK         0.5027 
     26 O          17.6628  -24.7177  -44.2682 O.2       1 UNK        -0.4969 
     27 C          22.1586  -27.7499  -41.4083 C.2       3 UNK         0.5005 
     28 O          23.1119  -28.5329  -41.4417 O.2       3 UNK        -0.5279 
     29 N          21.7354  -27.1819  -40.2720 N.am      4 UNK        -0.4463 
     30 CA         22.2443  -27.4692  -38.9270 C.3       4 UNK         0.0283 
     31 CB         21.3541  -26.7686  -37.8887 C.3       4 UNK        -0.1875 
     32 C          23.7194  -27.0884  -38.7176 C.2       4 UNK         0.4949 
     33 O          24.4027  -27.7462  -37.9340 O.2       4 UNK        -0.5039 
     34 N          24.1906  -26.0582  -39.4346 N.am      5 UNK        -0.4663 
     35 CA         25.5890  -25.6168  -39.4281 C.3       5 UNK         0.0242 
     36 CB         25.6891  -24.2324  -40.0887 C.3       5 UNK        -0.1982 
     37 C          26.5362  -26.6148  -40.1183 C.2       5 UNK         0.5017 
     38 O          27.6857  -26.7454  -39.6967 O.2       5 UNK        -0.5012 
     39 N          26.0350  -27.3000  -41.1552 N.am      6 UNK        -0.4439 
     40 CA         26.7495  -28.3527  -41.8812 C.3       6 UNK         0.0297 
     41 CB         26.2630  -28.3708  -43.3402 C.3       6 UNK        -0.2006 
     42 C          26.5532  -29.7396  -41.2449 C.2       6 UNK         0.4892 
     43 O          27.3773  -30.6239  -41.4781 O.2       6 UNK        -0.5089 
     44 N          25.4534  -29.9064  -40.4931 N.am      7 UNK        -0.4243 
     45 CA         24.9213  -31.1549  -39.9348 C.3       7 UNK         0.0196 
     46 CB         25.8983  -31.7866  -38.9209 C.3       7 UNK        -0.2007 
     47 C          24.4624  -32.1369  -41.0318 C.2       7 UNK         0.5020 
     48 O          24.4934  -33.3511  -40.8280 O.2       7 UNK        -0.5147 
     49 N          24.0232  -31.5942  -42.1772 N.am      8 UNK        -0.4734 
     50 CA         23.6143  -32.3581  -43.3625 C.3       8 UNK         0.0238 
     51 CB         23.8995  -31.5270  -44.6257 C.3       8 UNK        -0.1912 
     52 C          22.1516  -32.8407  -43.3130 C.2       8 UNK         0.5038 
     53 O          21.7008  -33.4816  -44.2629 O.2       8 UNK        -0.5046 
     54 N          21.4411  -32.5367  -42.2182 N.am      9 UNK        -0.4200 
     55 CA         20.0876  -33.0313  -41.9202 C.3       9 UNK         0.0839 
     56 C          20.0124  -34.5645  -41.6470 C.2       9 UNK         0.5513 
     57 N          21.1063  -35.2238  -41.2804 N.am      9 UNK        -0.7519 
     58 O          18.9512  -35.1674  -41.7805 O.2       9 UNK        -0.4960 
     59 C59        19.4493  -32.2117  -40.7648 C.3       10 UNK        -0.0876 
     60 S60        17.6290  -32.1020  -40.8735 S.3       10 UNK        -0.2414 
     61 C61        17.3758  -30.3749  -41.3890 C.3       10 UNK         0.0169 
     62 H62        17.4255  -23.5036  -48.3729 H         1 UNK         0.0903 
     63 H63        18.8191  -24.3064  -49.0995 H         1 UNK         0.0903 
     64 H64        17.2072  -24.5469  -49.7791 H         1 UNK         0.0903 
     65 H65        16.8641  -24.4778  -46.4336 H         1 UNK         0.3096 
     66 H66        17.4867  -27.2792  -45.9162 H         1 UNK         0.1121 
     67 H67        15.0497  -27.3182  -44.7010 H         1 UNK         0.0849 
     68 H68        14.6567  -26.1109  -45.8810 H         1 UNK         0.0849 
     69 H69        14.1960  -29.7473  -45.2097 H         1 UNK         0.0865 
     70 H70        14.9605  -30.6342  -46.5030 H         1 UNK         0.0865 
     71 H71        15.3268  -30.1156  -43.1644 H         1 UNK         0.1346 
     72 H72        19.6040  -30.2553  -42.9597 H         1 UNK         0.1412 
     73 H73        17.6565  -29.7412  -46.7441 H         1 UNK         0.1426 
     74 H74        20.8044  -30.6418  -45.2507 H         1 UNK         0.0716 
     75 H75        20.0145  -30.0579  -46.6855 H         1 UNK         0.0716 
     76 H76        21.6713  -29.4300  -43.4912 H         1 UNK         0.0695 
     77 H77        22.8427  -28.2897  -44.0862 H         1 UNK         0.0695 
     78 H78        21.7408  -26.4187  -43.0205 H         1 UNK         0.0983 
     79 H79        19.4140  -28.0227  -43.0540 H         1 UNK         0.3095 
     80 H80        17.4686  -27.4295  -41.4034 H         1 UNK         0.0454 
     81 H81        17.2006  -24.3971  -41.7177 H         1 UNK         0.0851 
     82 H82        15.8766  -25.4991  -41.3414 H         1 UNK         0.0851 
     83 H83        17.2123  -25.3063  -40.2188 H         1 UNK         0.0851 
     84 H84        16.9161  -27.6916  -43.5235 H         1 UNK         0.2976 
     85 H85        20.9762  -26.5092  -40.3491 H         1 UNK         0.3116 
     86 H86        22.1641  -28.5472  -38.7712 H         1 UNK         0.0646 
     87 H87        21.6936  -26.9830  -36.8742 H         1 UNK         0.0847 
     88 H88        20.3198  -27.1057  -37.9598 H         1 UNK         0.0847 
     89 H89        21.3635  -25.6851  -38.0136 H         1 UNK         0.0847 
     90 H90        23.5506  -25.5610  -40.0373 H         1 UNK         0.3040 
     91 H91        25.9124  -25.5247  -38.3886 H         1 UNK         0.1015 
     92 H92        25.0821  -23.4962  -39.5613 H         1 UNK         0.0786 
     93 H93        25.3633  -24.2543  -41.1294 H         1 UNK         0.0786 
     94 H94        26.7178  -23.8689  -40.0771 H         1 UNK         0.0786 
     95 H95        25.0698  -27.1445  -41.4112 H         1 UNK         0.3172 
     96 H96        27.8194  -28.1335  -41.8826 H         1 UNK         0.0595 
     97 H97        26.7939  -29.1281  -43.9188 H         1 UNK         0.0839 
     98 H98        26.4364  -27.4118  -43.8287 H         1 UNK         0.0839 
     99 H99        25.1987  -28.5964  -43.4104 H         1 UNK         0.0839 
    100 H100       24.8161  -29.1202  -40.4397 H         1 UNK         0.2998 
    101 H101       24.0197  -30.8743  -39.3882 H         1 UNK         0.0822 
    102 H102       26.2089  -31.0626  -38.1675 H         1 UNK         0.0787 
    103 H103       25.4300  -32.6196  -38.3953 H         1 UNK         0.0787 
    104 H104       26.7948  -32.1741  -39.4055 H         1 UNK         0.0787 
    105 H105       23.9779  -30.5844  -42.2378 H         1 UNK         0.3055 
    106 H106       24.2288  -33.2597  -43.4213 H         1 UNK         0.1106 
    107 H107       23.6715  -32.0957  -45.5283 H         1 UNK         0.0828 
    108 H108       23.3069  -30.6159  -44.6621 H         1 UNK         0.0828 
    109 H109       24.9508  -31.2445  -44.6836 H         1 UNK         0.0828 
    110 H110       21.9084  -32.0247  -41.4859 H         1 UNK         0.2931 
    111 H111       19.5003  -32.8548  -42.8236 H         1 UNK         0.0412 
    112 H112       21.0498  -36.2161  -41.1119 H         1 UNK         0.3472 
    113 H113       21.9862  -34.7436  -41.1691 H         1 UNK         0.3472 
    114 H114       19.8524  -31.1986  -40.7475 H         1 UNK         0.0970 
    115 H115       19.7156  -32.6332  -39.7934 H         1 UNK         0.0970 
    116 H116       18.0983  -29.7242  -40.8949 H         1 UNK         0.0612 
    117 H117       16.3957  -30.0542  -41.0325 H         1 UNK         0.0612 
@<TRIPOS>BOND
     1    1    2 1    
     2    1   62 1    
     3    1   63 1    
     4    1   64 1    
     5    2    3 2    
     6    2    4 am   BACKBONE|DICT|INTERRES
     7    4    5 1    
     8    4   65 1    
     9    5    6 1    
    10    5   25 1    
    11    5   66 1    
    12    6    7 1    
    13    6   67 1    
    14    6   68 1    
    15    7    8 1    
    16    8    9 1    
    17    8   69 1    
    18    8   70 1    
    19    9   10 ar   
    20    9   14 ar   
    21   10   11 ar   
    22   10   71 1    
    23   11   12 ar   
    24   11   61 1    
    25   12   13 ar   
    26   12   72 1    
    27   13   14 ar   
    28   13   15 1    
    29   14   73 1    
    30   15   16 1    
    31   15   74 1    
    32   15   75 1    
    33   16   17 1    
    34   17   18 1    
    35   17   76 1    
    36   17   77 1    
    37   18   19 1    
    38   18   27 1    
    39   18   78 1    
    40   19   20 am   BACKBONE|DICT|INTERRES
    41   19   79 1    
    42   20   21 2    
    43   20   22 1    
    44   22   23 1    
    45   22   24 1    
    46   22   80 1    
    47   23   81 1    
    48   23   82 1    
    49   23   83 1    
    50   24   25 am   BACKBONE|DICT|INTERRES
    51   24   84 1    
    52   25   26 2    
    53   27   28 2    
    54   27   29 am   BACKBONE|DICT|INTERRES
    55   29   30 1    
    56   29   85 1    
    57   30   31 1    
    58   30   32 1    
    59   30   86 1    
    60   31   87 1    
    61   31   88 1    
    62   31   89 1    
    63   32   33 2    
    64   32   34 am   BACKBONE|DICT|INTERRES
    65   34   35 1    
    66   34   90 1    
    67   35   36 1    
    68   35   37 1    
    69   35   91 1    
    70   36   92 1    
    71   36   93 1    
    72   36   94 1    
    73   37   38 2    
    74   37   39 am   BACKBONE|DICT|INTERRES
    75   39   40 1    
    76   39   95 1    
    77   40   41 1    
    78   40   42 1    
    79   40   96 1    
    80   41   97 1    
    81   41   98 1    
    82   41   99 1    
    83   42   43 2    
    84   42   44 am   BACKBONE|DICT|INTERRES
    85   44   45 1    
    86   44  100 1    
    87   45   46 1    
    88   45   47 1    
    89   45  101 1    
    90   46  102 1    
    91   46  103 1    
    92   46  104 1    
    93   47   48 2    
    94   47   49 am   BACKBONE|DICT|INTERRES
    95   49   50 1    
    96   49  105 1    
    97   50   51 1    
    98   50   52 1    
    99   50  106 1    
   100   51  107 1    
   101   51  108 1    
   102   51  109 1    
   103   52   53 2    
   104   52   54 am   BACKBONE|DICT|INTERRES
   105   54   55 1    
   106   54  110 1    
   107   55   56 1    
   108   55   59 1    
   109   55  111 1    
   110   56   57 am   BACKBONE|DICT|INTERRES
   111   56   58 2    
   112   57  112 1    
   113   57  113 1    
   114   59   60 1    
   115   59  114 1    
   116   59  115 1    
   117   60   61 1    
   118   61  116 1    
   119   61  117 1    
@<TRIPOS>SUBSTRUCTURE
     1 UNK         1 GROUP             0       ****    0 ROOT    
