@<TRIPOS>MOLECULE
3R8
117   119    1
SMALL
USER_CHARGES


@<TRIPOS>ATOM
      1 CA         14.4547  -23.3666  -46.8326 C.3       0 UNK        -0.2013 
      2 C          15.8692  -23.9055  -46.6834 C.2       0 UNK         0.4866 
      3 O          16.8264  -23.2210  -47.0448 O.2       0 UNK        -0.5176 
      4 N          16.0078  -25.1291  -46.1570 N.am      1 UNK        -0.4884 
      5 CA         17.2897  -25.7983  -45.8998 C.3       1 UNK         0.0853 
      6 C6         17.1097  -27.3167  -45.6360 C.3       10 UNK        -0.0849 
      7 S7         15.8789  -27.6951  -44.3378 S.3       10 UNK        -0.2776 
      8 C8         16.1064  -29.4883  -44.1297 C.3       10 UNK         0.0316 
      9 C9         17.3238  -29.8160  -43.2773 C.ar      10 UNK        -0.0863 
     10 C10        18.4395  -30.4441  -43.8402 C.ar      10 UNK        -0.1009 
     11 C11        19.5346  -30.7907  -43.0421 C.ar      10 UNK        -0.0712 
     12 C12        19.5175  -30.4838  -41.6784 C.ar      10 UNK        -0.0894 
     13 C13        18.4205  -29.8317  -41.1099 C.ar      10 UNK        -0.0745 
     14 C14        17.3197  -29.5161  -41.9115 C.ar      10 UNK        -0.0972 
     15 C15        18.4282  -29.4602  -39.6337 C.3       10 UNK         0.0209 
     16 S16        18.4279  -27.6543  -39.3850 S.3       10 UNK        -0.2568 
     17 C17        20.0939  -27.1697  -39.9618 C.3       10 UNK        -0.0983 
     18 CA         20.1683  -26.8616  -41.4845 C.3       3 UNK         0.0876 
     19 N          19.1079  -25.9702  -41.9690 N.am      3 UNK        -0.4424 
     20 C          18.9738  -24.6583  -41.7311 C.2       2 UNK         0.4918 
     21 O          19.6679  -24.0350  -40.9267 O.2       2 UNK        -0.4875 
     22 CA         17.9085  -23.9035  -42.5602 C.3       2 UNK         0.0481 
     23 CB         18.4094  -22.5075  -42.9844 C.3       2 UNK        -0.1831 
     24 N          17.3988  -24.6265  -43.7387 N.am      2 UNK        -0.4498 
     25 C          18.0992  -25.1247  -44.7730 C.2       1 UNK         0.5027 
     26 O          19.3284  -25.0977  -44.8475 O.2       1 UNK        -0.4969 
     27 C          21.5776  -26.4064  -41.9416 C.2       3 UNK         0.5005 
     28 O          22.5620  -26.6509  -41.2394 O.2       3 UNK        -0.5279 
     29 N          21.6601  -25.7637  -43.1213 N.am      4 UNK        -0.4463 
     30 CA         22.8628  -25.1289  -43.6808 C.3       4 UNK         0.0283 
     31 CB         22.4818  -24.3638  -44.9584 C.3       4 UNK        -0.1875 
     32 C          24.0464  -26.0753  -43.9552 C.2       4 UNK         0.4949 
     33 O          25.1694  -25.5982  -44.1195 O.2       4 UNK        -0.5039 
     34 N          23.7911  -27.3905  -43.9732 N.am      5 UNK        -0.4663 
     35 CA         24.8082  -28.4433  -44.0242 C.3       5 UNK         0.0242 
     36 CB         24.1126  -29.7944  -44.2614 C.3       5 UNK        -0.1982 
     37 C          25.6841  -28.5189  -42.7573 C.2       5 UNK         0.5017 
     38 O          26.7731  -29.0888  -42.8298 O.2       5 UNK        -0.5012 
     39 N          25.1932  -27.9719  -41.6299 N.am      6 UNK        -0.4439 
     40 CA         25.8058  -27.9926  -40.2933 C.3       6 UNK         0.0297 
     41 CB         27.1090  -27.1659  -40.2674 C.3       6 UNK        -0.2006 
     42 C          25.9855  -29.4222  -39.7409 C.2       6 UNK         0.4892 
     43 O          26.9543  -29.7014  -39.0319 O.2       6 UNK        -0.5089 
     44 N          25.0380  -30.2988  -40.0848 N.am      7 UNK        -0.4243 
     45 CA         24.9712  -31.7118  -39.7387 C.3       7 UNK         0.0196 
     46 CB         25.9297  -32.5177  -40.6371 C.3       7 UNK        -0.2007 
     47 C          23.5197  -32.1630  -39.9341 C.2       7 UNK         0.5020 
     48 O          22.7304  -31.4345  -40.5400 O.2       7 UNK        -0.5147 
     49 N          23.1934  -33.3618  -39.4376 N.am      8 UNK        -0.4734 
     50 CA         21.8533  -33.9555  -39.5280 C.3       8 UNK         0.0238 
     51 CB         21.7512  -35.1121  -38.5188 C.3       8 UNK        -0.1912 
     52 C          21.4627  -34.4374  -40.9396 C.2       8 UNK         0.5038 
     53 O          20.2751  -34.6601  -41.1718 O.2       8 UNK        -0.5046 
     54 N          22.4603  -34.6135  -41.8212 N.am      9 UNK        -0.4200 
     55 CA         22.3798  -35.0597  -43.2272 C.3       9 UNK         0.0839 
     56 C          21.6371  -36.4047  -43.5031 C.2       9 UNK         0.5513 
     57 N          21.4479  -37.2682  -42.5127 N.am      9 UNK        -0.7519 
     58 O          21.2726  -36.6989  -44.6391 O.2       9 UNK        -0.4960 
     59 C59        22.0440  -33.9160  -44.2329 C.3       10 UNK        -0.0876 
     60 S60        20.3640  -33.2107  -44.0993 S.3       10 UNK        -0.2414 
     61 C61        20.7415  -31.4898  -43.6479 C.3       10 UNK         0.0169 
     62 H62        13.7070  -24.0820  -46.4901 H         1 UNK         0.0903 
     63 H63        14.3393  -22.4512  -46.2526 H         1 UNK         0.0903 
     64 H64        14.2492  -23.1363  -47.8779 H         1 UNK         0.0903 
     65 H65        15.1883  -25.6527  -45.8802 H         1 UNK         0.3096 
     66 H66        17.8938  -25.6950  -46.8043 H         1 UNK         0.1121 
     67 H67        16.7837  -27.8046  -46.5560 H         1 UNK         0.0849 
     68 H68        18.0639  -27.7820  -45.3795 H         1 UNK         0.0849 
     69 H69        16.1687  -29.9666  -45.1082 H         1 UNK         0.0865 
     70 H70        15.2185  -29.9000  -43.6484 H         1 UNK         0.0865 
     71 H71        18.4514  -30.6850  -44.8945 H         1 UNK         0.1346 
     72 H72        20.3648  -30.7420  -41.0597 H         1 UNK         0.1412 
     73 H73        16.4633  -29.0210  -41.4735 H         1 UNK         0.1426 
     74 H74        19.2871  -29.8963  -39.1208 H         1 UNK         0.0716 
     75 H75        17.5411  -29.8807  -39.1583 H         1 UNK         0.0716 
     76 H76        20.7979  -27.9610  -39.6971 H         1 UNK         0.0695 
     77 H77        20.3967  -26.2923  -39.3879 H         1 UNK         0.0695 
     78 H78        20.0089  -27.7987  -42.0149 H         1 UNK         0.0983 
     79 H79        18.4611  -26.3860  -42.6231 H         1 UNK         0.3095 
     80 H80        17.0534  -23.7643  -41.8975 H         1 UNK         0.0454 
     81 H81        17.6498  -21.9679  -43.5498 H         1 UNK         0.0851 
     82 H82        19.3045  -22.5724  -43.6042 H         1 UNK         0.0851 
     83 H83        18.6584  -21.8957  -42.1166 H         1 UNK         0.0851 
     84 H84        16.3956  -24.7463  -43.7731 H         1 UNK         0.2976 
     85 H85        20.8020  -25.6081  -43.6446 H         1 UNK         0.3116 
     86 H86        23.2097  -24.4016  -42.9441 H         1 UNK         0.0646 
     87 H87        23.3461  -23.8527  -45.3850 H         1 UNK         0.0847 
     88 H88        21.7273  -23.6034  -44.7559 H         1 UNK         0.0847 
     89 H89        22.0864  -25.0320  -45.7244 H         1 UNK         0.0847 
     90 H90        22.8343  -27.6841  -43.8447 H         1 UNK         0.3040 
     91 H91        25.4698  -28.2368  -44.8685 H         1 UNK         0.1015 
     92 H92        23.4537  -30.0557  -43.4328 H         1 UNK         0.0786 
     93 H93        24.8440  -30.5982  -44.3588 H         1 UNK         0.0786 
     94 H94        23.5204  -29.7849  -45.1767 H         1 UNK         0.0786 
     95 H95        24.2798  -27.5250  -41.6743 H         1 UNK         0.3172 
     96 H96        25.0924  -27.5008  -39.6304 H         1 UNK         0.0595 
     97 H97        27.8984  -27.6337  -40.8564 H         1 UNK         0.0839 
     98 H98        27.4845  -27.0607  -39.2488 H         1 UNK         0.0839 
     99 H99        26.9490  -26.1611  -40.6582 H         1 UNK         0.0839 
    100 H100       24.2379  -29.9801  -40.6188 H         1 UNK         0.2998 
    101 H101       25.2407  -31.8389  -38.6881 H         1 UNK         0.0822 
    102 H102       25.6741  -32.4116  -41.6924 H         1 UNK         0.0787 
    103 H103       26.9616  -32.1888  -40.5123 H         1 UNK         0.0787 
    104 H104       25.9021  -33.5807  -40.3960 H         1 UNK         0.0787 
    105 H105       23.8980  -33.8992  -38.9514 H         1 UNK         0.3055 
    106 H106       21.1246  -33.1915  -39.2454 H         1 UNK         0.1106 
    107 H107       20.7555  -35.5583  -38.5340 H         1 UNK         0.0828 
    108 H108       22.4666  -35.9058  -38.7381 H         1 UNK         0.0828 
    109 H109       21.9315  -34.7678  -37.5002 H         1 UNK         0.0828 
    110 H110       23.3935  -34.4255  -41.4881 H         1 UNK         0.2931 
    111 H111       23.4141  -35.3242  -43.4505 H         1 UNK         0.0412 
    112 H112       21.7388  -37.0421  -41.5754 H         1 UNK         0.3472 
    113 H113       20.9826  -38.1422  -42.7015 H         1 UNK         0.3472 
    114 H114       22.7803  -33.1189  -44.1220 H         1 UNK         0.0970 
    115 H115       22.1729  -34.2700  -45.2571 H         1 UNK         0.0970 
    116 H116       21.0793  -30.9481  -44.5323 H         1 UNK         0.0612 
    117 H117       21.5699  -31.4817  -42.9393 H         1 UNK         0.0612 
@<TRIPOS>BOND
     1    1    2 1    
     2    1   62 1    
     3    1   63 1    
     4    1   64 1    
     5    2    3 2    
     6    2    4 am   BACKBONE|DICT|INTERRES
     7    4    5 1    
     8    4   65 1    
     9    5    6 1    
    10    5   25 1    
    11    5   66 1    
    12    6    7 1    
    13    6   67 1    
    14    6   68 1    
    15    7    8 1    
    16    8    9 1    
    17    8   69 1    
    18    8   70 1    
    19    9   10 ar   
    20    9   14 ar   
    21   10   11 ar   
    22   10   71 1    
    23   11   12 ar   
    24   11   61 1    
    25   12   13 ar   
    26   12   72 1    
    27   13   14 ar   
    28   13   15 1    
    29   14   73 1    
    30   15   16 1    
    31   15   74 1    
    32   15   75 1    
    33   16   17 1    
    34   17   18 1    
    35   17   76 1    
    36   17   77 1    
    37   18   19 1    
    38   18   27 1    
    39   18   78 1    
    40   19   20 am   BACKBONE|DICT|INTERRES
    41   19   79 1    
    42   20   21 2    
    43   20   22 1    
    44   22   23 1    
    45   22   24 1    
    46   22   80 1    
    47   23   81 1    
    48   23   82 1    
    49   23   83 1    
    50   24   25 am   BACKBONE|DICT|INTERRES
    51   24   84 1    
    52   25   26 2    
    53   27   28 2    
    54   27   29 am   BACKBONE|DICT|INTERRES
    55   29   30 1    
    56   29   85 1    
    57   30   31 1    
    58   30   32 1    
    59   30   86 1    
    60   31   87 1    
    61   31   88 1    
    62   31   89 1    
    63   32   33 2    
    64   32   34 am   BACKBONE|DICT|INTERRES
    65   34   35 1    
    66   34   90 1    
    67   35   36 1    
    68   35   37 1    
    69   35   91 1    
    70   36   92 1    
    71   36   93 1    
    72   36   94 1    
    73   37   38 2    
    74   37   39 am   BACKBONE|DICT|INTERRES
    75   39   40 1    
    76   39   95 1    
    77   40   41 1    
    78   40   42 1    
    79   40   96 1    
    80   41   97 1    
    81   41   98 1    
    82   41   99 1    
    83   42   43 2    
    84   42   44 am   BACKBONE|DICT|INTERRES
    85   44   45 1    
    86   44  100 1    
    87   45   46 1    
    88   45   47 1    
    89   45  101 1    
    90   46  102 1    
    91   46  103 1    
    92   46  104 1    
    93   47   48 2    
    94   47   49 am   BACKBONE|DICT|INTERRES
    95   49   50 1    
    96   49  105 1    
    97   50   51 1    
    98   50   52 1    
    99   50  106 1    
   100   51  107 1    
   101   51  108 1    
   102   51  109 1    
   103   52   53 2    
   104   52   54 am   BACKBONE|DICT|INTERRES
   105   54   55 1    
   106   54  110 1    
   107   55   56 1    
   108   55   59 1    
   109   55  111 1    
   110   56   57 am   BACKBONE|DICT|INTERRES
   111   56   58 2    
   112   57  112 1    
   113   57  113 1    
   114   59   60 1    
   115   59  114 1    
   116   59  115 1    
   117   60   61 1    
   118   61  116 1    
   119   61  117 1    
@<TRIPOS>SUBSTRUCTURE
     1 UNK         1 GROUP             0       ****    0 ROOT    
