@<TRIPOS>MOLECULE
3R8
117   119    1
SMALL
USER_CHARGES


@<TRIPOS>ATOM
      1 CA         18.4413  -22.4789  -40.3510 C.3       0 UNK        -0.2013 
      2 C          17.7303  -22.8684  -41.6382 C.2       0 UNK         0.4866 
      3 O          17.2321  -21.9972  -42.3512 O.2       0 UNK        -0.5176 
      4 N          17.6796  -24.1718  -41.9427 N.am      1 UNK        -0.4884 
      5 CA         17.0476  -24.7316  -43.1454 C.3       1 UNK         0.0853 
      6 C6         16.6891  -26.2302  -42.9646 C.3       10 UNK        -0.0849 
      7 S7         18.0850  -27.2752  -42.4141 S.3       10 UNK        -0.2776 
      8 C8         17.2439  -28.8687  -42.1110 C.3       10 UNK         0.0316 
      9 C9         17.5910  -29.8984  -43.1783 C.ar      10 UNK        -0.0863 
     10 C10        18.3095  -31.0537  -42.8498 C.ar      10 UNK        -0.1009 
     11 C11        18.6605  -31.9786  -43.8396 C.ar      10 UNK        -0.0712 
     12 C12        18.2965  -31.7361  -45.1670 C.ar      10 UNK        -0.0894 
     13 C13        17.5860  -30.5826  -45.5072 C.ar      10 UNK        -0.0745 
     14 C14        17.2065  -29.6873  -44.5040 C.ar      10 UNK        -0.0972 
     15 C15        17.2581  -30.2873  -46.9623 C.3       10 UNK         0.0209 
     16 S16        18.6856  -29.5666  -47.8401 S.3       10 UNK        -0.2568 
     17 C17        18.8753  -27.9513  -47.0054 C.3       10 UNK        -0.0983 
     18 CA         20.3048  -27.6055  -46.5018 C.3       3 UNK         0.0876 
     19 N          20.3161  -26.3279  -45.7889 N.am      3 UNK        -0.4424 
     20 C          20.2601  -25.1206  -46.3580 C.2       2 UNK         0.4918 
     21 O          20.2780  -24.9317  -47.5757 O.2       2 UNK        -0.4875 
     22 CA         20.1330  -23.9335  -45.3805 C.3       2 UNK         0.0481 
     23 CB         19.8178  -22.6009  -46.0921 C.3       2 UNK        -0.1831 
     24 N          19.1623  -24.1892  -44.3043 N.am      2 UNK        -0.4498 
     25 C          17.8575  -24.4885  -44.4386 C.2       1 UNK         0.5027 
     26 O          17.2809  -24.5799  -45.5234 O.2       1 UNK        -0.4969 
     27 C          20.9968  -28.6860  -45.6396 C.2       3 UNK         0.5005 
     28 O          21.7078  -29.5257  -46.1956 O.2       3 UNK        -0.5279 
     29 N          20.8646  -28.6000  -44.3028 N.am      4 UNK        -0.4463 
     30 CA         21.6584  -29.3560  -43.3254 C.3       4 UNK         0.0283 
     31 CB         21.2069  -28.9781  -41.9052 C.3       4 UNK        -0.1875 
     32 C          23.1734  -29.1093  -43.4587 C.2       4 UNK         0.4949 
     33 O          23.5859  -28.0037  -43.8178 O.2       4 UNK        -0.5039 
     34 N          23.9718  -30.1334  -43.1295 N.am      5 UNK        -0.4663 
     35 CA         25.4371  -30.0658  -43.1113 C.3       5 UNK         0.0242 
     36 CB         26.0157  -31.4895  -43.0608 C.3       5 UNK        -0.1982 
     37 C          25.9690  -29.2213  -41.9405 C.2       5 UNK         0.5017 
     38 O          26.9314  -28.4734  -42.1172 O.2       5 UNK        -0.5012 
     39 N          25.3180  -29.3495  -40.7803 N.am      6 UNK        -0.4439 
     40 CA         25.5428  -28.5553  -39.5767 C.3       6 UNK         0.0297 
     41 CB         26.4739  -29.3253  -38.6165 C.3       6 UNK        -0.2006 
     42 C          24.1603  -28.2122  -39.0030 C.2       6 UNK         0.4892 
     43 O          23.3557  -27.6079  -39.7127 O.2       6 UNK        -0.5089 
     44 N          23.8774  -28.6324  -37.7619 N.am      7 UNK        -0.4243 
     45 CA         22.5358  -28.5939  -37.1645 C.3       7 UNK         0.0196 
     46 CB         22.6557  -28.7883  -35.6442 C.3       7 UNK        -0.2007 
     47 C          21.5856  -29.6481  -37.7700 C.2       7 UNK         0.5020 
     48 O          20.3678  -29.5007  -37.6700 O.2       7 UNK        -0.5147 
     49 N          22.1619  -30.6840  -38.3874 N.am      8 UNK        -0.4734 
     50 CA         21.4998  -31.7466  -39.1339 C.3       8 UNK         0.0238 
     51 CB         21.1472  -32.9016  -38.1772 C.3       8 UNK        -0.1912 
     52 C          22.4488  -32.1941  -40.2571 C.2       8 UNK         0.5038 
     53 O          23.5414  -31.6329  -40.3964 O.2       8 UNK        -0.5046 
     54 N          22.0154  -33.1790  -41.0478 N.am      9 UNK        -0.4200 
     55 CA         22.8395  -33.8482  -42.0645 C.3       9 UNK         0.0839 
     56 C          23.7718  -34.9141  -41.4298 C.2       9 UNK         0.5513 
     57 N          24.9194  -35.1732  -42.0408 N.am      9 UNK        -0.7519 
     58 O          23.4507  -35.5307  -40.4157 O.2       9 UNK        -0.4960 
     59 C59        21.9666  -34.4637  -43.1867 C.3       10 UNK        -0.0876 
     60 S60        21.1325  -33.1662  -44.1563 S.3       10 UNK        -0.2414 
     61 C61        19.4443  -33.2323  -43.4822 C.3       10 UNK         0.0169 
     62 H62        17.7524  -21.9606  -39.6844 H         1 UNK         0.0903 
     63 H63        18.8347  -23.3475  -39.8230 H         1 UNK         0.0903 
     64 H64        19.2728  -21.8093  -40.5693 H         1 UNK         0.0903 
     65 H65        18.0982  -24.8528  -41.3230 H         1 UNK         0.3096 
     66 H66        16.1056  -24.1975  -43.2925 H         1 UNK         0.1121 
     67 H67        15.8967  -26.3117  -42.2188 H         1 UNK         0.0849 
     68 H68        16.2682  -26.6420  -43.8835 H         1 UNK         0.0849 
     69 H69        17.5361  -29.2288  -41.1233 H         1 UNK         0.0865 
     70 H70        16.1620  -28.7342  -42.0744 H         1 UNK         0.0865 
     71 H71        18.6045  -31.2295  -41.8246 H         1 UNK         0.1346 
     72 H72        18.5918  -32.4330  -45.9395 H         1 UNK         0.1412 
     73 H73        16.6456  -28.8001  -44.7602 H         1 UNK         0.1426 
     74 H74        16.9620  -31.2092  -47.4650 H         1 UNK         0.0716 
     75 H75        16.4056  -29.6104  -47.0382 H         1 UNK         0.0716 
     76 H76        18.5559  -27.1922  -47.7208 H         1 UNK         0.0695 
     77 H77        18.1698  -27.8682  -46.1817 H         1 UNK         0.0695 
     78 H78        20.9394  -27.4922  -47.3840 H         1 UNK         0.0983 
     79 H79        20.3621  -26.3728  -44.7830 H         1 UNK         0.3095 
     80 H80        21.1062  -23.8272  -44.8992 H         1 UNK         0.0454 
     81 H81        20.5982  -22.3472  -46.8105 H         1 UNK         0.0851 
     82 H82        18.8756  -22.6460  -46.6392 H         1 UNK         0.0851 
     83 H83        19.7530  -21.7773  -45.3812 H         1 UNK         0.0851 
     84 H84        19.5234  -24.1390  -43.3618 H         1 UNK         0.2976 
     85 H85        20.1872  -27.9635  -43.9122 H         1 UNK         0.3116 
     86 H86        21.4609  -30.4153  -43.4862 H         1 UNK         0.0646 
     87 H87        21.8333  -29.4524  -41.1509 H         1 UNK         0.0847 
     88 H88        20.1838  -29.2898  -41.7088 H         1 UNK         0.0847 
     89 H89        21.2708  -27.9027  -41.7346 H         1 UNK         0.0847 
     90 H90        23.5539  -30.9931  -42.8032 H         1 UNK         0.3040 
     91 H91        25.7690  -29.5933  -44.0388 H         1 UNK         0.1015 
     92 H92        25.6798  -32.0852  -43.9097 H         1 UNK         0.0786 
     93 H93        25.7305  -32.0116  -42.1464 H         1 UNK         0.0786 
     94 H94        27.1058  -31.4661  -43.0936 H         1 UNK         0.0786 
     95 H95        24.5491  -30.0140  -40.7379 H         1 UNK         0.3172 
     96 H96        26.0165  -27.6066  -39.8375 H         1 UNK         0.0595 
     97 H97        26.0631  -30.2960  -38.3352 H         1 UNK         0.0839 
     98 H98        26.6644  -28.7577  -37.7046 H         1 UNK         0.0839 
     99 H99        27.4432  -29.5065  -39.0816 H         1 UNK         0.0839 
    100 H100       24.5987  -29.1018  -37.2332 H         1 UNK         0.2998 
    101 H101       22.0989  -27.6106  -37.3529 H         1 UNK         0.0822 
    102 H102       23.2768  -28.0145  -35.1925 H         1 UNK         0.0787 
    103 H103       21.6762  -28.7351  -35.1664 H         1 UNK         0.0787 
    104 H104       23.0881  -29.7576  -35.3929 H         1 UNK         0.0787 
    105 H105       23.1694  -30.6938  -38.4771 H         1 UNK         0.3055 
    106 H106       20.5903  -31.3552  -39.5956 H         1 UNK         0.1106 
    107 H107       20.5929  -33.6900  -38.6870 H         1 UNK         0.0828 
    108 H108       22.0418  -33.3550  -37.7481 H         1 UNK         0.0828 
    109 H109       20.5221  -32.5558  -37.3536 H         1 UNK         0.0828 
    110 H110       21.1284  -33.6139  -40.8462 H         1 UNK         0.2931 
    111 H111       23.4823  -33.0967  -42.5267 H         1 UNK         0.0412 
    112 H112       25.5329  -35.8722  -41.6513 H         1 UNK         0.3472 
    113 H113       25.1869  -34.6882  -42.8829 H         1 UNK         0.3472 
    114 H114       21.2370  -35.1674  -42.7819 H         1 UNK         0.0970 
    115 H115       22.5836  -35.0364  -43.8819 H         1 UNK         0.0970 
    116 H116       19.4855  -33.3557  -42.3996 H         1 UNK         0.0612 
    117 H117       18.9325  -34.1111  -43.8768 H         1 UNK         0.0612 
@<TRIPOS>BOND
     1    1    2 1    
     2    1   62 1    
     3    1   63 1    
     4    1   64 1    
     5    2    3 2    
     6    2    4 am   BACKBONE|DICT|INTERRES
     7    4    5 1    
     8    4   65 1    
     9    5    6 1    
    10    5   25 1    
    11    5   66 1    
    12    6    7 1    
    13    6   67 1    
    14    6   68 1    
    15    7    8 1    
    16    8    9 1    
    17    8   69 1    
    18    8   70 1    
    19    9   10 ar   
    20    9   14 ar   
    21   10   11 ar   
    22   10   71 1    
    23   11   12 ar   
    24   11   61 1    
    25   12   13 ar   
    26   12   72 1    
    27   13   14 ar   
    28   13   15 1    
    29   14   73 1    
    30   15   16 1    
    31   15   74 1    
    32   15   75 1    
    33   16   17 1    
    34   17   18 1    
    35   17   76 1    
    36   17   77 1    
    37   18   19 1    
    38   18   27 1    
    39   18   78 1    
    40   19   20 am   BACKBONE|DICT|INTERRES
    41   19   79 1    
    42   20   21 2    
    43   20   22 1    
    44   22   23 1    
    45   22   24 1    
    46   22   80 1    
    47   23   81 1    
    48   23   82 1    
    49   23   83 1    
    50   24   25 am   BACKBONE|DICT|INTERRES
    51   24   84 1    
    52   25   26 2    
    53   27   28 2    
    54   27   29 am   BACKBONE|DICT|INTERRES
    55   29   30 1    
    56   29   85 1    
    57   30   31 1    
    58   30   32 1    
    59   30   86 1    
    60   31   87 1    
    61   31   88 1    
    62   31   89 1    
    63   32   33 2    
    64   32   34 am   BACKBONE|DICT|INTERRES
    65   34   35 1    
    66   34   90 1    
    67   35   36 1    
    68   35   37 1    
    69   35   91 1    
    70   36   92 1    
    71   36   93 1    
    72   36   94 1    
    73   37   38 2    
    74   37   39 am   BACKBONE|DICT|INTERRES
    75   39   40 1    
    76   39   95 1    
    77   40   41 1    
    78   40   42 1    
    79   40   96 1    
    80   41   97 1    
    81   41   98 1    
    82   41   99 1    
    83   42   43 2    
    84   42   44 am   BACKBONE|DICT|INTERRES
    85   44   45 1    
    86   44  100 1    
    87   45   46 1    
    88   45   47 1    
    89   45  101 1    
    90   46  102 1    
    91   46  103 1    
    92   46  104 1    
    93   47   48 2    
    94   47   49 am   BACKBONE|DICT|INTERRES
    95   49   50 1    
    96   49  105 1    
    97   50   51 1    
    98   50   52 1    
    99   50  106 1    
   100   51  107 1    
   101   51  108 1    
   102   51  109 1    
   103   52   53 2    
   104   52   54 am   BACKBONE|DICT|INTERRES
   105   54   55 1    
   106   54  110 1    
   107   55   56 1    
   108   55   59 1    
   109   55  111 1    
   110   56   57 am   BACKBONE|DICT|INTERRES
   111   56   58 2    
   112   57  112 1    
   113   57  113 1    
   114   59   60 1    
   115   59  114 1    
   116   59  115 1    
   117   60   61 1    
   118   61  116 1    
   119   61  117 1    
@<TRIPOS>SUBSTRUCTURE
     1 UNK         1 GROUP             0       ****    0 ROOT    
