@<TRIPOS>MOLECULE
3R8
117   119    1
SMALL
USER_CHARGES


@<TRIPOS>ATOM
      1 CA         14.1857  -27.6271  -39.0863 C.3       0 UNK        -0.2013 
      2 C          14.6299  -27.1057  -40.4449 C.2       0 UNK         0.4866 
      3 O          13.9251  -26.3002  -41.0534 O.2       0 UNK        -0.5176 
      4 N          15.7929  -27.5564  -40.9233 N.am      1 UNK        -0.4884 
      5 CA         16.4091  -27.1556  -42.1856 C.3       1 UNK         0.0853 
      6 C6         15.7840  -27.9053  -43.3894 C.3       10 UNK        -0.0849 
      7 S7         16.2859  -27.2110  -45.0026 S.3       10 UNK        -0.2776 
      8 C8         16.5184  -28.7100  -46.0142 C.3       10 UNK         0.0316 
      9 C9         17.5949  -29.6327  -45.4578 C.ar      10 UNK        -0.0863 
     10 C10        17.2460  -30.8707  -44.9114 C.ar      10 UNK        -0.1009 
     11 C11        18.2221  -31.7203  -44.3851 C.ar      10 UNK        -0.0712 
     12 C12        19.5644  -31.3181  -44.4195 C.ar      10 UNK        -0.0894 
     13 C13        19.9360  -30.0975  -44.9914 C.ar      10 UNK        -0.0745 
     14 C14        18.9384  -29.2519  -45.4935 C.ar      10 UNK        -0.0972 
     15 C15        21.4116  -29.7008  -45.0173 C.3       10 UNK         0.0209 
     16 S16        21.8816  -28.7415  -46.5013 S.3       10 UNK        -0.2568 
     17 C17        23.3156  -27.7909  -45.8979 C.3       10 UNK        -0.0983 
     18 CA         22.9142  -26.3927  -45.3488 C.3       3 UNK         0.0876 
     19 N          22.0874  -26.5271  -44.1481 N.am      3 UNK        -0.4424 
     20 C          20.8064  -26.1779  -44.0119 C.2       2 UNK         0.4918 
     21 O          20.1415  -25.5761  -44.8575 O.2       2 UNK        -0.4875 
     22 CA         20.1797  -26.5918  -42.6792 C.3       2 UNK         0.0481 
     23 CB         20.6470  -25.6819  -41.5269 C.3       2 UNK        -0.1831 
     24 N          18.7245  -26.5832  -42.7563 N.am      2 UNK        -0.4498 
     25 C          17.9257  -27.3796  -42.0373 C.2       1 UNK         0.5027 
     26 O          18.3428  -28.2439  -41.2560 O.2       1 UNK        -0.4969 
     27 C          24.1585  -25.5291  -45.0430 C.2       3 UNK         0.5005 
     28 O          25.1324  -25.5798  -45.7965 O.2       3 UNK        -0.5279 
     29 N          24.1350  -24.7852  -43.9235 N.am      4 UNK        -0.4463 
     30 CA         25.1960  -23.9550  -43.3294 C.3       4 UNK         0.0283 
     31 CB         25.6617  -22.8392  -44.2854 C.3       4 UNK        -0.1875 
     32 C          26.3883  -24.7646  -42.7878 C.2       4 UNK         0.4949 
     33 O          26.7929  -24.5535  -41.6449 O.2       4 UNK        -0.5039 
     34 N          26.9064  -25.6956  -43.5967 N.am      5 UNK        -0.4663 
     35 CA         27.9564  -26.6504  -43.2310 C.3       5 UNK         0.0242 
     36 CB         28.6011  -27.1913  -44.5177 C.3       5 UNK        -0.1982 
     37 C          27.4420  -27.8121  -42.3591 C.2       5 UNK         0.5017 
     38 O          28.2517  -28.4953  -41.7312 O.2       5 UNK        -0.5012 
     39 N          26.1209  -28.0210  -42.3393 N.am      6 UNK        -0.4439 
     40 CA         25.4161  -29.0344  -41.5634 C.3       6 UNK         0.0297 
     41 CB         25.4024  -30.3665  -42.3347 C.3       6 UNK        -0.2006 
     42 C          23.9896  -28.5393  -41.3076 C.2       6 UNK         0.4892 
     43 O          23.4871  -27.7129  -42.0760 O.2       6 UNK        -0.5089 
     44 N          23.3605  -29.0733  -40.2573 N.am      7 UNK        -0.4243 
     45 CA         21.9665  -28.8325  -39.8990 C.3       7 UNK         0.0196 
     46 CB         21.8920  -27.8828  -38.6923 C.3       7 UNK        -0.2007 
     47 C          21.3072  -30.1787  -39.5916 C.2       7 UNK         0.5020 
     48 O          21.9325  -31.0118  -38.9300 O.2       7 UNK        -0.5147 
     49 N          20.0642  -30.3504  -40.0643 N.am      8 UNK        -0.4734 
     50 CA         19.2336  -31.5604  -39.9795 C.3       8 UNK         0.0238 
     51 CB         18.8862  -31.8704  -38.5059 C.3       8 UNK        -0.1912 
     52 C          19.8254  -32.7864  -40.7136 C.2       8 UNK         0.5038 
     53 O          20.8855  -32.6985  -41.3380 O.2       8 UNK        -0.5046 
     54 N          19.0911  -33.9038  -40.6519 N.am      9 UNK        -0.4200 
     55 CA         19.4262  -35.1989  -41.2715 C.3       9 UNK         0.0839 
     56 C          19.3749  -36.3756  -40.2527 C.2       9 UNK         0.5513 
     57 N          19.2812  -36.1283  -38.9507 N.am      9 UNK        -0.7519 
     58 O          19.4400  -37.5386  -40.6428 O.2       9 UNK        -0.4960 
     59 C59        18.5576  -35.4726  -42.5347 C.3       10 UNK        -0.0876 
     60 S60        18.9967  -34.3894  -43.9350 S.3       10 UNK        -0.2414 
     61 C61        17.7891  -33.0358  -43.7406 C.3       10 UNK         0.0169 
     62 H62        14.0734  -26.8004  -38.3854 H         1 UNK         0.0903 
     63 H63        14.9019  -28.3331  -38.6662 H         1 UNK         0.0903 
     64 H64        13.2242  -28.1322  -39.1746 H         1 UNK         0.0903 
     65 H65        16.3737  -28.1827  -40.3775 H         1 UNK         0.3096 
     66 H66        16.2464  -26.0824  -42.3121 H         1 UNK         0.1121 
     67 H67        14.6960  -27.8387  -43.3436 H         1 UNK         0.0849 
     68 H68        16.0142  -28.9689  -43.3296 H         1 UNK         0.0849 
     69 H69        15.5641  -29.2323  -46.0998 H         1 UNK         0.0865 
     70 H70        16.7923  -28.4125  -47.0274 H         1 UNK         0.0865 
     71 H71        16.2062  -31.1669  -44.8787 H         1 UNK         0.1346 
     72 H72        20.3277  -31.9554  -43.9942 H         1 UNK         0.1412 
     73 H73        19.2002  -28.2885  -45.9095 H         1 UNK         0.1426 
     74 H74        22.0429  -30.5899  -44.9801 H         1 UNK         0.0716 
     75 H75        21.6292  -29.1396  -44.1103 H         1 UNK         0.0716 
     76 H76        23.8494  -28.3715  -45.1426 H         1 UNK         0.0695 
     77 H77        23.9985  -27.6930  -46.7438 H         1 UNK         0.0695 
     78 H78        22.3609  -25.8595  -46.1249 H         1 UNK         0.0983 
     79 H79        22.5465  -26.9984  -43.3662 H         1 UNK         0.3095 
     80 H80        20.5031  -27.6168  -42.5018 H         1 UNK         0.0454 
     81 H81        20.3508  -24.6452  -41.6901 H         1 UNK         0.0851 
     82 H82        20.2270  -26.0012  -40.5732 H         1 UNK         0.0851 
     83 H83        21.7317  -25.6998  -41.4177 H         1 UNK         0.0851 
     84 H84        18.3322  -25.9588  -43.4505 H         1 UNK         0.2976 
     85 H85        23.2877  -24.8378  -43.3757 H         1 UNK         0.3116 
     86 H86        24.7347  -23.4683  -42.4683 H         1 UNK         0.0646 
     87 H87        26.3661  -22.1721  -43.7868 H         1 UNK         0.0847 
     88 H88        24.8230  -22.2303  -44.6224 H         1 UNK         0.0847 
     89 H89        26.1648  -23.2345  -45.1681 H         1 UNK         0.0847 
     90 H90        26.4953  -25.7820  -44.5242 H         1 UNK         0.3040 
     91 H91        28.7215  -26.1249  -42.6550 H         1 UNK         0.1015 
     92 H92        29.0306  -26.3864  -45.1144 H         1 UNK         0.0786 
     93 H93        27.8776  -27.7209  -45.1392 H         1 UNK         0.0786 
     94 H94        29.4079  -27.8890  -44.2884 H         1 UNK         0.0786 
     95 H95        25.5148  -27.3776  -42.8308 H         1 UNK         0.3172 
     96 H96        25.9157  -29.1675  -40.6013 H         1 UNK         0.0595 
     97 H97        24.8712  -31.1393  -41.7774 H         1 UNK         0.0839 
     98 H98        26.4134  -30.7340  -42.5114 H         1 UNK         0.0839 
     99 H99        24.9095  -30.2652  -43.3026 H         1 UNK         0.0839 
    100 H100       23.8159  -29.7978  -39.7171 H         1 UNK         0.2998 
    101 H101       21.4393  -28.3791  -40.7337 H         1 UNK         0.0822 
    102 H102       22.3966  -28.2992  -37.8196 H         1 UNK         0.0787 
    103 H103       22.3517  -26.9206  -38.9185 H         1 UNK         0.0787 
    104 H104       20.8554  -27.6907  -38.4122 H         1 UNK         0.0787 
    105 H105       19.6333  -29.5840  -40.5762 H         1 UNK         0.3055 
    106 H106       18.3068  -31.3120  -40.5000 H         1 UNK         0.1106 
    107 H107       19.7500  -32.2444  -37.9551 H         1 UNK         0.0828 
    108 H108       18.5245  -30.9805  -37.9905 H         1 UNK         0.0828 
    109 H109       18.0993  -32.6206  -38.4263 H         1 UNK         0.0828 
    110 H110       18.2297  -33.8941  -40.1254 H         1 UNK         0.2931 
    111 H111       20.4703  -35.1796  -41.5890 H         1 UNK         0.0412 
    112 H112       19.2855  -35.1849  -38.5990 H         1 UNK         0.3472 
    113 H113       19.2555  -36.9037  -38.3064 H         1 UNK         0.3472 
    114 H114       17.4944  -35.3815  -42.3059 H         1 UNK         0.0970 
    115 H115       18.6985  -36.4957  -42.8877 H         1 UNK         0.0970 
    116 H116       17.6037  -32.8466  -42.6843 H         1 UNK         0.0612 
    117 H117       16.8405  -33.3706  -44.1629 H         1 UNK         0.0612 
@<TRIPOS>BOND
     1    1    2 1    
     2    1   62 1    
     3    1   63 1    
     4    1   64 1    
     5    2    3 2    
     6    2    4 am   BACKBONE|DICT|INTERRES
     7    4    5 1    
     8    4   65 1    
     9    5    6 1    
    10    5   25 1    
    11    5   66 1    
    12    6    7 1    
    13    6   67 1    
    14    6   68 1    
    15    7    8 1    
    16    8    9 1    
    17    8   69 1    
    18    8   70 1    
    19    9   10 ar   
    20    9   14 ar   
    21   10   11 ar   
    22   10   71 1    
    23   11   12 ar   
    24   11   61 1    
    25   12   13 ar   
    26   12   72 1    
    27   13   14 ar   
    28   13   15 1    
    29   14   73 1    
    30   15   16 1    
    31   15   74 1    
    32   15   75 1    
    33   16   17 1    
    34   17   18 1    
    35   17   76 1    
    36   17   77 1    
    37   18   19 1    
    38   18   27 1    
    39   18   78 1    
    40   19   20 am   BACKBONE|DICT|INTERRES
    41   19   79 1    
    42   20   21 2    
    43   20   22 1    
    44   22   23 1    
    45   22   24 1    
    46   22   80 1    
    47   23   81 1    
    48   23   82 1    
    49   23   83 1    
    50   24   25 am   BACKBONE|DICT|INTERRES
    51   24   84 1    
    52   25   26 2    
    53   27   28 2    
    54   27   29 am   BACKBONE|DICT|INTERRES
    55   29   30 1    
    56   29   85 1    
    57   30   31 1    
    58   30   32 1    
    59   30   86 1    
    60   31   87 1    
    61   31   88 1    
    62   31   89 1    
    63   32   33 2    
    64   32   34 am   BACKBONE|DICT|INTERRES
    65   34   35 1    
    66   34   90 1    
    67   35   36 1    
    68   35   37 1    
    69   35   91 1    
    70   36   92 1    
    71   36   93 1    
    72   36   94 1    
    73   37   38 2    
    74   37   39 am   BACKBONE|DICT|INTERRES
    75   39   40 1    
    76   39   95 1    
    77   40   41 1    
    78   40   42 1    
    79   40   96 1    
    80   41   97 1    
    81   41   98 1    
    82   41   99 1    
    83   42   43 2    
    84   42   44 am   BACKBONE|DICT|INTERRES
    85   44   45 1    
    86   44  100 1    
    87   45   46 1    
    88   45   47 1    
    89   45  101 1    
    90   46  102 1    
    91   46  103 1    
    92   46  104 1    
    93   47   48 2    
    94   47   49 am   BACKBONE|DICT|INTERRES
    95   49   50 1    
    96   49  105 1    
    97   50   51 1    
    98   50   52 1    
    99   50  106 1    
   100   51  107 1    
   101   51  108 1    
   102   51  109 1    
   103   52   53 2    
   104   52   54 am   BACKBONE|DICT|INTERRES
   105   54   55 1    
   106   54  110 1    
   107   55   56 1    
   108   55   59 1    
   109   55  111 1    
   110   56   57 am   BACKBONE|DICT|INTERRES
   111   56   58 2    
   112   57  112 1    
   113   57  113 1    
   114   59   60 1    
   115   59  114 1    
   116   59  115 1    
   117   60   61 1    
   118   61  116 1    
   119   61  117 1    
@<TRIPOS>SUBSTRUCTURE
     1 UNK         1 GROUP             0       ****    0 ROOT    
