@<TRIPOS>MOLECULE
3R8
117   119    1
SMALL
USER_CHARGES


@<TRIPOS>ATOM
      1 CA         18.6643  -25.0785  -38.9052 C.3       0 UNK        -0.2013 
      2 C          18.6367  -25.0614  -40.4261 C.2       0 UNK         0.4866 
      3 O          19.1651  -24.1322  -41.0362 O.2       0 UNK        -0.5176 
      4 N          18.0178  -26.0774  -41.0410 N.am      1 UNK        -0.4884 
      5 CA         17.9379  -26.2762  -42.4918 C.3       1 UNK         0.0853 
      6 C6         16.9017  -27.3628  -42.8853 C.3       10 UNK        -0.0849 
      7 S7         16.9317  -28.8620  -41.8383 S.3       10 UNK        -0.2776 
      8 C8         16.5774  -30.1753  -43.0455 C.3       10 UNK         0.0316 
      9 C9         17.7901  -30.5045  -43.9021 C.ar      10 UNK        -0.0863 
     10 C10        18.8801  -31.1733  -43.3380 C.ar      10 UNK        -0.1009 
     11 C11        19.9855  -31.5200  -44.1197 C.ar      10 UNK        -0.0712 
     12 C12        19.9994  -31.1768  -45.4747 C.ar      10 UNK        -0.0894 
     13 C13        18.9277  -30.4811  -46.0445 C.ar      10 UNK        -0.0745 
     14 C14        17.8201  -30.1573  -45.2559 C.ar      10 UNK        -0.0972 
     15 C15        18.9749  -30.0625  -47.5080 C.3       10 UNK         0.0209 
     16 S16        19.4474  -28.3113  -47.6968 S.3       10 UNK        -0.2568 
     17 C17        21.0828  -28.3072  -46.8905 C.3       10 UNK        -0.0983 
     18 CA         21.9974  -27.1167  -47.3000 C.3       3 UNK         0.0876 
     19 N          21.3535  -25.7936  -47.2020 N.am      3 UNK        -0.4424 
     20 C          20.8253  -25.1323  -46.1594 C.2       2 UNK         0.4918 
     21 O          20.2016  -24.0848  -46.3297 O.2       2 UNK        -0.4875 
     22 CA         21.0002  -25.6258  -44.7132 C.3       2 UNK         0.0481 
     23 CB         21.8365  -24.6220  -43.8919 C.3       2 UNK        -0.1831 
     24 N          19.6751  -25.7198  -44.1166 N.am      2 UNK        -0.4498 
     25 C          19.3344  -26.5209  -43.1027 C.2       1 UNK         0.5027 
     26 O          20.0812  -27.3791  -42.6245 O.2       1 UNK        -0.4969 
     27 C          23.3865  -27.2179  -46.6291 C.2       3 UNK         0.5005 
     28 O          23.9098  -28.3260  -46.5098 O.2       3 UNK        -0.5279 
     29 N          23.9462  -26.0905  -46.1613 N.am      4 UNK        -0.4463 
     30 CA         25.1896  -25.9166  -45.3834 C.3       4 UNK         0.0283 
     31 CB         26.4196  -26.3150  -46.2215 C.3       4 UNK        -0.1875 
     32 C          25.2344  -26.6097  -44.0002 C.2       4 UNK         0.4949 
     33 O          25.8956  -26.0986  -43.0974 O.2       4 UNK        -0.5039 
     34 N          24.5574  -27.7548  -43.8644 N.am      5 UNK        -0.4663 
     35 CA         24.5825  -28.6731  -42.7251 C.3       5 UNK         0.0242 
     36 CB         23.7755  -29.9214  -43.1074 C.3       5 UNK        -0.1982 
     37 C          24.0608  -28.1044  -41.3962 C.2       5 UNK         0.5017 
     38 O          24.5637  -28.5053  -40.3474 O.2       5 UNK        -0.5012 
     39 N          23.0535  -27.2216  -41.4615 N.am      6 UNK        -0.4439 
     40 CA         22.3420  -26.6129  -40.3281 C.3       6 UNK         0.0297 
     41 CB         23.2706  -25.6760  -39.5270 C.3       6 UNK        -0.2006 
     42 C          21.6367  -27.6680  -39.4519 C.2       6 UNK         0.4892 
     43 O          21.8979  -27.7583  -38.2514 O.2       6 UNK        -0.5089 
     44 N          20.7576  -28.4496  -40.0952 N.am      7 UNK        -0.4243 
     45 CA         19.9032  -29.5029  -39.5297 C.3       7 UNK         0.0196 
     46 CB         18.8919  -28.9165  -38.5219 C.3       7 UNK        -0.2007 
     47 C          20.6480  -30.7272  -38.9603 C.2       7 UNK         0.5020 
     48 O          20.0434  -31.5088  -38.2242 O.2       7 UNK        -0.5147 
     49 N          21.9189  -30.9292  -39.3422 N.am      8 UNK        -0.4734 
     50 CA         22.7530  -32.0621  -38.9045 C.3       8 UNK         0.0238 
     51 CB         24.2049  -31.8400  -39.3568 C.3       8 UNK        -0.1912 
     52 C          22.2503  -33.4488  -39.3590 C.2       8 UNK         0.5038 
     53 O          22.6763  -34.4572  -38.7948 O.2       8 UNK        -0.5046 
     54 N          21.3481  -33.4716  -40.3479 N.am      9 UNK        -0.4200 
     55 CA         20.5966  -34.6519  -40.7981 C.3       9 UNK         0.0839 
     56 C          19.5550  -35.1701  -39.7614 C.2       9 UNK         0.5513 
     57 N          19.1797  -34.4022  -38.7434 N.am      9 UNK        -0.7519 
     58 O          19.0793  -36.2954  -39.8863 O.2       9 UNK        -0.4960 
     59 C59        19.9120  -34.4069  -42.1707 C.3       10 UNK        -0.0876 
     60 S60        21.0829  -34.0286  -43.5206 S.3       10 UNK        -0.2414 
     61 C61        21.1903  -32.2097  -43.4954 C.3       10 UNK         0.0169 
     62 H62        19.6474  -25.3850  -38.5492 H         1 UNK         0.0903 
     63 H63        18.4559  -24.0830  -38.5139 H         1 UNK         0.0903 
     64 H64        17.9209  -25.7602  -38.4930 H         1 UNK         0.0903 
     65 H65        17.6202  -26.8308  -40.4981 H         1 UNK         0.3096 
     66 H66        17.5706  -25.3333  -42.9039 H         1 UNK         0.1121 
     67 H67        15.8986  -26.9417  -42.8014 H         1 UNK         0.0849 
     68 H68        17.0106  -27.6359  -43.9365 H         1 UNK         0.0849 
     69 H69        16.2704  -31.0727  -42.5064 H         1 UNK         0.0865 
     70 H70        15.7245  -29.8865  -43.6618 H         1 UNK         0.0865 
     71 H71        18.8636  -31.4126  -42.2848 H         1 UNK         0.1346 
     72 H72        20.8589  -31.4291  -46.0806 H         1 UNK         0.1412 
     73 H73        16.9878  -29.6260  -45.6973 H         1 UNK         0.1426 
     74 H74        17.9968  -30.2174  -47.9659 H         1 UNK         0.0716 
     75 H75        19.6745  -30.6878  -48.0650 H         1 UNK         0.0716 
     76 H76        21.5722  -29.2475  -47.1515 H         1 UNK         0.0695 
     77 H77        20.9250  -28.3479  -45.8129 H         1 UNK         0.0695 
     78 H78        22.2058  -27.2409  -48.3641 H         1 UNK         0.0983 
     79 H79        21.2151  -25.3611  -48.1042 H         1 UNK         0.3095 
     80 H80        21.4913  -26.5946  -44.6761 H         1 UNK         0.0454 
     81 H81        22.8300  -24.4754  -44.3106 H         1 UNK         0.0851 
     82 H82        21.9668  -24.9533  -42.8636 H         1 UNK         0.0851 
     83 H83        21.3600  -23.6413  -43.8545 H         1 UNK         0.0851 
     84 H84        19.0039  -25.0574  -44.4837 H         1 UNK         0.2976 
     85 H85        23.4464  -25.2330  -46.3513 H         1 UNK         0.3116 
     86 H86        25.2642  -24.8457  -45.1872 H         1 UNK         0.0646 
     87 H87        26.4277  -27.3805  -46.4533 H         1 UNK         0.0847 
     88 H88        26.4536  -25.7668  -47.1629 H         1 UNK         0.0847 
     89 H89        27.3441  -26.0948  -45.6860 H         1 UNK         0.0847 
     90 H90        24.1332  -28.1130  -44.7174 H         1 UNK         0.3040 
     91 H91        25.6221  -28.9669  -42.5646 H         1 UNK         0.1015 
     92 H92        23.7705  -30.6538  -42.3016 H         1 UNK         0.0786 
     93 H93        24.1960  -30.4119  -43.9858 H         1 UNK         0.0786 
     94 H94        22.7371  -29.6693  -43.3289 H         1 UNK         0.0786 
     95 H95        22.6808  -27.0146  -42.3773 H         1 UNK         0.3172 
     96 H96        21.5525  -25.9929  -40.7530 H         1 UNK         0.0595 
     97 H97        24.0747  -26.2218  -39.0326 H         1 UNK         0.0839 
     98 H98        22.7138  -25.1483  -38.7518 H         1 UNK         0.0839 
     99 H99        23.7239  -24.9227  -40.1713 H         1 UNK         0.0839 
    100 H100       20.5967  -28.2448  -41.0814 H         1 UNK         0.2998 
    101 H101       19.3287  -29.8884  -40.3720 H         1 UNK         0.0822 
    102 H102       18.1780  -29.6729  -38.1937 H         1 UNK         0.0787 
    103 H103       18.3122  -28.1118  -38.9688 H         1 UNK         0.0787 
    104 H104       19.3839  -28.5262  -37.6308 H         1 UNK         0.0787 
    105 H105       22.3631  -30.2258  -39.9153 H         1 UNK         0.3055 
    106 H106       22.7385  -32.0698  -37.8123 H         1 UNK         0.1106 
    107 H107       24.5936  -30.8869  -38.9981 H         1 UNK         0.0828 
    108 H108       24.8577  -32.6200  -38.9624 H         1 UNK         0.0828 
    109 H109       24.3008  -31.8604  -40.4413 H         1 UNK         0.0828 
    110 H110       21.0602  -32.5879  -40.7343 H         1 UNK         0.2931 
    111 H111       21.3200  -35.4588  -40.9304 H         1 UNK         0.0412 
    112 H112       18.5066  -34.7586  -38.0834 H         1 UNK         0.3472 
    113 H113       19.5548  -33.4682  -38.6212 H         1 UNK         0.3472 
    114 H114       19.3692  -35.3030  -42.4781 H         1 UNK         0.0970 
    115 H115       19.1565  -33.6269  -42.0946 H         1 UNK         0.0970 
    116 H116       21.3463  -31.8472  -42.4803 H         1 UNK         0.0612 
    117 H117       22.0865  -31.9342  -44.0514 H         1 UNK         0.0612 
@<TRIPOS>BOND
     1    1    2 1    
     2    1   62 1    
     3    1   63 1    
     4    1   64 1    
     5    2    3 2    
     6    2    4 am   BACKBONE|DICT|INTERRES
     7    4    5 1    
     8    4   65 1    
     9    5    6 1    
    10    5   25 1    
    11    5   66 1    
    12    6    7 1    
    13    6   67 1    
    14    6   68 1    
    15    7    8 1    
    16    8    9 1    
    17    8   69 1    
    18    8   70 1    
    19    9   10 ar   
    20    9   14 ar   
    21   10   11 ar   
    22   10   71 1    
    23   11   12 ar   
    24   11   61 1    
    25   12   13 ar   
    26   12   72 1    
    27   13   14 ar   
    28   13   15 1    
    29   14   73 1    
    30   15   16 1    
    31   15   74 1    
    32   15   75 1    
    33   16   17 1    
    34   17   18 1    
    35   17   76 1    
    36   17   77 1    
    37   18   19 1    
    38   18   27 1    
    39   18   78 1    
    40   19   20 am   BACKBONE|DICT|INTERRES
    41   19   79 1    
    42   20   21 2    
    43   20   22 1    
    44   22   23 1    
    45   22   24 1    
    46   22   80 1    
    47   23   81 1    
    48   23   82 1    
    49   23   83 1    
    50   24   25 am   BACKBONE|DICT|INTERRES
    51   24   84 1    
    52   25   26 2    
    53   27   28 2    
    54   27   29 am   BACKBONE|DICT|INTERRES
    55   29   30 1    
    56   29   85 1    
    57   30   31 1    
    58   30   32 1    
    59   30   86 1    
    60   31   87 1    
    61   31   88 1    
    62   31   89 1    
    63   32   33 2    
    64   32   34 am   BACKBONE|DICT|INTERRES
    65   34   35 1    
    66   34   90 1    
    67   35   36 1    
    68   35   37 1    
    69   35   91 1    
    70   36   92 1    
    71   36   93 1    
    72   36   94 1    
    73   37   38 2    
    74   37   39 am   BACKBONE|DICT|INTERRES
    75   39   40 1    
    76   39   95 1    
    77   40   41 1    
    78   40   42 1    
    79   40   96 1    
    80   41   97 1    
    81   41   98 1    
    82   41   99 1    
    83   42   43 2    
    84   42   44 am   BACKBONE|DICT|INTERRES
    85   44   45 1    
    86   44  100 1    
    87   45   46 1    
    88   45   47 1    
    89   45  101 1    
    90   46  102 1    
    91   46  103 1    
    92   46  104 1    
    93   47   48 2    
    94   47   49 am   BACKBONE|DICT|INTERRES
    95   49   50 1    
    96   49  105 1    
    97   50   51 1    
    98   50   52 1    
    99   50  106 1    
   100   51  107 1    
   101   51  108 1    
   102   51  109 1    
   103   52   53 2    
   104   52   54 am   BACKBONE|DICT|INTERRES
   105   54   55 1    
   106   54  110 1    
   107   55   56 1    
   108   55   59 1    
   109   55  111 1    
   110   56   57 am   BACKBONE|DICT|INTERRES
   111   56   58 2    
   112   57  112 1    
   113   57  113 1    
   114   59   60 1    
   115   59  114 1    
   116   59  115 1    
   117   60   61 1    
   118   61  116 1    
   119   61  117 1    
@<TRIPOS>SUBSTRUCTURE
     1 UNK         1 GROUP             0       ****    0 ROOT    
