@<TRIPOS>MOLECULE
3R8
117   119    1
SMALL
USER_CHARGES


@<TRIPOS>ATOM
      1 CA         19.0167  -29.7593  -42.2008 C.3       0 UNK        -0.2013 
      2 C          18.4325  -28.3605  -42.2924 C.2       0 UNK         0.4866 
      3 O          18.6658  -27.5346  -41.4092 O.2       0 UNK        -0.5176 
      4 N          17.6897  -28.0759  -43.3691 N.am      1 UNK        -0.4884 
      5 CA         17.0406  -26.7878  -43.6560 C.3       1 UNK         0.0853 
      6 C6         15.8514  -26.9388  -44.6454 C.3       10 UNK        -0.0849 
      7 S7         14.5616  -28.1024  -44.0744 S.3       10 UNK        -0.2776 
      8 C8         14.5990  -29.3964  -45.3611 C.3       10 UNK         0.0316 
      9 C9         15.8088  -30.3044  -45.2021 C.ar      10 UNK        -0.0863 
     10 C10        15.7454  -31.4212  -44.3653 C.ar      10 UNK        -0.1009 
     11 C11        16.8688  -32.2309  -44.1788 C.ar      10 UNK        -0.0712 
     12 C12        18.0689  -31.9029  -44.8191 C.ar      10 UNK        -0.0894 
     13 C13        18.1488  -30.7859  -45.6584 C.ar      10 UNK        -0.0745 
     14 C14        16.9986  -30.0173  -45.8750 C.ar      10 UNK        -0.0972 
     15 C15        19.4832  -30.4205  -46.3092 C.3       10 UNK         0.0209 
     16 S16        19.7442  -28.6167  -46.4256 S.3       10 UNK        -0.2568 
     17 C17        21.5441  -28.4521  -46.1927 C.3       10 UNK        -0.0983 
     18 CA         21.9568  -26.9668  -46.0275 C.3       3 UNK         0.0876 
     19 N          21.2252  -26.3240  -44.9265 N.am      3 UNK        -0.4424 
     20 C          21.1123  -25.0039  -44.7288 C.2       2 UNK         0.4918 
     21 O          21.6703  -24.1589  -45.4303 O.2       2 UNK        -0.4875 
     22 CA         20.2269  -24.5670  -43.5421 C.3       2 UNK         0.0481 
     23 CB         19.7652  -23.0983  -43.6476 C.3       2 UNK        -0.1831 
     24 N          19.0847  -25.4632  -43.3095 N.am      2 UNK        -0.4498 
     25 C          18.0677  -25.7353  -44.1427 C.2       1 UNK         0.5027 
     26 O          17.9402  -25.2156  -45.2529 O.2       1 UNK        -0.4969 
     27 C          23.4891  -26.8348  -45.8857 C.2       3 UNK         0.5005 
     28 O          24.2046  -26.9274  -46.8844 O.2       3 UNK        -0.5279 
     29 N          23.9580  -26.6138  -44.6539 N.am      4 UNK        -0.4463 
     30 CA         25.3373  -26.3826  -44.2478 C.3       4 UNK         0.0283 
     31 CB         26.1353  -27.7017  -44.2530 C.3       4 UNK        -0.1875 
     32 C          25.2910  -25.7661  -42.8446 C.2       4 UNK         0.4949 
     33 O          24.2452  -25.8162  -42.1893 O.2       4 UNK        -0.5039 
     34 N          26.4287  -25.2244  -42.3924 N.am      5 UNK        -0.4663 
     35 CA         26.5843  -24.5594  -41.0906 C.3       5 UNK         0.0242 
     36 CB         27.9758  -23.9083  -41.0245 C.3       5 UNK        -0.1982 
     37 C          26.3608  -25.4708  -39.8673 C.2       5 UNK         0.5017 
     38 O          26.0657  -24.9590  -38.7866 O.2       5 UNK        -0.5012 
     39 N          26.4982  -26.7886  -40.0569 N.am      6 UNK        -0.4439 
     40 CA         26.2607  -27.8214  -39.0495 C.3       6 UNK         0.0297 
     41 CB         27.6061  -28.2704  -38.4460 C.3       6 UNK        -0.2006 
     42 C          25.4485  -28.9832  -39.6480 C.2       6 UNK         0.4892 
     43 O          25.7260  -30.1439  -39.3399 O.2       6 UNK        -0.5089 
     44 N          24.4683  -28.6615  -40.5065 N.am      7 UNK        -0.4243 
     45 CA         23.5386  -29.6339  -41.0883 C.3       7 UNK         0.0196 
     46 CB         22.7711  -28.9871  -42.2528 C.3       7 UNK        -0.2007 
     47 C          22.5517  -30.1800  -40.0434 C.2       7 UNK         0.5020 
     48 O          22.1332  -29.4453  -39.1460 O.2       7 UNK        -0.5147 
     49 N          22.1653  -31.4464  -40.2125 N.am      8 UNK        -0.4734 
     50 CA         21.1713  -32.1526  -39.4104 C.3       8 UNK         0.0238 
     51 CB         21.8022  -32.6497  -38.0960 C.3       8 UNK        -0.1912 
     52 C          20.6357  -33.3222  -40.2433 C.2       8 UNK         0.5038 
     53 O          21.3416  -33.8033  -41.1349 O.2       8 UNK        -0.5046 
     54 N          19.4103  -33.7579  -39.9353 N.am      9 UNK        -0.4200 
     55 CA         18.7145  -34.8517  -40.6364 C.3       9 UNK         0.0839 
     56 C          19.0106  -36.2674  -40.0624 C.2       9 UNK         0.5513 
     57 N          19.7859  -36.4067  -38.9934 N.am      9 UNK        -0.7519 
     58 O          18.5358  -37.2617  -40.6053 O.2       9 UNK        -0.4960 
     59 C59        17.1882  -34.5884  -40.7435 C.3       10 UNK        -0.0876 
     60 S60        16.8168  -32.9816  -41.5235 S.3       10 UNK        -0.2414 
     61 C61        16.7858  -33.4536  -43.2785 C.3       10 UNK         0.0169 
     62 H62        19.6725  -29.8495  -41.3354 H         1 UNK         0.0903 
     63 H63        18.2187  -30.4922  -42.0995 H         1 UNK         0.0903 
     64 H64        19.5946  -29.9955  -43.0934 H         1 UNK         0.0903 
     65 H65        17.5268  -28.8000  -44.0577 H         1 UNK         0.3096 
     66 H66        16.6303  -26.4041  -42.7189 H         1 UNK         0.1121 
     67 H67        15.3649  -25.9721  -44.7892 H         1 UNK         0.0849 
     68 H68        16.2068  -27.2345  -45.6329 H         1 UNK         0.0849 
     69 H69        13.6849  -29.9880  -45.2905 H         1 UNK         0.0865 
     70 H70        14.5845  -28.9389  -46.3517 H         1 UNK         0.0865 
     71 H71        14.8252  -31.6550  -43.8469 H         1 UNK         0.1346 
     72 H72        18.9454  -32.5152  -44.6551 H         1 UNK         0.1412 
     73 H73        17.0381  -29.1676  -46.5420 H         1 UNK         0.1426 
     74 H74        19.5265  -30.8528  -47.3095 H         1 UNK         0.0716 
     75 H75        20.3032  -30.8625  -45.7413 H         1 UNK         0.0716 
     76 H76        22.0434  -28.8999  -47.0543 H         1 UNK         0.0695 
     77 H77        21.8429  -29.0335  -45.3185 H         1 UNK         0.0695 
     78 H78        21.6868  -26.4407  -46.9461 H         1 UNK         0.0983 
     79 H79        20.6966  -26.9409  -44.3289 H         1 UNK         0.3095 
     80 H80        20.8565  -24.6485  -42.6548 H         1 UNK         0.0454 
     81 H81        20.6195  -22.4209  -43.6752 H         1 UNK         0.0851 
     82 H82        19.1549  -22.8112  -42.7915 H         1 UNK         0.0851 
     83 H83        19.1819  -22.9198  -44.5513 H         1 UNK         0.0851 
     84 H84        19.0982  -25.9867  -42.4363 H         1 UNK         0.2976 
     85 H85        23.2999  -26.4931  -43.8926 H         1 UNK         0.3116 
     86 H86        25.7934  -25.6654  -44.9331 H         1 UNK         0.0646 
     87 H87        27.1809  -27.5292  -43.9964 H         1 UNK         0.0847 
     88 H88        26.1240  -28.1723  -45.2360 H         1 UNK         0.0847 
     89 H89        25.7400  -28.4209  -43.5353 H         1 UNK         0.0847 
     90 H90        27.2415  -25.2319  -42.9930 H         1 UNK         0.3040 
     91 H91        25.8333  -23.7681  -41.0342 H         1 UNK         0.1015 
     92 H92        28.1150  -23.3774  -40.0815 H         1 UNK         0.0786 
     93 H93        28.1134  -23.1809  -41.8249 H         1 UNK         0.0786 
     94 H94        28.7725  -24.6495  -41.1013 H         1 UNK         0.0786 
     95 H95        26.7372  -27.1124  -40.9837 H         1 UNK         0.3172 
     96 H96        25.6462  -27.4170  -38.2425 H         1 UNK         0.0595 
     97 H97        28.2525  -28.7241  -39.1981 H         1 UNK         0.0839 
     98 H98        27.4566  -29.0060  -37.6546 H         1 UNK         0.0839 
     99 H99        28.1425  -27.4298  -38.0055 H         1 UNK         0.0839 
    100 H100       24.2807  -27.6842  -40.6905 H         1 UNK         0.2998 
    101 H101       24.1237  -30.4678  -41.4831 H         1 UNK         0.0822 
    102 H102       23.4471  -28.7108  -43.0580 H         1 UNK         0.0787 
    103 H103       22.2294  -28.0944  -41.9366 H         1 UNK         0.0787 
    104 H104       22.0445  -29.6806  -42.6768 H         1 UNK         0.0787 
    105 H105       22.5130  -31.9872  -40.9964 H         1 UNK         0.3055 
    106 H106       20.3444  -31.4734  -39.1895 H         1 UNK         0.1106 
    107 H107       22.6337  -33.3308  -38.2819 H         1 UNK         0.0828 
    108 H108       22.1787  -31.8207  -37.4965 H         1 UNK         0.0828 
    109 H109       21.0723  -33.1815  -37.4848 H         1 UNK         0.0828 
    110 H110       18.8998  -33.3213  -39.1818 H         1 UNK         0.2931 
    111 H111       19.0922  -34.8839  -41.6602 H         1 UNK         0.0412 
    112 H112       20.1893  -35.6006  -38.5444 H         1 UNK         0.3472 
    113 H113       19.9728  -37.3308  -38.6360 H         1 UNK         0.3472 
    114 H114       16.6941  -35.3785  -41.3127 H         1 UNK         0.0970 
    115 H115       16.7307  -34.6005  -39.7527 H         1 UNK         0.0970 
    116 H116       15.8698  -34.0081  -43.4877 H         1 UNK         0.0612 
    117 H117       17.6140  -34.1317  -43.4893 H         1 UNK         0.0612 
@<TRIPOS>BOND
     1    1    2 1    
     2    1   62 1    
     3    1   63 1    
     4    1   64 1    
     5    2    3 2    
     6    2    4 am   BACKBONE|DICT|INTERRES
     7    4    5 1    
     8    4   65 1    
     9    5    6 1    
    10    5   25 1    
    11    5   66 1    
    12    6    7 1    
    13    6   67 1    
    14    6   68 1    
    15    7    8 1    
    16    8    9 1    
    17    8   69 1    
    18    8   70 1    
    19    9   10 ar   
    20    9   14 ar   
    21   10   11 ar   
    22   10   71 1    
    23   11   12 ar   
    24   11   61 1    
    25   12   13 ar   
    26   12   72 1    
    27   13   14 ar   
    28   13   15 1    
    29   14   73 1    
    30   15   16 1    
    31   15   74 1    
    32   15   75 1    
    33   16   17 1    
    34   17   18 1    
    35   17   76 1    
    36   17   77 1    
    37   18   19 1    
    38   18   27 1    
    39   18   78 1    
    40   19   20 am   BACKBONE|DICT|INTERRES
    41   19   79 1    
    42   20   21 2    
    43   20   22 1    
    44   22   23 1    
    45   22   24 1    
    46   22   80 1    
    47   23   81 1    
    48   23   82 1    
    49   23   83 1    
    50   24   25 am   BACKBONE|DICT|INTERRES
    51   24   84 1    
    52   25   26 2    
    53   27   28 2    
    54   27   29 am   BACKBONE|DICT|INTERRES
    55   29   30 1    
    56   29   85 1    
    57   30   31 1    
    58   30   32 1    
    59   30   86 1    
    60   31   87 1    
    61   31   88 1    
    62   31   89 1    
    63   32   33 2    
    64   32   34 am   BACKBONE|DICT|INTERRES
    65   34   35 1    
    66   34   90 1    
    67   35   36 1    
    68   35   37 1    
    69   35   91 1    
    70   36   92 1    
    71   36   93 1    
    72   36   94 1    
    73   37   38 2    
    74   37   39 am   BACKBONE|DICT|INTERRES
    75   39   40 1    
    76   39   95 1    
    77   40   41 1    
    78   40   42 1    
    79   40   96 1    
    80   41   97 1    
    81   41   98 1    
    82   41   99 1    
    83   42   43 2    
    84   42   44 am   BACKBONE|DICT|INTERRES
    85   44   45 1    
    86   44  100 1    
    87   45   46 1    
    88   45   47 1    
    89   45  101 1    
    90   46  102 1    
    91   46  103 1    
    92   46  104 1    
    93   47   48 2    
    94   47   49 am   BACKBONE|DICT|INTERRES
    95   49   50 1    
    96   49  105 1    
    97   50   51 1    
    98   50   52 1    
    99   50  106 1    
   100   51  107 1    
   101   51  108 1    
   102   51  109 1    
   103   52   53 2    
   104   52   54 am   BACKBONE|DICT|INTERRES
   105   54   55 1    
   106   54  110 1    
   107   55   56 1    
   108   55   59 1    
   109   55  111 1    
   110   56   57 am   BACKBONE|DICT|INTERRES
   111   56   58 2    
   112   57  112 1    
   113   57  113 1    
   114   59   60 1    
   115   59  114 1    
   116   59  115 1    
   117   60   61 1    
   118   61  116 1    
   119   61  117 1    
@<TRIPOS>SUBSTRUCTURE
     1 UNK         1 GROUP             0       ****    0 ROOT    
