@<TRIPOS>MOLECULE
3R8
117   119    1
SMALL
USER_CHARGES


@<TRIPOS>ATOM
      1 CA         20.6613  -29.6274  -46.9204 C.3       0 UNK        -0.2013 
      2 C          21.0122  -28.2829  -47.5482 C.2       0 UNK         0.4866 
      3 O          22.0100  -28.1927  -48.2600 O.2       0 UNK        -0.5176 
      4 N          20.2451  -27.2096  -47.3153 N.am      1 UNK        -0.4884 
      5 CA         19.0357  -27.1296  -46.4820 C.3       1 UNK         0.0853 
      6 C6         17.7633  -26.8349  -47.3171 C.3       10 UNK        -0.0849 
      7 S7         17.3233  -28.2588  -48.3694 S.3       10 UNK        -0.2776 
      8 C8         15.9546  -29.0118  -47.4274 C.3       10 UNK         0.0316 
      9 C9         16.3758  -29.4755  -46.0369 C.ar      10 UNK        -0.0863 
     10 C10        17.1888  -30.6037  -45.8838 C.ar      10 UNK        -0.1009 
     11 C11        17.5484  -31.0491  -44.6079 C.ar      10 UNK        -0.0712 
     12 C12        17.0744  -30.3728  -43.4813 C.ar      10 UNK        -0.0894 
     13 C13        16.2782  -29.2348  -43.6196 C.ar      10 UNK        -0.0745 
     14 C14        15.9314  -28.7908  -44.9000 C.ar      10 UNK        -0.0972 
     15 C15        15.7766  -28.4950  -42.3887 C.3       10 UNK         0.0209 
     16 S16        16.8386  -27.0730  -41.9880 S.3       10 UNK        -0.2568 
     17 C17        18.0599  -27.7722  -40.8204 C.3       10 UNK        -0.0983 
     18 CA         19.3510  -28.3300  -41.4925 C.3       3 UNK         0.0876 
     19 N          19.9511  -27.4367  -42.4822 N.am      3 UNK        -0.4424 
     20 C          20.4161  -26.1940  -42.2921 C.2       2 UNK         0.4918 
     21 O          20.4695  -25.6388  -41.1933 O.2       2 UNK        -0.4875 
     22 CA         20.8634  -25.4239  -43.5566 C.3       2 UNK         0.0481 
     23 CB         22.3796  -25.1799  -43.5621 C.3       2 UNK        -0.1831 
     24 N          20.4918  -26.1069  -44.8017 N.am      2 UNK        -0.4498 
     25 C          19.2598  -26.1259  -45.3332 C.2       1 UNK         0.5027 
     26 O          18.3350  -25.4212  -44.9287 O.2       1 UNK        -0.4969 
     27 C          20.4236  -28.8372  -40.5094 C.2       3 UNK         0.5005 
     28 O          21.3976  -29.4446  -40.9574 O.2       3 UNK        -0.5279 
     29 N          20.2307  -28.6198  -39.2005 N.am      4 UNK        -0.4463 
     30 CA         21.1233  -29.0854  -38.1352 C.3       4 UNK         0.0283 
     31 CB         20.4232  -28.9131  -36.7779 C.3       4 UNK        -0.1875 
     32 C          22.4980  -28.3925  -38.1211 C.2       4 UNK         0.4949 
     33 O          23.4545  -28.9758  -37.6109 O.2       4 UNK        -0.5039 
     34 N          22.5794  -27.1779  -38.6765 N.am      5 UNK        -0.4663 
     35 CA         23.8257  -26.4414  -38.8730 C.3       5 UNK         0.0242 
     36 CB         23.5423  -24.9385  -38.7194 C.3       5 UNK        -0.1982 
     37 C          24.3692  -26.7337  -40.2764 C.2       5 UNK         0.5017 
     38 O          23.5755  -26.8719  -41.2073 O.2       5 UNK        -0.5012 
     39 N          25.7019  -26.7830  -40.4104 N.am      6 UNK        -0.4439 
     40 CA         26.4947  -26.9471  -41.6403 C.3       6 UNK         0.0297 
     41 CB         26.3294  -25.7319  -42.5750 C.3       6 UNK        -0.2006 
     42 C          26.2673  -28.2695  -42.3998 C.2       6 UNK         0.4892 
     43 O          27.2204  -29.0265  -42.5863 O.2       6 UNK        -0.5089 
     44 N          25.0243  -28.5178  -42.8286 N.am      7 UNK        -0.4243 
     45 CA         24.5855  -29.7415  -43.4999 C.3       7 UNK         0.0196 
     46 CB         23.2266  -29.4937  -44.1761 C.3       7 UNK        -0.2007 
     47 C          24.5053  -30.9310  -42.5301 C.2       7 UNK         0.5020 
     48 O          24.8583  -32.0456  -42.9158 O.2       7 UNK        -0.5147 
     49 N          24.0626  -30.6576  -41.2930 N.am      8 UNK        -0.4734 
     50 CA         23.8829  -31.5942  -40.1779 C.3       8 UNK         0.0238 
     51 CB         25.2479  -32.1081  -39.6728 C.3       8 UNK        -0.1912 
     52 C          22.8909  -32.7230  -40.5149 C.2       8 UNK         0.5038 
     53 O          23.2018  -33.8983  -40.3074 O.2       8 UNK        -0.5046 
     54 N          21.7244  -32.3394  -41.0453 N.am      9 UNK        -0.4200 
     55 CA         20.6588  -33.2442  -41.4929 C.3       9 UNK         0.0839 
     56 C          19.2857  -32.8877  -40.8622 C.2       9 UNK         0.5513 
     57 N          18.3323  -33.8085  -40.9037 N.am      9 UNK        -0.7519 
     58 O          19.0643  -31.7921  -40.3517 O.2       9 UNK        -0.4960 
     59 C59        20.6210  -33.3426  -43.0435 C.3       10 UNK        -0.0876 
     60 S60        20.1048  -31.8045  -43.8866 S.3       10 UNK        -0.2414 
     61 C61        18.4300  -32.2721  -44.4274 C.3       10 UNK         0.0169 
     62 H62        20.6275  -29.5567  -45.8344 H         1 UNK         0.0903 
     63 H63        19.6971  -29.9800  -47.2833 H         1 UNK         0.0903 
     64 H64        21.4074  -30.3789  -47.1778 H         1 UNK         0.0903 
     65 H65        20.5150  -26.3350  -47.7453 H         1 UNK         0.3096 
     66 H66        18.8590  -28.0726  -45.9645 H         1 UNK         0.1121 
     67 H67        16.9086  -26.6018  -46.6797 H         1 UNK         0.0849 
     68 H68        17.9133  -25.9590  -47.9505 H         1 UNK         0.0849 
     69 H69        15.1292  -28.3007  -47.3655 H         1 UNK         0.0865 
     70 H70        15.5723  -29.8665  -47.9873 H         1 UNK         0.0865 
     71 H71        17.5373  -31.1349  -46.7590 H         1 UNK         0.1346 
     72 H72        17.3371  -30.7314  -42.4950 H         1 UNK         0.1412 
     73 H73        15.3073  -27.9138  -45.0074 H         1 UNK         0.1426 
     74 H74        14.7651  -28.1307  -42.5744 H         1 UNK         0.0716 
     75 H75        15.7010  -29.1673  -41.5328 H         1 UNK         0.0716 
     76 H76        18.3084  -26.9671  -40.1270 H         1 UNK         0.0695 
     77 H77        17.5755  -28.5486  -40.2254 H         1 UNK         0.0695 
     78 H78        19.0628  -29.2178  -42.0524 H         1 UNK         0.0983 
     79 H79        19.9905  -27.8072  -43.4172 H         1 UNK         0.3095 
     80 H80        20.3684  -24.4510  -43.5297 H         1 UNK         0.0454 
     81 H81        22.7024  -24.6986  -42.6379 H         1 UNK         0.0851 
     82 H82        22.9355  -26.1126  -43.6577 H         1 UNK         0.0851 
     83 H83        22.6740  -24.5285  -44.3848 H         1 UNK         0.0851 
     84 H84        21.2062  -26.6715  -45.2388 H         1 UNK         0.2976 
     85 H85        19.4076  -28.1115  -38.9121 H         1 UNK         0.3116 
     86 H86        21.2971  -30.1521  -38.2928 H         1 UNK         0.0646 
     87 H87        21.0516  -29.2814  -35.9656 H         1 UNK         0.0847 
     88 H88        19.4881  -29.4721  -36.7386 H         1 UNK         0.0847 
     89 H89        20.2007  -27.8663  -36.5672 H         1 UNK         0.0847 
     90 H90        21.7690  -26.8152  -39.1608 H         1 UNK         0.3040 
     91 H91        24.5635  -26.7401  -38.1248 H         1 UNK         0.1015 
     92 H92        23.1491  -24.7088  -37.7289 H         1 UNK         0.0786 
     93 H93        22.8184  -24.5876  -39.4570 H         1 UNK         0.0786 
     94 H94        24.4529  -24.3525  -38.8511 H         1 UNK         0.0786 
     95 H95        26.2546  -26.6828  -39.5696 H         1 UNK         0.3172 
     96 H96        27.5359  -26.9567  -41.3133 H         1 UNK         0.0595 
     97 H97        25.3037  -25.6169  -42.9244 H         1 UNK         0.0839 
     98 H98        26.9626  -25.8301  -43.4578 H         1 UNK         0.0839 
     99 H99        26.6151  -24.8068  -42.0743 H         1 UNK         0.0839 
    100 H100       24.3033  -27.8654  -42.5263 H         1 UNK         0.2998 
    101 H101       25.3148  -29.9891  -44.2743 H         1 UNK         0.0822 
    102 H102       23.2945  -28.7047  -44.9250 H         1 UNK         0.0787 
    103 H103       22.8765  -30.3940  -44.6831 H         1 UNK         0.0787 
    104 H104       22.4607  -29.2087  -43.4538 H         1 UNK         0.0787 
    105 H105       23.6976  -29.7265  -41.1324 H         1 UNK         0.3055 
    106 H106       23.4266  -31.0275  -39.3666 H         1 UNK         0.1106 
    107 H107       25.1271  -32.7217  -38.7793 H         1 UNK         0.0828 
    108 H108       25.7546  -32.7187  -40.4207 H         1 UNK         0.0828 
    109 H109       25.9083  -31.2816  -39.4104 H         1 UNK         0.0828 
    110 H110       21.5274  -31.3450  -41.1380 H         1 UNK         0.2931 
    111 H111       20.8832  -34.2457  -41.1209 H         1 UNK         0.0412 
    112 H112       17.4329  -33.5967  -40.5010 H         1 UNK         0.3472 
    113 H113       18.4964  -34.7162  -41.3102 H         1 UNK         0.3472 
    114 H114       19.9769  -34.1672  -43.3527 H         1 UNK         0.0970 
    115 H115       21.6134  -33.6062  -43.4126 H         1 UNK         0.0970 
    116 H116       17.9664  -32.9277  -43.6893 H         1 UNK         0.0612 
    117 H117       18.4997  -32.8462  -45.3525 H         1 UNK         0.0612 
@<TRIPOS>BOND
     1    1    2 1    
     2    1   62 1    
     3    1   63 1    
     4    1   64 1    
     5    2    3 2    
     6    2    4 am   BACKBONE|DICT|INTERRES
     7    4    5 1    
     8    4   65 1    
     9    5    6 1    
    10    5   25 1    
    11    5   66 1    
    12    6    7 1    
    13    6   67 1    
    14    6   68 1    
    15    7    8 1    
    16    8    9 1    
    17    8   69 1    
    18    8   70 1    
    19    9   10 ar   
    20    9   14 ar   
    21   10   11 ar   
    22   10   71 1    
    23   11   12 ar   
    24   11   61 1    
    25   12   13 ar   
    26   12   72 1    
    27   13   14 ar   
    28   13   15 1    
    29   14   73 1    
    30   15   16 1    
    31   15   74 1    
    32   15   75 1    
    33   16   17 1    
    34   17   18 1    
    35   17   76 1    
    36   17   77 1    
    37   18   19 1    
    38   18   27 1    
    39   18   78 1    
    40   19   20 am   BACKBONE|DICT|INTERRES
    41   19   79 1    
    42   20   21 2    
    43   20   22 1    
    44   22   23 1    
    45   22   24 1    
    46   22   80 1    
    47   23   81 1    
    48   23   82 1    
    49   23   83 1    
    50   24   25 am   BACKBONE|DICT|INTERRES
    51   24   84 1    
    52   25   26 2    
    53   27   28 2    
    54   27   29 am   BACKBONE|DICT|INTERRES
    55   29   30 1    
    56   29   85 1    
    57   30   31 1    
    58   30   32 1    
    59   30   86 1    
    60   31   87 1    
    61   31   88 1    
    62   31   89 1    
    63   32   33 2    
    64   32   34 am   BACKBONE|DICT|INTERRES
    65   34   35 1    
    66   34   90 1    
    67   35   36 1    
    68   35   37 1    
    69   35   91 1    
    70   36   92 1    
    71   36   93 1    
    72   36   94 1    
    73   37   38 2    
    74   37   39 am   BACKBONE|DICT|INTERRES
    75   39   40 1    
    76   39   95 1    
    77   40   41 1    
    78   40   42 1    
    79   40   96 1    
    80   41   97 1    
    81   41   98 1    
    82   41   99 1    
    83   42   43 2    
    84   42   44 am   BACKBONE|DICT|INTERRES
    85   44   45 1    
    86   44  100 1    
    87   45   46 1    
    88   45   47 1    
    89   45  101 1    
    90   46  102 1    
    91   46  103 1    
    92   46  104 1    
    93   47   48 2    
    94   47   49 am   BACKBONE|DICT|INTERRES
    95   49   50 1    
    96   49  105 1    
    97   50   51 1    
    98   50   52 1    
    99   50  106 1    
   100   51  107 1    
   101   51  108 1    
   102   51  109 1    
   103   52   53 2    
   104   52   54 am   BACKBONE|DICT|INTERRES
   105   54   55 1    
   106   54  110 1    
   107   55   56 1    
   108   55   59 1    
   109   55  111 1    
   110   56   57 am   BACKBONE|DICT|INTERRES
   111   56   58 2    
   112   57  112 1    
   113   57  113 1    
   114   59   60 1    
   115   59  114 1    
   116   59  115 1    
   117   60   61 1    
   118   61  116 1    
   119   61  117 1    
@<TRIPOS>SUBSTRUCTURE
     1 UNK         1 GROUP             0       ****    0 ROOT    
