@<TRIPOS>MOLECULE
3R8
117   119    1
SMALL
USER_CHARGES


@<TRIPOS>ATOM
      1 CA         18.0491  -23.6703  -41.9932 C.3       0 UNK        -0.2013 
      2 C          18.3695  -24.6282  -40.8487 C.2       0 UNK         0.4866 
      3 O          18.5883  -24.1675  -39.7305 O.2       0 UNK        -0.5176 
      4 N          18.3990  -25.9519  -41.0577 N.am      1 UNK        -0.4884 
      5 CA         18.2594  -26.6640  -42.3333 C.3       1 UNK         0.0853 
      6 C6         17.9509  -28.1616  -42.1168 C.3       10 UNK        -0.0849 
      7 S7         16.2577  -28.4333  -41.4864 S.3       10 UNK        -0.2776 
      8 C8         15.3356  -28.8865  -42.9967 C.3       10 UNK         0.0316 
      9 C9         16.0043  -30.0261  -43.7514 C.ar      10 UNK        -0.0863 
     10 C10        16.1286  -31.2842  -43.1601 C.ar      10 UNK        -0.1009 
     11 C11        16.8368  -32.3035  -43.8011 C.ar      10 UNK        -0.0712 
     12 C12        17.4081  -32.0638  -45.0567 C.ar      10 UNK        -0.0894 
     13 C13        17.2635  -30.8151  -45.6727 C.ar      10 UNK        -0.0745 
     14 C14        16.5518  -29.8055  -45.0176 C.ar      10 UNK        -0.0972 
     15 C15        17.8419  -30.5533  -47.0576 C.3       10 UNK         0.0209 
     16 S16        18.9935  -29.1395  -47.0739 S.3       10 UNK        -0.2568 
     17 C17        20.6003  -29.9679  -46.8652 C.3       10 UNK        -0.0983 
     18 CA         21.7214  -28.9510  -46.5347 C.3       3 UNK         0.0876 
     19 N          21.5937  -28.3930  -45.1822 N.am      3 UNK        -0.4424 
     20 C          22.1472  -27.2362  -44.7956 C.2       2 UNK         0.4918 
     21 O          22.7626  -26.4930  -45.5624 O.2       2 UNK        -0.4875 
     22 CA         21.9940  -26.8491  -43.3095 C.3       2 UNK         0.0481 
     23 CB         22.4735  -25.4096  -43.0207 C.3       2 UNK        -0.1831 
     24 N          20.6449  -27.0460  -42.7708 N.am      2 UNK        -0.4498 
     25 C          19.5172  -26.4556  -43.1966 C.2       1 UNK         0.5027 
     26 O          19.4486  -25.7268  -44.1865 O.2       1 UNK        -0.4969 
     27 C          23.1182  -29.5690  -46.7511 C.2       3 UNK         0.5005 
     28 O          23.7159  -29.3669  -47.8097 O.2       3 UNK        -0.5279 
     29 N          23.6172  -30.2925  -45.7426 N.am      4 UNK        -0.4463 
     30 CA         24.9246  -30.9489  -45.7188 C.3       4 UNK         0.0283 
     31 CB         24.8042  -32.3654  -46.3141 C.3       4 UNK        -0.1875 
     32 C          25.5068  -30.9453  -44.2940 C.2       4 UNK         0.4949 
     33 O          26.1826  -31.8976  -43.9033 O.2       4 UNK        -0.5039 
     34 N          25.2232  -29.8814  -43.5355 N.am      5 UNK        -0.4663 
     35 CA         25.6679  -29.6368  -42.1638 C.3       5 UNK         0.0242 
     36 CB         24.9473  -30.5826  -41.1745 C.3       5 UNK        -0.1982 
     37 C          25.4229  -28.1525  -41.8473 C.2       5 UNK         0.5017 
     38 O          25.3010  -27.3476  -42.7738 O.2       5 UNK        -0.5012 
     39 N          25.3219  -27.8220  -40.5569 N.am      6 UNK        -0.4439 
     40 CA         24.8212  -26.5529  -40.0409 C.3       6 UNK         0.0297 
     41 CB         25.9652  -25.7748  -39.3716 C.3       6 UNK        -0.2006 
     42 C          23.7231  -26.8972  -39.0296 C.2       6 UNK         0.4892 
     43 O          23.9070  -27.8382  -38.2519 O.2       6 UNK        -0.5089 
     44 N          22.6087  -26.1526  -39.0711 N.am      7 UNK        -0.4243 
     45 CA         21.3692  -26.3048  -38.2884 C.3       7 UNK         0.0196 
     46 CB         21.6230  -26.1195  -36.7793 C.3       7 UNK        -0.2007 
     47 C          20.5944  -27.6078  -38.5696 C.2       7 UNK         0.5020 
     48 O          19.4054  -27.5507  -38.8832 O.2       7 UNK        -0.5147 
     49 N          21.2805  -28.7500  -38.4712 N.am      8 UNK        -0.4734 
     50 CA         20.7993  -30.0840  -38.8323 C.3       8 UNK         0.0238 
     51 CB         21.7276  -31.1193  -38.1706 C.3       8 UNK        -0.1912 
     52 C          20.7508  -30.2825  -40.3594 C.2       8 UNK         0.5038 
     53 O          21.1296  -29.3795  -41.1111 O.2       8 UNK        -0.5046 
     54 N          20.2899  -31.4683  -40.7840 N.am      9 UNK        -0.4200 
     55 CA         20.2360  -31.9160  -42.1853 C.3       9 UNK         0.0839 
     56 C          21.6112  -31.8090  -42.8943 C.2       9 UNK         0.5513 
     57 N          22.6012  -32.5920  -42.4848 N.am      9 UNK        -0.7519 
     58 O          21.7813  -31.0060  -43.8042 O.2       9 UNK        -0.4960 
     59 C59        19.6657  -33.3535  -42.3280 C.3       10 UNK        -0.0876 
     60 S60        17.9993  -33.5566  -41.6187 S.3       10 UNK        -0.2414 
     61 C61        16.9749  -33.6574  -43.1220 C.3       10 UNK         0.0169 
     62 H62        17.2049  -24.0145  -42.5885 H         1 UNK         0.0903 
     63 H63        17.7870  -22.6881  -41.6005 H         1 UNK         0.0903 
     64 H64        18.9141  -23.5450  -42.6435 H         1 UNK         0.0903 
     65 H65        18.6166  -26.5492  -40.2621 H         1 UNK         0.3096 
     66 H66        17.4213  -26.2399  -42.8888 H         1 UNK         0.1121 
     67 H67        18.6356  -28.5895  -41.3861 H         1 UNK         0.0849 
     68 H68        18.1160  -28.7303  -43.0313 H         1 UNK         0.0849 
     69 H69        14.3218  -29.1810  -42.7220 H         1 UNK         0.0865 
     70 H70        15.2378  -28.0035  -43.6301 H         1 UNK         0.0865 
     71 H71        15.7076  -31.4588  -42.1790 H         1 UNK         0.1346 
     72 H72        17.9552  -32.8509  -45.5573 H         1 UNK         0.1412 
     73 H73        16.4526  -28.8357  -45.4864 H         1 UNK         0.1426 
     74 H74        17.0184  -30.3360  -47.7391 H         1 UNK         0.0716 
     75 H75        18.3390  -31.4400  -47.4541 H         1 UNK         0.0716 
     76 H76        20.8159  -30.4946  -47.7971 H         1 UNK         0.0695 
     77 H77        20.5170  -30.7318  -46.0907 H         1 UNK         0.0695 
     78 H78        21.6396  -28.1275  -47.2484 H         1 UNK         0.0983 
     79 H79        21.1492  -28.9851  -44.4925 H         1 UNK         0.3095 
     80 H80        22.6306  -27.5327  -42.7483 H         1 UNK         0.0454 
     81 H81        22.3468  -25.1483  -41.9716 H         1 UNK         0.0851 
     82 H82        23.5313  -25.2952  -43.2604 H         1 UNK         0.0851 
     83 H83        21.9272  -24.6751  -43.6135 H         1 UNK         0.0851 
     84 H84        20.5971  -27.6947  -41.9891 H         1 UNK         0.2976 
     85 H85        23.0215  -30.4543  -44.9286 H         1 UNK         0.3116 
     86 H86        25.6242  -30.3766  -46.3315 H         1 UNK         0.0646 
     87 H87        24.1322  -32.9904  -45.7248 H         1 UNK         0.0847 
     88 H88        25.7738  -32.8639  -46.3461 H         1 UNK         0.0847 
     89 H89        24.4252  -32.3363  -47.3356 H         1 UNK         0.0847 
     90 H90        24.7317  -29.0996  -43.9513 H         1 UNK         0.3040 
     91 H91        26.7447  -29.8102  -42.1113 H         1 UNK         0.1015 
     92 H92        25.3339  -30.4784  -40.1605 H         1 UNK         0.0786 
     93 H93        25.0853  -31.6287  -41.4450 H         1 UNK         0.0786 
     94 H94        23.8750  -30.3843  -41.1420 H         1 UNK         0.0786 
     95 H95        25.3765  -28.5549  -39.8611 H         1 UNK         0.3172 
     96 H96        24.3971  -25.9480  -40.8441 H         1 UNK         0.0595 
     97 H97        26.4052  -26.3332  -38.5441 H         1 UNK         0.0839 
     98 H98        25.6094  -24.8242  -38.9723 H         1 UNK         0.0839 
     99 H99        26.7595  -25.5513  -40.0839 H         1 UNK         0.0839 
    100 H100       22.5774  -25.4094  -39.7544 H         1 UNK         0.2998 
    101 H101       20.7214  -25.4867  -38.6070 H         1 UNK         0.0822 
    102 H102       22.0967  -25.1598  -36.5730 H         1 UNK         0.0787 
    103 H103       20.6848  -26.1439  -36.2234 H         1 UNK         0.0787 
    104 H104       22.2611  -26.9027  -36.3692 H         1 UNK         0.0787 
    105 H105       22.2735  -28.6611  -38.2667 H         1 UNK         0.3055 
    106 H106       19.7858  -30.2054  -38.4435 H         1 UNK         0.1106 
    107 H107       21.7862  -30.9655  -37.0929 H         1 UNK         0.0828 
    108 H108       21.3713  -32.1382  -38.3257 H         1 UNK         0.0828 
    109 H109       22.7413  -31.0628  -38.5703 H         1 UNK         0.0828 
    110 H110       19.9812  -32.1446  -40.1022 H         1 UNK         0.2931 
    111 H111       19.5543  -31.2367  -42.7018 H         1 UNK         0.0412 
    112 H112       23.5000  -32.5246  -42.9329 H         1 UNK         0.3472 
    113 H113       22.4708  -33.2363  -41.7219 H         1 UNK         0.3472 
    114 H114       19.6441  -33.6471  -43.3793 H         1 UNK         0.0970 
    115 H115       20.3178  -34.0760  -41.8344 H         1 UNK         0.0970 
    116 H116       15.9829  -34.0167  -42.8447 H         1 UNK         0.0612 
    117 H117       17.3900  -34.4022  -43.8028 H         1 UNK         0.0612 
@<TRIPOS>BOND
     1    1    2 1    
     2    1   62 1    
     3    1   63 1    
     4    1   64 1    
     5    2    3 2    
     6    2    4 am   BACKBONE|DICT|INTERRES
     7    4    5 1    
     8    4   65 1    
     9    5    6 1    
    10    5   25 1    
    11    5   66 1    
    12    6    7 1    
    13    6   67 1    
    14    6   68 1    
    15    7    8 1    
    16    8    9 1    
    17    8   69 1    
    18    8   70 1    
    19    9   10 ar   
    20    9   14 ar   
    21   10   11 ar   
    22   10   71 1    
    23   11   12 ar   
    24   11   61 1    
    25   12   13 ar   
    26   12   72 1    
    27   13   14 ar   
    28   13   15 1    
    29   14   73 1    
    30   15   16 1    
    31   15   74 1    
    32   15   75 1    
    33   16   17 1    
    34   17   18 1    
    35   17   76 1    
    36   17   77 1    
    37   18   19 1    
    38   18   27 1    
    39   18   78 1    
    40   19   20 am   BACKBONE|DICT|INTERRES
    41   19   79 1    
    42   20   21 2    
    43   20   22 1    
    44   22   23 1    
    45   22   24 1    
    46   22   80 1    
    47   23   81 1    
    48   23   82 1    
    49   23   83 1    
    50   24   25 am   BACKBONE|DICT|INTERRES
    51   24   84 1    
    52   25   26 2    
    53   27   28 2    
    54   27   29 am   BACKBONE|DICT|INTERRES
    55   29   30 1    
    56   29   85 1    
    57   30   31 1    
    58   30   32 1    
    59   30   86 1    
    60   31   87 1    
    61   31   88 1    
    62   31   89 1    
    63   32   33 2    
    64   32   34 am   BACKBONE|DICT|INTERRES
    65   34   35 1    
    66   34   90 1    
    67   35   36 1    
    68   35   37 1    
    69   35   91 1    
    70   36   92 1    
    71   36   93 1    
    72   36   94 1    
    73   37   38 2    
    74   37   39 am   BACKBONE|DICT|INTERRES
    75   39   40 1    
    76   39   95 1    
    77   40   41 1    
    78   40   42 1    
    79   40   96 1    
    80   41   97 1    
    81   41   98 1    
    82   41   99 1    
    83   42   43 2    
    84   42   44 am   BACKBONE|DICT|INTERRES
    85   44   45 1    
    86   44  100 1    
    87   45   46 1    
    88   45   47 1    
    89   45  101 1    
    90   46  102 1    
    91   46  103 1    
    92   46  104 1    
    93   47   48 2    
    94   47   49 am   BACKBONE|DICT|INTERRES
    95   49   50 1    
    96   49  105 1    
    97   50   51 1    
    98   50   52 1    
    99   50  106 1    
   100   51  107 1    
   101   51  108 1    
   102   51  109 1    
   103   52   53 2    
   104   52   54 am   BACKBONE|DICT|INTERRES
   105   54   55 1    
   106   54  110 1    
   107   55   56 1    
   108   55   59 1    
   109   55  111 1    
   110   56   57 am   BACKBONE|DICT|INTERRES
   111   56   58 2    
   112   57  112 1    
   113   57  113 1    
   114   59   60 1    
   115   59  114 1    
   116   59  115 1    
   117   60   61 1    
   118   61  116 1    
   119   61  117 1    
@<TRIPOS>SUBSTRUCTURE
     1 UNK         1 GROUP             0       ****    0 ROOT    
