@<TRIPOS>MOLECULE
3R8
117   119    1
SMALL
USER_CHARGES


@<TRIPOS>ATOM
      1 CA         15.7828  -29.8572  -41.2487 C.3       0 UNK        -0.2013 
      2 C          15.3622  -28.4622  -41.6877 C.2       0 UNK         0.4866 
      3 O          14.1967  -28.0944  -41.5380 O.2       0 UNK        -0.5176 
      4 N          16.3040  -27.6861  -42.2286 N.am      1 UNK        -0.4884 
      5 CA         16.1220  -26.3194  -42.7150 C.3       1 UNK         0.0853 
      6 C6         15.3952  -26.2646  -44.0944 C.3       10 UNK        -0.0849 
      7 S7         16.3776  -26.6412  -45.5937 S.3       10 UNK        -0.2776 
      8 C8         16.4507  -28.4706  -45.6197 C.3       10 UNK         0.0316 
      9 C9         17.5878  -29.0982  -44.8071 C.ar      10 UNK        -0.0863 
     10 C10        17.5370  -30.4681  -44.5211 C.ar      10 UNK        -0.1009 
     11 C11        18.5453  -31.0831  -43.7701 C.ar      10 UNK        -0.0712 
     12 C12        19.6030  -30.3080  -43.2858 C.ar      10 UNK        -0.0894 
     13 C13        19.6742  -28.9448  -43.5655 C.ar      10 UNK        -0.0745 
     14 C14        18.6802  -28.3527  -44.3441 C.ar      10 UNK        -0.0972 
     15 C15        20.8115  -28.1125  -42.9983 C.3       10 UNK         0.0209 
     16 S16        22.2748  -28.1325  -44.0715 S.3       10 UNK        -0.2568 
     17 C17        21.8430  -26.8766  -45.3323 C.3       10 UNK        -0.0983 
     18 CA         22.1265  -25.3870  -44.9551 C.3       3 UNK         0.0876 
     19 N          21.0886  -24.7878  -44.1163 N.am      3 UNK        -0.4424 
     20 C          19.8498  -24.4776  -44.5087 C.2       2 UNK         0.4918 
     21 O          19.4161  -24.6907  -45.6420 O.2       2 UNK        -0.4875 
     22 CA         18.9436  -23.7865  -43.4757 C.3       2 UNK         0.0481 
     23 CB         18.6822  -22.3251  -43.8750 C.3       2 UNK        -0.1831 
     24 N          17.6660  -24.4953  -43.3690 N.am      2 UNK        -0.4498 
     25 C          17.4762  -25.5818  -42.6092 C.2       1 UNK         0.5027 
     26 O          18.3341  -26.0127  -41.8334 O.2       1 UNK        -0.4969 
     27 C          23.4868  -25.1720  -44.2633 C.2       3 UNK         0.5005 
     28 O          23.5282  -24.6804  -43.1302 O.2       3 UNK        -0.5279 
     29 N          24.5642  -25.5815  -44.9438 N.am      4 UNK        -0.4463 
     30 CA         25.9295  -25.6294  -44.4116 C.3       4 UNK         0.0283 
     31 CB         26.8105  -24.6554  -45.2160 C.3       4 UNK        -0.1875 
     32 C          26.5079  -27.0594  -44.4345 C.2       4 UNK         0.4949 
     33 O          27.7075  -27.2187  -44.2066 O.2       4 UNK        -0.5039 
     34 N          25.6759  -28.0709  -44.7303 N.am      5 UNK        -0.4663 
     35 CA         26.0849  -29.4733  -44.8449 C.3       5 UNK         0.0242 
     36 CB         25.0705  -30.2481  -45.7058 C.3       5 UNK        -0.1982 
     37 C          26.2774  -30.1284  -43.4689 C.2       5 UNK         0.5017 
     38 O          27.3916  -30.5415  -43.1450 O.2       5 UNK        -0.5012 
     39 N          25.1955  -30.2006  -42.6853 N.am      6 UNK        -0.4439 
     40 CA         25.1568  -30.7596  -41.3369 C.3       6 UNK         0.0297 
     41 CB         25.2559  -32.2971  -41.3735 C.3       6 UNK        -0.2006 
     42 C          23.8451  -30.3227  -40.6845 C.2       6 UNK         0.4892 
     43 O          22.8035  -30.3764  -41.3429 O.2       6 UNK        -0.5089 
     44 N          23.9163  -29.9176  -39.4091 N.am      7 UNK        -0.4243 
     45 CA         22.7881  -29.4477  -38.6000 C.3       7 UNK         0.0196 
     46 CB         23.2935  -29.0444  -37.2045 C.3       7 UNK        -0.2007 
     47 C          21.6789  -30.5068  -38.5026 C.2       7 UNK         0.5020 
     48 O          21.8955  -31.5603  -37.9001 O.2       7 UNK        -0.5147 
     49 N          20.5434  -30.2270  -39.1587 N.am      8 UNK        -0.4734 
     50 CA         19.3757  -31.1046  -39.3238 C.3       8 UNK         0.0238 
     51 CB         18.6113  -31.2362  -37.9896 C.3       8 UNK        -0.1912 
     52 C          19.7065  -32.4753  -39.9546 C.2       8 UNK         0.5038 
     53 O          19.0072  -33.4519  -39.6802 O.2       8 UNK        -0.5046 
     54 N          20.7631  -32.5220  -40.7811 N.am      9 UNK        -0.4200 
     55 CA         21.3325  -33.7311  -41.3987 C.3       9 UNK         0.0839 
     56 C          21.9902  -34.7116  -40.3779 C.2       9 UNK         0.5513 
     57 N          22.3038  -34.2919  -39.1565 N.am      9 UNK        -0.7519 
     58 O          22.2576  -35.8650  -40.7050 O.2       9 UNK        -0.4960 
     59 C59        20.3611  -34.4337  -42.3971 C.3       10 UNK        -0.0876 
     60 S60        20.0324  -33.4302  -43.8873 S.3       10 UNK        -0.2414 
     61 C61        18.4792  -32.5741  -43.4587 C.3       10 UNK         0.0169 
     62 H62        16.8127  -30.0757  -41.5284 H         1 UNK         0.0903 
     63 H63        15.6934  -29.9557  -40.1672 H         1 UNK         0.0903 
     64 H64        15.1432  -30.6059  -41.7152 H         1 UNK         0.0903 
     65 H65        17.2597  -28.0141  -42.2947 H         1 UNK         0.3096 
     66 H66        15.4786  -25.8116  -41.9926 H         1 UNK         0.1121 
     67 H67        14.5203  -26.9162  -44.0826 H         1 UNK         0.0849 
     68 H68        14.9854  -25.2632  -44.2343 H         1 UNK         0.0849 
     69 H69        15.4923  -28.8677  -45.2819 H         1 UNK         0.0865 
     70 H70        16.5655  -28.7881  -46.6568 H         1 UNK         0.0865 
     71 H71        16.7060  -31.0579  -44.8838 H         1 UNK         0.1346 
     72 H72        20.3883  -30.7658  -42.7036 H         1 UNK         0.1412 
     73 H73        18.7596  -27.2995  -44.5663 H         1 UNK         0.1426 
     74 H74        21.0914  -28.4973  -42.0177 H         1 UNK         0.0716 
     75 H75        20.4920  -27.0860  -42.8292 H         1 UNK         0.0716 
     76 H76        22.4207  -27.1279  -46.2228 H         1 UNK         0.0695 
     77 H77        20.8065  -27.0112  -45.6385 H         1 UNK         0.0695 
     78 H78        22.1573  -24.8038  -45.8783 H         1 UNK         0.0983 
     79 H79        21.4150  -24.5456  -43.1880 H         1 UNK         0.3095 
     80 H80        19.4415  -23.7837  -42.5034 H         1 UNK         0.0454 
     81 H81        19.6173  -21.7684  -43.9494 H         1 UNK         0.0851 
     82 H82        18.1822  -22.2516  -44.8417 H         1 UNK         0.0851 
     83 H83        18.0615  -21.8171  -43.1369 H         1 UNK         0.0851 
     84 H84        16.9539  -24.2404  -44.0385 H         1 UNK         0.2976 
     85 H85        24.4405  -25.9524  -45.8764 H         1 UNK         0.3116 
     86 H86        25.9433  -25.3135  -43.3665 H         1 UNK         0.0646 
     87 H87        27.8249  -24.6185  -44.8165 H         1 UNK         0.0847 
     88 H88        26.4148  -23.6404  -45.1775 H         1 UNK         0.0847 
     89 H89        26.8829  -24.9480  -46.2641 H         1 UNK         0.0847 
     90 H90        24.6898  -27.8746  -44.8312 H         1 UNK         0.3040 
     91 H91        27.0475  -29.5102  -45.3609 H         1 UNK         0.1015 
     92 H92        25.0064  -29.8306  -46.7107 H         1 UNK         0.0786 
     93 H93        24.0680  -30.2384  -45.2775 H         1 UNK         0.0786 
     94 H94        25.3679  -31.2925  -45.8096 H         1 UNK         0.0786 
     95 H95        24.3102  -29.8292  -43.0102 H         1 UNK         0.3172 
     96 H96        25.9932  -30.3543  -40.7636 H         1 UNK         0.0595 
     97 H97        26.2285  -32.6272  -41.7380 H         1 UNK         0.0839 
     98 H98        24.4936  -32.7323  -42.0198 H         1 UNK         0.0839 
     99 H99        25.1236  -32.7240  -40.3782 H         1 UNK         0.0839 
    100 H100       24.8132  -29.9452  -38.9460 H         1 UNK         0.2998 
    101 H101       22.3855  -28.5551  -39.0838 H         1 UNK         0.0822 
    102 H102       24.0282  -28.2412  -37.2639 H         1 UNK         0.0787 
    103 H103       22.4726  -28.6859  -36.5818 H         1 UNK         0.0787 
    104 H104       23.7546  -29.8842  -36.6828 H         1 UNK         0.0787 
    105 H105       20.4930  -29.3455  -39.6507 H         1 UNK         0.3055 
    106 H106       18.7158  -30.6063  -40.0350 H         1 UNK         0.1106 
    107 H107       19.1921  -31.7814  -37.2449 H         1 UNK         0.0828 
    108 H108       18.3660  -30.2589  -37.5742 H         1 UNK         0.0828 
    109 H109       17.6711  -31.7722  -38.1254 H         1 UNK         0.0828 
    110 H110       21.3088  -31.6769  -40.9163 H         1 UNK         0.2931 
    111 H111       22.1757  -33.3676  -41.9862 H         1 UNK         0.0412 
    112 H112       22.7386  -34.9356  -38.5148 H         1 UNK         0.3472 
    113 H113       22.0963  -33.3461  -38.8542 H         1 UNK         0.3472 
    114 H114       19.4257  -34.7205  -41.9156 H         1 UNK         0.0970 
    115 H115       20.7973  -35.3666  -42.7577 H         1 UNK         0.0970 
    116 H116       17.6650  -33.0489  -44.0079 H         1 UNK         0.0612 
    117 H117       18.2466  -32.6990  -42.4022 H         1 UNK         0.0612 
@<TRIPOS>BOND
     1    1    2 1    
     2    1   62 1    
     3    1   63 1    
     4    1   64 1    
     5    2    3 2    
     6    2    4 am   BACKBONE|DICT|INTERRES
     7    4    5 1    
     8    4   65 1    
     9    5    6 1    
    10    5   25 1    
    11    5   66 1    
    12    6    7 1    
    13    6   67 1    
    14    6   68 1    
    15    7    8 1    
    16    8    9 1    
    17    8   69 1    
    18    8   70 1    
    19    9   10 ar   
    20    9   14 ar   
    21   10   11 ar   
    22   10   71 1    
    23   11   12 ar   
    24   11   61 1    
    25   12   13 ar   
    26   12   72 1    
    27   13   14 ar   
    28   13   15 1    
    29   14   73 1    
    30   15   16 1    
    31   15   74 1    
    32   15   75 1    
    33   16   17 1    
    34   17   18 1    
    35   17   76 1    
    36   17   77 1    
    37   18   19 1    
    38   18   27 1    
    39   18   78 1    
    40   19   20 am   BACKBONE|DICT|INTERRES
    41   19   79 1    
    42   20   21 2    
    43   20   22 1    
    44   22   23 1    
    45   22   24 1    
    46   22   80 1    
    47   23   81 1    
    48   23   82 1    
    49   23   83 1    
    50   24   25 am   BACKBONE|DICT|INTERRES
    51   24   84 1    
    52   25   26 2    
    53   27   28 2    
    54   27   29 am   BACKBONE|DICT|INTERRES
    55   29   30 1    
    56   29   85 1    
    57   30   31 1    
    58   30   32 1    
    59   30   86 1    
    60   31   87 1    
    61   31   88 1    
    62   31   89 1    
    63   32   33 2    
    64   32   34 am   BACKBONE|DICT|INTERRES
    65   34   35 1    
    66   34   90 1    
    67   35   36 1    
    68   35   37 1    
    69   35   91 1    
    70   36   92 1    
    71   36   93 1    
    72   36   94 1    
    73   37   38 2    
    74   37   39 am   BACKBONE|DICT|INTERRES
    75   39   40 1    
    76   39   95 1    
    77   40   41 1    
    78   40   42 1    
    79   40   96 1    
    80   41   97 1    
    81   41   98 1    
    82   41   99 1    
    83   42   43 2    
    84   42   44 am   BACKBONE|DICT|INTERRES
    85   44   45 1    
    86   44  100 1    
    87   45   46 1    
    88   45   47 1    
    89   45  101 1    
    90   46  102 1    
    91   46  103 1    
    92   46  104 1    
    93   47   48 2    
    94   47   49 am   BACKBONE|DICT|INTERRES
    95   49   50 1    
    96   49  105 1    
    97   50   51 1    
    98   50   52 1    
    99   50  106 1    
   100   51  107 1    
   101   51  108 1    
   102   51  109 1    
   103   52   53 2    
   104   52   54 am   BACKBONE|DICT|INTERRES
   105   54   55 1    
   106   54  110 1    
   107   55   56 1    
   108   55   59 1    
   109   55  111 1    
   110   56   57 am   BACKBONE|DICT|INTERRES
   111   56   58 2    
   112   57  112 1    
   113   57  113 1    
   114   59   60 1    
   115   59  114 1    
   116   59  115 1    
   117   60   61 1    
   118   61  116 1    
   119   61  117 1    
@<TRIPOS>SUBSTRUCTURE
     1 UNK         1 GROUP             0       ****    0 ROOT    
