@<TRIPOS>MOLECULE
3R8
117   119    1
SMALL
USER_CHARGES


@<TRIPOS>ATOM
      1 CA         15.9041  -25.6190  -46.8674 C.3       0 UNK        -0.2013 
      2 C          14.7100  -25.7708  -45.9277 C.2       0 UNK         0.4866 
      3 O          13.6346  -25.2593  -46.2347 O.2       0 UNK        -0.5176 
      4 N          14.8326  -26.4636  -44.7873 N.am      1 UNK        -0.4884 
      5 CA         16.0509  -27.0864  -44.2525 C.3       1 UNK         0.0853 
      6 C6         15.7832  -28.5105  -43.6857 C.3       10 UNK        -0.0849 
      7 S7         15.0532  -29.6146  -44.9516 S.3       10 UNK        -0.2776 
      8 C8         16.2069  -31.0361  -45.0041 C.3       10 UNK         0.0316 
      9 C9         17.6403  -30.7315  -45.4474 C.ar      10 UNK        -0.0863 
     10 C10        18.6451  -31.6535  -45.1324 C.ar      10 UNK        -0.1009 
     11 C11        19.9794  -31.4029  -45.4680 C.ar      10 UNK        -0.0712 
     12 C12        20.3084  -30.2206  -46.1336 C.ar      10 UNK        -0.0894 
     13 C13        19.3204  -29.2863  -46.4501 C.ar      10 UNK        -0.0745 
     14 C14        17.9865  -29.5658  -46.1435 C.ar      10 UNK        -0.0972 
     15 C15        19.7038  -27.9537  -47.0773 C.3       10 UNK         0.0209 
     16 S16        19.7710  -26.6176  -45.8345 S.3       10 UNK        -0.2568 
     17 C17        21.1285  -27.1745  -44.7430 C.3       10 UNK        -0.0983 
     18 CA         21.2096  -26.3866  -43.4095 C.3       3 UNK         0.0876 
     19 N          19.9556  -26.4661  -42.6634 N.am      3 UNK        -0.4424 
     20 C          19.4716  -25.5505  -41.8165 C.2       2 UNK         0.4918 
     21 O          20.0599  -24.5051  -41.5340 O.2       2 UNK        -0.4875 
     22 CA         18.1052  -25.8855  -41.1811 C.3       2 UNK         0.0481 
     23 CB         17.4111  -24.6612  -40.5468 C.3       2 UNK        -0.1831 
     24 N          17.2243  -26.5940  -42.1243 N.am      2 UNK        -0.4498 
     25 C          16.7347  -26.1045  -43.2754 C.2       1 UNK         0.5027 
     26 O          16.8435  -24.9214  -43.6055 O.2       1 UNK        -0.4969 
     27 C          22.3496  -26.8918  -42.5023 C.2       3 UNK         0.5005 
     28 O          22.9335  -27.9439  -42.7672 O.2       3 UNK        -0.5279 
     29 N          22.6213  -26.1432  -41.4232 N.am      4 UNK        -0.4463 
     30 CA         23.5154  -26.4942  -40.3100 C.3       4 UNK         0.0283 
     31 CB         23.4306  -25.3895  -39.2437 C.3       4 UNK        -0.1875 
     32 C          24.9861  -26.7803  -40.6769 C.2       4 UNK         0.4949 
     33 O          25.7224  -27.2965  -39.8357 O.2       4 UNK        -0.5039 
     34 N          25.3924  -26.4585  -41.9122 N.am      5 UNK        -0.4663 
     35 CA         26.6749  -26.8509  -42.4992 C.3       5 UNK         0.0242 
     36 CB         26.8826  -26.0800  -43.8129 C.3       5 UNK        -0.1982 
     37 C          26.7934  -28.3695  -42.7399 C.2       5 UNK         0.5017 
     38 O          27.9147  -28.8794  -42.7567 O.2       5 UNK        -0.5012 
     39 N          25.6574  -29.0606  -42.9138 N.am      6 UNK        -0.4439 
     40 CA         25.5723  -30.5167  -43.0042 C.3       6 UNK         0.0297 
     41 CB         24.6094  -30.9006  -44.1395 C.3       6 UNK        -0.2006 
     42 C          25.1156  -31.0853  -41.6516 C.2       6 UNK         0.4892 
     43 O          24.2937  -30.4691  -40.9676 O.2       6 UNK        -0.5089 
     44 N          25.6720  -32.2487  -41.2880 N.am      7 UNK        -0.4243 
     45 CA         25.4781  -32.9188  -39.9997 C.3       7 UNK         0.0196 
     46 CB         26.3632  -34.1755  -39.9411 C.3       7 UNK        -0.2007 
     47 C          24.0062  -33.2706  -39.7259 C.2       7 UNK         0.5020 
     48 O          23.4242  -34.0644  -40.4662 O.2       7 UNK        -0.5147 
     49 N          23.4487  -32.6640  -38.6677 N.am      8 UNK        -0.4734 
     50 CA         22.0699  -32.7981  -38.1712 C.3       8 UNK         0.0238 
     51 CB         21.7871  -34.2466  -37.7163 C.3       8 UNK        -0.1912 
     52 C          20.9779  -32.2656  -39.1245 C.2       8 UNK         0.5038 
     53 O          19.7971  -32.5148  -38.8746 O.2       8 UNK        -0.5046 
     54 N          21.3693  -31.5308  -40.1729 N.am      9 UNK        -0.4200 
     55 CA         20.4619  -30.9383  -41.1680 C.3       9 UNK         0.0839 
     56 C          19.9209  -29.5350  -40.7807 C.2       9 UNK         0.5513 
     57 N          20.3695  -28.9209  -39.6921 N.am      9 UNK        -0.7519 
     58 O          19.0617  -29.0016  -41.4790 O.2       9 UNK        -0.4960 
     59 C59        21.1145  -30.9275  -42.5701 C.3       10 UNK        -0.0876 
     60 S60        21.2142  -32.6192  -43.2593 S.3       10 UNK        -0.2414 
     61 C61        21.0836  -32.3718  -45.0642 C.3       10 UNK         0.0169 
     62 H62        15.6507  -24.9713  -47.7064 H         1 UNK         0.0903 
     63 H63        16.2013  -26.5857  -47.2730 H         1 UNK         0.0903 
     64 H64        16.7559  -25.1735  -46.3541 H         1 UNK         0.0903 
     65 H65        14.0241  -26.5323  -44.1859 H         1 UNK         0.3096 
     66 H66        16.7829  -27.2060  -45.0482 H         1 UNK         0.1121 
     67 H67        16.7073  -28.9646  -43.3224 H         1 UNK         0.0849 
     68 H68        15.1006  -28.4673  -42.8350 H         1 UNK         0.0849 
     69 H69        16.2224  -31.4939  -44.0135 H         1 UNK         0.0865 
     70 H70        15.7935  -31.7856  -45.6802 H         1 UNK         0.0865 
     71 H71        18.3964  -32.5597  -44.5965 H         1 UNK         0.1346 
     72 H72        21.3421  -30.0051  -46.3679 H         1 UNK         0.1412 
     73 H73        17.2273  -28.8539  -46.4271 H         1 UNK         0.1426 
     74 H74        18.9761  -27.6872  -47.8452 H         1 UNK         0.0716 
     75 H75        20.6688  -28.0263  -47.5814 H         1 UNK         0.0716 
     76 H76        20.9914  -28.2325  -44.5248 H         1 UNK         0.0695 
     77 H77        22.0660  -27.0912  -45.2957 H         1 UNK         0.0695 
     78 H78        21.4169  -25.3417  -43.6512 H         1 UNK         0.0983 
     79 H79        19.4535  -27.3420  -42.7382 H         1 UNK         0.3095 
     80 H80        18.3107  -26.5897  -40.3744 H         1 UNK         0.0454 
     81 H81        17.2578  -23.8569  -41.2664 H         1 UNK         0.0851 
     82 H82        16.4411  -24.9272  -40.1272 H         1 UNK         0.0851 
     83 H83        18.0136  -24.2526  -39.7348 H         1 UNK         0.0851 
     84 H84        17.1141  -27.5817  -41.9345 H         1 UNK         0.2976 
     85 H85        22.0593  -25.3090  -41.2956 H         1 UNK         0.3116 
     86 H86        23.1254  -27.4164  -39.8742 H         1 UNK         0.0646 
     87 H87        24.0445  -25.6329  -38.3753 H         1 UNK         0.0847 
     88 H88        22.4091  -25.2581  -38.8863 H         1 UNK         0.0847 
     89 H89        23.7788  -24.4307  -39.6298 H         1 UNK         0.0847 
     90 H90        24.7167  -26.0373  -42.5323 H         1 UNK         0.3040 
     91 H91        27.4678  -26.5680  -41.8030 H         1 UNK         0.1015 
     92 H92        26.8742  -25.0025  -43.6473 H         1 UNK         0.0786 
     93 H93        26.1095  -26.3151  -44.5457 H         1 UNK         0.0786 
     94 H94        27.8447  -26.3294  -44.2630 H         1 UNK         0.0786 
     95 H95        24.7664  -28.5789  -42.8065 H         1 UNK         0.3172 
     96 H96        26.5508  -30.9398  -43.2410 H         1 UNK         0.0595 
     97 H97        24.3709  -31.9649  -44.1168 H         1 UNK         0.0839 
     98 H98        25.0524  -30.6886  -45.1124 H         1 UNK         0.0839 
     99 H99        23.6720  -30.3493  -44.0852 H         1 UNK         0.0839 
    100 H100       26.3069  -32.6987  -41.9313 H         1 UNK         0.2998 
    101 H101       25.8249  -32.2315  -39.2249 H         1 UNK         0.0822 
    102 H102       26.1058  -34.8876  -40.7266 H         1 UNK         0.0787 
    103 H103       27.4190  -33.9250  -40.0466 H         1 UNK         0.0787 
    104 H104       26.2474  -34.6894  -38.9858 H         1 UNK         0.0787 
    105 H105       24.0217  -32.0072  -38.1540 H         1 UNK         0.3055 
    106 H106       22.0102  -32.1642  -37.2848 H         1 UNK         0.1106 
    107 H107       21.7488  -34.9367  -38.5597 H         1 UNK         0.0828 
    108 H108       22.5505  -34.6028  -37.0248 H         1 UNK         0.0828 
    109 H109       20.8290  -34.3163  -37.1996 H         1 UNK         0.0828 
    110 H110       22.3572  -31.3533  -40.3097 H         1 UNK         0.2931 
    111 H111       19.5702  -31.5649  -41.2353 H         1 UNK         0.0412 
    112 H112       21.0690  -29.3590  -39.1155 H         1 UNK         0.3472 
    113 H113       19.9950  -28.0233  -39.4355 H         1 UNK         0.3472 
    114 H114       20.5482  -30.2881  -43.2455 H         1 UNK         0.0970 
    115 H115       22.1104  -30.4918  -42.5168 H         1 UNK         0.0970 
    116 H116       22.0511  -32.0289  -45.4336 H         1 UNK         0.0612 
    117 H117       20.9010  -33.3369  -45.5381 H         1 UNK         0.0612 
@<TRIPOS>BOND
     1    1    2 1    
     2    1   62 1    
     3    1   63 1    
     4    1   64 1    
     5    2    3 2    
     6    2    4 am   BACKBONE|DICT|INTERRES
     7    4    5 1    
     8    4   65 1    
     9    5    6 1    
    10    5   25 1    
    11    5   66 1    
    12    6    7 1    
    13    6   67 1    
    14    6   68 1    
    15    7    8 1    
    16    8    9 1    
    17    8   69 1    
    18    8   70 1    
    19    9   10 ar   
    20    9   14 ar   
    21   10   11 ar   
    22   10   71 1    
    23   11   12 ar   
    24   11   61 1    
    25   12   13 ar   
    26   12   72 1    
    27   13   14 ar   
    28   13   15 1    
    29   14   73 1    
    30   15   16 1    
    31   15   74 1    
    32   15   75 1    
    33   16   17 1    
    34   17   18 1    
    35   17   76 1    
    36   17   77 1    
    37   18   19 1    
    38   18   27 1    
    39   18   78 1    
    40   19   20 am   BACKBONE|DICT|INTERRES
    41   19   79 1    
    42   20   21 2    
    43   20   22 1    
    44   22   23 1    
    45   22   24 1    
    46   22   80 1    
    47   23   81 1    
    48   23   82 1    
    49   23   83 1    
    50   24   25 am   BACKBONE|DICT|INTERRES
    51   24   84 1    
    52   25   26 2    
    53   27   28 2    
    54   27   29 am   BACKBONE|DICT|INTERRES
    55   29   30 1    
    56   29   85 1    
    57   30   31 1    
    58   30   32 1    
    59   30   86 1    
    60   31   87 1    
    61   31   88 1    
    62   31   89 1    
    63   32   33 2    
    64   32   34 am   BACKBONE|DICT|INTERRES
    65   34   35 1    
    66   34   90 1    
    67   35   36 1    
    68   35   37 1    
    69   35   91 1    
    70   36   92 1    
    71   36   93 1    
    72   36   94 1    
    73   37   38 2    
    74   37   39 am   BACKBONE|DICT|INTERRES
    75   39   40 1    
    76   39   95 1    
    77   40   41 1    
    78   40   42 1    
    79   40   96 1    
    80   41   97 1    
    81   41   98 1    
    82   41   99 1    
    83   42   43 2    
    84   42   44 am   BACKBONE|DICT|INTERRES
    85   44   45 1    
    86   44  100 1    
    87   45   46 1    
    88   45   47 1    
    89   45  101 1    
    90   46  102 1    
    91   46  103 1    
    92   46  104 1    
    93   47   48 2    
    94   47   49 am   BACKBONE|DICT|INTERRES
    95   49   50 1    
    96   49  105 1    
    97   50   51 1    
    98   50   52 1    
    99   50  106 1    
   100   51  107 1    
   101   51  108 1    
   102   51  109 1    
   103   52   53 2    
   104   52   54 am   BACKBONE|DICT|INTERRES
   105   54   55 1    
   106   54  110 1    
   107   55   56 1    
   108   55   59 1    
   109   55  111 1    
   110   56   57 am   BACKBONE|DICT|INTERRES
   111   56   58 2    
   112   57  112 1    
   113   57  113 1    
   114   59   60 1    
   115   59  114 1    
   116   59  115 1    
   117   60   61 1    
   118   61  116 1    
   119   61  117 1    
@<TRIPOS>SUBSTRUCTURE
     1 UNK         1 GROUP             0       ****    0 ROOT    
