@<TRIPOS>MOLECULE
3R8
117   119    1
SMALL
USER_CHARGES


@<TRIPOS>ATOM
      1 CA         19.8605  -21.5950  -45.7876 C.3       0 UNK        -0.2013 
      2 C          20.3205  -22.8066  -44.9912 C.2       0 UNK         0.4866 
      3 O          20.9242  -22.6493  -43.9300 O.2       0 UNK        -0.5176 
      4 N          20.0421  -24.0158  -45.4956 N.am      1 UNK        -0.4884 
      5 CA         20.3769  -25.2942  -44.8550 C.3       1 UNK         0.0853 
      6 C6         20.2922  -26.4859  -45.8464 C.3       10 UNK        -0.0849 
      7 S7         18.7175  -26.5563  -46.7722 S.3       10 UNK        -0.2776 
      8 C8         18.8791  -28.1389  -47.6584 C.3       10 UNK         0.0316 
      9 C9         18.4534  -29.3164  -46.7939 C.ar      10 UNK        -0.0863 
     10 C10        19.3914  -30.2521  -46.3456 C.ar      10 UNK        -0.1009 
     11 C11        18.9862  -31.3400  -45.5653 C.ar      10 UNK        -0.0712 
     12 C12        17.6370  -31.4849  -45.2273 C.ar      10 UNK        -0.0894 
     13 C13        16.6962  -30.5395  -45.6466 C.ar      10 UNK        -0.0745 
     14 C14        17.1074  -29.4718  -46.4492 C.ar      10 UNK        -0.0972 
     15 C15        15.2493  -30.6325  -45.1836 C.3       10 UNK         0.0209 
     16 S16        14.8317  -29.2938  -44.0139 S.3       10 UNK        -0.2568 
     17 C17        15.8859  -29.6871  -42.5730 C.3       10 UNK        -0.0983 
     18 CA         17.3008  -29.0487  -42.6561 C.3       3 UNK         0.0876 
     19 N          17.2985  -27.6009  -42.8876 N.am      3 UNK        -0.4424 
     20 C          16.9941  -26.6345  -42.0124 C.2       2 UNK         0.4918 
     21 O          16.5171  -26.8458  -40.8968 O.2       2 UNK        -0.4875 
     22 CA         17.3196  -25.1862  -42.4476 C.3       2 UNK         0.0481 
     23 CB         17.7740  -24.3217  -41.2535 C.3       2 UNK        -0.1831 
     24 N          18.2979  -25.0755  -43.5452 N.am      2 UNK        -0.4498 
     25 C          19.5490  -25.5668  -43.5829 C.2       1 UNK         0.5027 
     26 O          20.0465  -26.2468  -42.6831 O.2       1 UNK        -0.4969 
     27 C          18.2513  -29.4876  -41.5166 C.2       3 UNK         0.5005 
     28 O          17.9842  -30.4825  -40.8400 O.2       3 UNK        -0.5279 
     29 N          19.3541  -28.7460  -41.3453 N.am      4 UNK        -0.4463 
     30 CA         20.4747  -29.0719  -40.4632 C.3       4 UNK         0.0283 
     31 CB         20.5775  -28.0157  -39.3512 C.3       4 UNK        -0.1875 
     32 C          21.7874  -29.1408  -41.2562 C.2       4 UNK         0.4949 
     33 O          22.6323  -29.9782  -40.9400 O.2       4 UNK        -0.5039 
     34 N          21.9362  -28.2645  -42.2670 N.am      5 UNK        -0.4663 
     35 CA         23.0958  -28.1253  -43.1586 C.3       5 UNK         0.0242 
     36 CB         23.1660  -29.3197  -44.1308 C.3       5 UNK        -0.1982 
     37 C          24.3917  -27.9035  -42.3581 C.2       5 UNK         0.5017 
     38 O          25.3401  -28.6826  -42.4751 O.2       5 UNK        -0.5012 
     39 N          24.3493  -26.8892  -41.4804 N.am      6 UNK        -0.4439 
     40 CA         25.2719  -26.6113  -40.3735 C.3       6 UNK         0.0297 
     41 CB         26.7157  -26.3506  -40.8543 C.3       6 UNK        -0.2006 
     42 C          25.1847  -27.7069  -39.2970 C.2       6 UNK         0.4892 
     43 O          24.6089  -27.4657  -38.2356 O.2       6 UNK        -0.5089 
     44 N          25.7160  -28.8921  -39.6114 N.am      7 UNK        -0.4243 
     45 CA         25.6090  -30.1114  -38.8120 C.3       7 UNK         0.0196 
     46 CB         26.6776  -30.1021  -37.6996 C.3       7 UNK        -0.2007 
     47 C          25.6901  -31.3798  -39.6830 C.2       7 UNK         0.5020 
     48 O          25.8911  -32.4646  -39.1348 O.2       7 UNK        -0.5147 
     49 N          25.5682  -31.2504  -41.0141 N.am      8 UNK        -0.4734 
     50 CA         25.6989  -32.3678  -41.9546 C.3       8 UNK         0.0238 
     51 CB         26.1067  -31.8337  -43.3373 C.3       8 UNK        -0.1912 
     52 C          24.4437  -33.2534  -42.0512 C.2       8 UNK         0.5038 
     53 O          24.5585  -34.3780  -42.5420 O.2       8 UNK        -0.5046 
     54 N          23.2866  -32.7660  -41.5880 N.am      9 UNK        -0.4200 
     55 CA         22.0291  -33.5206  -41.5266 C.3       9 UNK         0.0839 
     56 C          21.1766  -33.1324  -40.2849 C.2       9 UNK         0.5513 
     57 N          19.9063  -33.5112  -40.2432 N.am      9 UNK        -0.7519 
     58 O          21.6665  -32.5395  -39.3260 O.2       9 UNK        -0.4960 
     59 C59        21.2781  -33.5408  -42.8900 C.3       10 UNK        -0.0876 
     60 S60        20.5850  -31.9337  -43.4033 S.3       10 UNK        -0.2414 
     61 C61        20.0008  -32.3570  -45.0707 C.3       10 UNK         0.0169 
     62 H62        19.3452  -21.8807  -46.7044 H         1 UNK         0.0903 
     63 H63        19.1792  -20.9900  -45.1899 H         1 UNK         0.0903 
     64 H64        20.7164  -20.9774  -46.0584 H         1 UNK         0.0903 
     65 H65        19.5474  -24.0935  -46.3744 H         1 UNK         0.3096 
     66 H66        21.4150  -25.2224  -44.5223 H         1 UNK         0.1121 
     67 H67        20.4545  -27.4368  -45.3337 H         1 UNK         0.0849 
     68 H68        21.1013  -26.4040  -46.5739 H         1 UNK         0.0849 
     69 H69        18.2477  -28.1084  -48.5476 H         1 UNK         0.0865 
     70 H70        19.9022  -28.2603  -48.0179 H         1 UNK         0.0865 
     71 H71        20.4356  -30.1368  -46.6024 H         1 UNK         0.1346 
     72 H72        17.3290  -32.3123  -44.6025 H         1 UNK         0.1412 
     73 H73        16.3824  -28.7380  -46.7755 H         1 UNK         0.1426 
     74 H74        15.0460  -31.5980  -44.7177 H         1 UNK         0.0716 
     75 H75        14.5903  -30.5640  -46.0503 H         1 UNK         0.0716 
     76 H76        15.3730  -29.3444  -41.6730 H         1 UNK         0.0695 
     77 H77        15.9559  -30.7730  -42.4880 H         1 UNK         0.0695 
     78 H78        17.7928  -29.4484  -43.5378 H         1 UNK         0.0983 
     79 H79        17.6440  -27.3110  -43.7909 H         1 UNK         0.3095 
     80 H80        16.3869  -24.7673  -42.8275 H         1 UNK         0.0454 
     81 H81        18.6719  -24.7244  -40.7833 H         1 UNK         0.0851 
     82 H82        17.0006  -24.2700  -40.4863 H         1 UNK         0.0851 
     83 H83        17.9884  -23.2987  -41.5625 H         1 UNK         0.0851 
     84 H84        17.9859  -24.5608  -44.3574 H         1 UNK         0.2976 
     85 H85        19.4645  -27.9160  -41.9186 H         1 UNK         0.3116 
     86 H86        20.3240  -30.0497  -40.0009 H         1 UNK         0.0646 
     87 H87        19.6794  -28.0059  -38.7336 H         1 UNK         0.0847 
     88 H88        20.7158  -27.0124  -39.7563 H         1 UNK         0.0847 
     89 H89        21.4232  -28.2232  -38.6936 H         1 UNK         0.0847 
     90 H90        21.2097  -27.5654  -42.4013 H         1 UNK         0.3040 
     91 H91        22.9428  -27.2241  -43.7538 H         1 UNK         0.1015 
     92 H92        23.2541  -30.2668  -43.5989 H         1 UNK         0.0786 
     93 H93        24.0211  -29.2339  -44.8022 H         1 UNK         0.0786 
     94 H94        22.2704  -29.3756  -44.7494 H         1 UNK         0.0786 
     95 H95        23.4950  -26.3495  -41.4571 H         1 UNK         0.3172 
     96 H96        24.9167  -25.6880  -39.9127 H         1 UNK         0.0595 
     97 H97        27.3600  -26.0899  -40.0137 H         1 UNK         0.0839 
     98 H98        26.7502  -25.5179  -41.5566 H         1 UNK         0.0839 
     99 H99        27.1631  -27.2145  -41.3452 H         1 UNK         0.0839 
    100 H100       26.1256  -28.9882  -40.5331 H         1 UNK         0.2998 
    101 H101       24.6209  -30.1336  -38.3468 H         1 UNK         0.0822 
    102 H102       26.5755  -29.2288  -37.0552 H         1 UNK         0.0787 
    103 H103       26.5909  -30.9813  -37.0599 H         1 UNK         0.0787 
    104 H104       27.6858  -30.0962  -38.1151 H         1 UNK         0.0787 
    105 H105       25.3300  -30.3508  -41.4208 H         1 UNK         0.3055 
    106 H106       26.5074  -33.0144  -41.6053 H         1 UNK         0.1106 
    107 H107       27.0349  -31.2646  -43.2844 H         1 UNK         0.0828 
    108 H108       26.2685  -32.6520  -44.0401 H         1 UNK         0.0828 
    109 H109       25.3442  -31.1860  -43.7653 H         1 UNK         0.0828 
    110 H110       23.2456  -31.8277  -41.1964 H         1 UNK         0.2931 
    111 H111       22.3020  -34.5557  -41.3126 H         1 UNK         0.0412 
    112 H112       19.4786  -33.9926  -41.0173 H         1 UNK         0.3472 
    113 H113       19.3509  -33.2646  -39.4393 H         1 UNK         0.3472 
    114 H114       21.9541  -33.8882  -43.6727 H         1 UNK         0.0970 
    115 H115       20.4704  -34.2734  -42.8639 H         1 UNK         0.0970 
    116 H116       20.8540  -32.4116  -45.7485 H         1 UNK         0.0612 
    117 H117       19.5472  -33.3494  -45.0611 H         1 UNK         0.0612 
@<TRIPOS>BOND
     1    1    2 1    
     2    1   62 1    
     3    1   63 1    
     4    1   64 1    
     5    2    3 2    
     6    2    4 am   BACKBONE|DICT|INTERRES
     7    4    5 1    
     8    4   65 1    
     9    5    6 1    
    10    5   25 1    
    11    5   66 1    
    12    6    7 1    
    13    6   67 1    
    14    6   68 1    
    15    7    8 1    
    16    8    9 1    
    17    8   69 1    
    18    8   70 1    
    19    9   10 ar   
    20    9   14 ar   
    21   10   11 ar   
    22   10   71 1    
    23   11   12 ar   
    24   11   61 1    
    25   12   13 ar   
    26   12   72 1    
    27   13   14 ar   
    28   13   15 1    
    29   14   73 1    
    30   15   16 1    
    31   15   74 1    
    32   15   75 1    
    33   16   17 1    
    34   17   18 1    
    35   17   76 1    
    36   17   77 1    
    37   18   19 1    
    38   18   27 1    
    39   18   78 1    
    40   19   20 am   BACKBONE|DICT|INTERRES
    41   19   79 1    
    42   20   21 2    
    43   20   22 1    
    44   22   23 1    
    45   22   24 1    
    46   22   80 1    
    47   23   81 1    
    48   23   82 1    
    49   23   83 1    
    50   24   25 am   BACKBONE|DICT|INTERRES
    51   24   84 1    
    52   25   26 2    
    53   27   28 2    
    54   27   29 am   BACKBONE|DICT|INTERRES
    55   29   30 1    
    56   29   85 1    
    57   30   31 1    
    58   30   32 1    
    59   30   86 1    
    60   31   87 1    
    61   31   88 1    
    62   31   89 1    
    63   32   33 2    
    64   32   34 am   BACKBONE|DICT|INTERRES
    65   34   35 1    
    66   34   90 1    
    67   35   36 1    
    68   35   37 1    
    69   35   91 1    
    70   36   92 1    
    71   36   93 1    
    72   36   94 1    
    73   37   38 2    
    74   37   39 am   BACKBONE|DICT|INTERRES
    75   39   40 1    
    76   39   95 1    
    77   40   41 1    
    78   40   42 1    
    79   40   96 1    
    80   41   97 1    
    81   41   98 1    
    82   41   99 1    
    83   42   43 2    
    84   42   44 am   BACKBONE|DICT|INTERRES
    85   44   45 1    
    86   44  100 1    
    87   45   46 1    
    88   45   47 1    
    89   45  101 1    
    90   46  102 1    
    91   46  103 1    
    92   46  104 1    
    93   47   48 2    
    94   47   49 am   BACKBONE|DICT|INTERRES
    95   49   50 1    
    96   49  105 1    
    97   50   51 1    
    98   50   52 1    
    99   50  106 1    
   100   51  107 1    
   101   51  108 1    
   102   51  109 1    
   103   52   53 2    
   104   52   54 am   BACKBONE|DICT|INTERRES
   105   54   55 1    
   106   54  110 1    
   107   55   56 1    
   108   55   59 1    
   109   55  111 1    
   110   56   57 am   BACKBONE|DICT|INTERRES
   111   56   58 2    
   112   57  112 1    
   113   57  113 1    
   114   59   60 1    
   115   59  114 1    
   116   59  115 1    
   117   60   61 1    
   118   61  116 1    
   119   61  117 1    
@<TRIPOS>SUBSTRUCTURE
     1 UNK         1 GROUP             0       ****    0 ROOT    
