@<TRIPOS>MOLECULE
3R8
117   119    1
SMALL
USER_CHARGES


@<TRIPOS>ATOM
      1 CA         14.8799  -27.6900  -38.2635 C.3       0 UNK        -0.2013 
      2 C          15.2881  -27.0229  -39.5687 C.2       0 UNK         0.4866 
      3 O          14.9954  -25.8439  -39.7717 O.2       0 UNK        -0.5176 
      4 N          15.9516  -27.7729  -40.4577 N.am      1 UNK        -0.4884 
      5 CA         16.4884  -27.2846  -41.7342 C.3       1 UNK         0.0853 
      6 C6         16.7467  -28.4591  -42.7196 C.3       10 UNK        -0.0849 
      7 S7         16.4038  -27.9806  -44.4444 S.3       10 UNK        -0.2776 
      8 C8         16.5110  -29.5883  -45.2938 C.3       10 UNK         0.0316 
      9 C9         17.9462  -30.0796  -45.4346 C.ar      10 UNK        -0.0863 
     10 C10        18.3623  -31.2532  -44.7969 C.ar      10 UNK        -0.1009 
     11 C11        19.6664  -31.7282  -44.9705 C.ar      10 UNK        -0.0712 
     12 C12        20.5561  -31.0204  -45.7828 C.ar      10 UNK        -0.0894 
     13 C13        20.1634  -29.8287  -46.3996 C.ar      10 UNK        -0.0745 
     14 C14        18.8528  -29.3717  -46.2303 C.ar      10 UNK        -0.0972 
     15 C15        21.1517  -29.0154  -47.2305 C.3       10 UNK         0.0209 
     16 S16        22.7480  -28.7295  -46.3882 S.3       10 UNK        -0.2568 
     17 C17        22.2229  -27.9493  -44.8245 C.3       10 UNK        -0.0983 
     18 CA         22.4115  -26.4080  -44.8172 C.3       3 UNK         0.0876 
     19 N          21.5439  -25.7653  -43.8368 N.am      3 UNK        -0.4424 
     20 C          20.2211  -25.6362  -43.9576 C.2       2 UNK         0.4918 
     21 O          19.5882  -25.9349  -44.9735 O.2       2 UNK        -0.4875 
     22 CA         19.4746  -25.0782  -42.7421 C.3       2 UNK         0.0481 
     23 CB         19.1997  -23.5749  -42.9045 C.3       2 UNK        -0.1831 
     24 N          18.2106  -25.8000  -42.6379 N.am      2 UNK        -0.4498 
     25 C          17.7469  -26.4038  -41.5398 C.2       1 UNK         0.5027 
     26 O          18.2806  -26.3059  -40.4314 O.2       1 UNK        -0.4969 
     27 C          23.8628  -26.0344  -44.4839 C.2       3 UNK         0.5005 
     28 O          24.1609  -25.7151  -43.3292 O.2       3 UNK        -0.5279 
     29 N          24.7444  -26.1405  -45.4858 N.am      4 UNK        -0.4463 
     30 CA         26.1990  -26.0492  -45.3266 C.3       4 UNK         0.0283 
     31 CB         26.8312  -25.7069  -46.6860 C.3       4 UNK        -0.1875 
     32 C          26.8194  -27.3403  -44.7539 C.2       4 UNK         0.4949 
     33 O          27.9669  -27.3038  -44.3091 O.2       4 UNK        -0.5039 
     34 N          26.0673  -28.4507  -44.7928 N.am      5 UNK        -0.4663 
     35 CA         26.4349  -29.7543  -44.2404 C.3       5 UNK         0.0242 
     36 CB         25.7669  -30.8558  -45.0914 C.3       5 UNK        -0.1982 
     37 C          26.0875  -29.8212  -42.7387 C.2       5 UNK         0.5017 
     38 O          26.5629  -28.9887  -41.9664 O.2       5 UNK        -0.5012 
     39 N          25.2602  -30.7960  -42.3377 N.am      6 UNK        -0.4439 
     40 CA         24.8541  -31.0569  -40.9510 C.3       6 UNK         0.0297 
     41 CB         24.5501  -32.5589  -40.7981 C.3       6 UNK        -0.2006 
     42 C          23.6852  -30.1753  -40.4584 C.2       6 UNK         0.4892 
     43 O          23.0068  -30.5603  -39.5037 O.2       6 UNK        -0.5089 
     44 N          23.4712  -29.0165  -41.1006 N.am      7 UNK        -0.4243 
     45 CA         22.4414  -28.0097  -40.8228 C.3       7 UNK         0.0196 
     46 CB         22.7511  -27.2610  -39.5072 C.3       7 UNK        -0.2007 
     47 C          21.0225  -28.6022  -40.8811 C.2       7 UNK         0.5020 
     48 O          20.4925  -28.7820  -41.9753 O.2       7 UNK        -0.5147 
     49 N          20.4410  -28.8994  -39.7123 N.am      8 UNK        -0.4734 
     50 CA         19.1300  -29.5348  -39.5782 C.3       8 UNK         0.0238 
     51 CB         18.5733  -29.2541  -38.1727 C.3       8 UNK        -0.1912 
     52 C          19.1415  -31.0447  -39.8715 C.2       8 UNK         0.5038 
     53 O          18.0692  -31.6035  -40.1054 O.2       8 UNK        -0.5046 
     54 N          20.3266  -31.6722  -39.8393 N.am      9 UNK        -0.4200 
     55 CA         20.5603  -33.1081  -40.0750 C.3       9 UNK         0.0839 
     56 C          19.9689  -34.0493  -38.9814 C.2       9 UNK         0.5513 
     57 N          19.6499  -33.5579  -37.7897 N.am      9 UNK        -0.7519 
     58 O          19.8251  -35.2499  -39.1992 O.2       9 UNK        -0.4960 
     59 C59        20.1948  -33.5581  -41.5196 C.3       10 UNK        -0.0876 
     60 S60        21.1025  -32.6229  -42.7959 S.3       10 UNK        -0.2414 
     61 C61        20.1251  -33.0033  -44.2827 C.3       10 UNK         0.0169 
     62 H62        15.1166  -28.7538  -38.2562 H         1 UNK         0.0903 
     63 H63        15.3969  -27.2213  -37.4266 H         1 UNK         0.0903 
     64 H64        13.8071  -27.5821  -38.1056 H         1 UNK         0.0903 
     65 H65        16.1610  -28.7336  -40.2302 H         1 UNK         0.3096 
     66 H66        15.7192  -26.6353  -42.1602 H         1 UNK         0.1121 
     67 H67        17.7655  -28.8467  -42.6444 H         1 UNK         0.0849 
     68 H68        16.0914  -29.3007  -42.4881 H         1 UNK         0.0849 
     69 H69        15.8934  -30.3198  -44.7703 H         1 UNK         0.0865 
     70 H70        16.0777  -29.4857  -46.2897 H         1 UNK         0.0865 
     71 H71        17.6719  -31.8017  -44.1708 H         1 UNK         0.1346 
     72 H72        21.5677  -31.3816  -45.9080 H         1 UNK         0.1412 
     73 H73        18.5366  -28.4529  -46.7060 H         1 UNK         0.1426 
     74 H74        20.7257  -28.0453  -47.4919 H         1 UNK         0.0716 
     75 H75        21.3363  -29.5372  -48.1702 H         1 UNK         0.0716 
     76 H76        22.7604  -28.4230  -44.0010 H         1 UNK         0.0695 
     77 H77        21.1784  -28.2009  -44.6435 H         1 UNK         0.0695 
     78 H78        22.1635  -25.9961  -45.7983 H         1 UNK         0.0983 
     79 H79        22.0294  -25.4383  -43.0107 H         1 UNK         0.3095 
     80 H80        20.0857  -25.2386  -41.8511 H         1 UNK         0.0454 
     81 H81        18.6590  -23.1778  -42.0454 H         1 UNK         0.0851 
     82 H82        18.6091  -23.3662  -43.7975 H         1 UNK         0.0851 
     83 H83        20.1312  -23.0141  -42.9896 H         1 UNK         0.0851 
     84 H84        17.7752  -26.0146  -43.5279 H         1 UNK         0.2976 
     85 H85        24.4079  -26.4140  -46.3994 H         1 UNK         0.3116 
     86 H86        26.4264  -25.2386  -44.6308 H         1 UNK         0.0646 
     87 H87        26.6447  -26.4850  -47.4273 H         1 UNK         0.0847 
     88 H88        27.9129  -25.5967  -46.5962 H         1 UNK         0.0847 
     89 H89        26.4443  -24.7668  -47.0793 H         1 UNK         0.0847 
     90 H90        25.1397  -28.3777  -45.1852 H         1 UNK         0.3040 
     91 H91        27.5169  -29.8830  -44.3179 H         1 UNK         0.1015 
     92 H92        24.6777  -30.8017  -45.0587 H         1 UNK         0.0786 
     93 H93        26.0664  -31.8514  -44.7606 H         1 UNK         0.0786 
     94 H94        26.0645  -30.7723  -46.1371 H         1 UNK         0.0786 
     95 H95        24.8839  -31.4190  -43.0383 H         1 UNK         0.3172 
     96 H96        25.6991  -30.8315  -40.2972 H         1 UNK         0.0595 
     97 H97        23.7053  -32.8645  -41.4143 H         1 UNK         0.0839 
     98 H98        24.3091  -32.8120  -39.7647 H         1 UNK         0.0839 
     99 H99        25.4085  -33.1679  -41.0816 H         1 UNK         0.0839 
    100 H100       24.1001  -28.7959  -41.8590 H         1 UNK         0.2998 
    101 H101       22.4995  -27.2807  -41.6306 H         1 UNK         0.0822 
    102 H102       23.6995  -26.7284  -39.5797 H         1 UNK         0.0787 
    103 H103       21.9832  -26.5172  -39.2888 H         1 UNK         0.0787 
    104 H104       22.8187  -27.9312  -38.6499 H         1 UNK         0.0787 
    105 H105       20.9663  -28.7425  -38.8642 H         1 UNK         0.3055 
    106 H106       18.4593  -29.0824  -40.3076 H         1 UNK         0.1106 
    107 H107       17.5946  -29.7164  -38.0377 H         1 UNK         0.0828 
    108 H108       19.2275  -29.6438  -37.3922 H         1 UNK         0.0828 
    109 H109       18.4488  -28.1836  -38.0062 H         1 UNK         0.0828 
    110 H110       21.1622  -31.1269  -39.6466 H         1 UNK         0.2931 
    111 H111       21.6385  -33.2319  -39.9712 H         1 UNK         0.0412 
    112 H112       19.2783  -34.1742  -37.0838 H         1 UNK         0.3472 
    113 H113       19.7793  -32.5792  -37.5903 H         1 UNK         0.3472 
    114 H114       19.1215  -33.4569  -41.6868 H         1 UNK         0.0970 
    115 H115       20.4277  -34.6143  -41.6654 H         1 UNK         0.0970 
    116 H116       19.2672  -33.6290  -44.0333 H         1 UNK         0.0612 
    117 H117       20.7391  -33.5911  -44.9665 H         1 UNK         0.0612 
@<TRIPOS>BOND
     1    1    2 1    
     2    1   62 1    
     3    1   63 1    
     4    1   64 1    
     5    2    3 2    
     6    2    4 am   BACKBONE|DICT|INTERRES
     7    4    5 1    
     8    4   65 1    
     9    5    6 1    
    10    5   25 1    
    11    5   66 1    
    12    6    7 1    
    13    6   67 1    
    14    6   68 1    
    15    7    8 1    
    16    8    9 1    
    17    8   69 1    
    18    8   70 1    
    19    9   10 ar   
    20    9   14 ar   
    21   10   11 ar   
    22   10   71 1    
    23   11   12 ar   
    24   11   61 1    
    25   12   13 ar   
    26   12   72 1    
    27   13   14 ar   
    28   13   15 1    
    29   14   73 1    
    30   15   16 1    
    31   15   74 1    
    32   15   75 1    
    33   16   17 1    
    34   17   18 1    
    35   17   76 1    
    36   17   77 1    
    37   18   19 1    
    38   18   27 1    
    39   18   78 1    
    40   19   20 am   BACKBONE|DICT|INTERRES
    41   19   79 1    
    42   20   21 2    
    43   20   22 1    
    44   22   23 1    
    45   22   24 1    
    46   22   80 1    
    47   23   81 1    
    48   23   82 1    
    49   23   83 1    
    50   24   25 am   BACKBONE|DICT|INTERRES
    51   24   84 1    
    52   25   26 2    
    53   27   28 2    
    54   27   29 am   BACKBONE|DICT|INTERRES
    55   29   30 1    
    56   29   85 1    
    57   30   31 1    
    58   30   32 1    
    59   30   86 1    
    60   31   87 1    
    61   31   88 1    
    62   31   89 1    
    63   32   33 2    
    64   32   34 am   BACKBONE|DICT|INTERRES
    65   34   35 1    
    66   34   90 1    
    67   35   36 1    
    68   35   37 1    
    69   35   91 1    
    70   36   92 1    
    71   36   93 1    
    72   36   94 1    
    73   37   38 2    
    74   37   39 am   BACKBONE|DICT|INTERRES
    75   39   40 1    
    76   39   95 1    
    77   40   41 1    
    78   40   42 1    
    79   40   96 1    
    80   41   97 1    
    81   41   98 1    
    82   41   99 1    
    83   42   43 2    
    84   42   44 am   BACKBONE|DICT|INTERRES
    85   44   45 1    
    86   44  100 1    
    87   45   46 1    
    88   45   47 1    
    89   45  101 1    
    90   46  102 1    
    91   46  103 1    
    92   46  104 1    
    93   47   48 2    
    94   47   49 am   BACKBONE|DICT|INTERRES
    95   49   50 1    
    96   49  105 1    
    97   50   51 1    
    98   50   52 1    
    99   50  106 1    
   100   51  107 1    
   101   51  108 1    
   102   51  109 1    
   103   52   53 2    
   104   52   54 am   BACKBONE|DICT|INTERRES
   105   54   55 1    
   106   54  110 1    
   107   55   56 1    
   108   55   59 1    
   109   55  111 1    
   110   56   57 am   BACKBONE|DICT|INTERRES
   111   56   58 2    
   112   57  112 1    
   113   57  113 1    
   114   59   60 1    
   115   59  114 1    
   116   59  115 1    
   117   60   61 1    
   118   61  116 1    
   119   61  117 1    
@<TRIPOS>SUBSTRUCTURE
     1 UNK         1 GROUP             0       ****    0 ROOT    
