@<TRIPOS>MOLECULE
3R8
117   119    1
SMALL
USER_CHARGES


@<TRIPOS>ATOM
      1 CA         16.4304  -24.2760  -48.5707 C.3       0 UNK        -0.2013 
      2 C          17.7138  -24.9847  -48.1643 C.2       0 UNK         0.4866 
      3 O          18.7829  -24.6564  -48.6789 O.2       0 UNK        -0.5176 
      4 N          17.6163  -25.9572  -47.2470 N.am      1 UNK        -0.4884 
      5 CA         18.7497  -26.7355  -46.7287 C.3       1 UNK         0.0853 
      6 C6         18.2559  -28.0046  -45.9833 C.3       10 UNK        -0.0849 
      7 S7         19.5225  -29.3142  -45.8586 S.3       10 UNK        -0.2776 
      8 C8         20.2275  -29.0150  -44.2045 C.3       10 UNK         0.0316 
      9 C9         19.4311  -29.6882  -43.0978 C.ar      10 UNK        -0.0863 
     10 C10        19.7863  -30.9693  -42.6690 C.ar      10 UNK        -0.1009 
     11 C11        19.1376  -31.5623  -41.5842 C.ar      10 UNK        -0.0712 
     12 C12        18.1074  -30.8738  -40.9375 C.ar      10 UNK        -0.0894 
     13 C13        17.7383  -29.5922  -41.3597 C.ar      10 UNK        -0.0745 
     14 C14        18.3957  -29.0097  -42.4474 C.ar      10 UNK        -0.0972 
     15 C15        16.6492  -28.8311  -40.6181 C.3       10 UNK         0.0209 
     16 S16        17.3480  -27.7912  -39.2919 S.3       10 UNK        -0.2568 
     17 C17        17.6090  -26.1900  -40.1305 C.3       10 UNK        -0.0983 
     18 CA         19.0427  -25.9990  -40.6943 C.3       3 UNK         0.0876 
     19 N          19.0107  -25.1832  -41.9198 N.am      3 UNK        -0.4424 
     20 C          20.0174  -25.0164  -42.7880 C.2       2 UNK         0.4918 
     21 O          21.1335  -25.5133  -42.6400 O.2       2 UNK        -0.4875 
     22 CA         19.7033  -24.1396  -44.0127 C.3       2 UNK         0.0481 
     23 CB         20.9267  -23.3315  -44.4955 C.3       2 UNK        -0.1831 
     24 N          19.1011  -24.9420  -45.0842 N.am      2 UNK        -0.4498 
     25 C          19.6866  -25.8894  -45.8366 C.2       1 UNK         0.5027 
     26 O          20.8955  -26.1213  -45.8480 O.2       1 UNK        -0.4969 
     27 C          20.0502  -25.5092  -39.6231 C.2       3 UNK         0.5005 
     28 O          20.3508  -26.2486  -38.6859 O.2       3 UNK        -0.5279 
     29 N          20.6103  -24.3027  -39.7991 N.am      4 UNK        -0.4463 
     30 CA         21.7773  -23.8090  -39.0608 C.3       4 UNK         0.0283 
     31 CB         21.9912  -22.3232  -39.3919 C.3       4 UNK        -0.1875 
     32 C          23.0649  -24.6124  -39.3461 C.2       4 UNK         0.4949 
     33 O          23.9688  -24.6077  -38.5106 O.2       4 UNK        -0.5039 
     34 N          23.1241  -25.2911  -40.5004 N.am      5 UNK        -0.4663 
     35 CA         24.2122  -26.1681  -40.9255 C.3       5 UNK         0.0242 
     36 CB         24.9534  -25.5096  -42.1044 C.3       5 UNK        -0.1982 
     37 C          23.6311  -27.5463  -41.2811 C.2       5 UNK         0.5017 
     38 O          23.8460  -28.0456  -42.3877 O.2       5 UNK        -0.5012 
     39 N          22.8916  -28.1422  -40.3342 N.am      6 UNK        -0.4439 
     40 CA         22.1854  -29.4254  -40.4541 C.3       6 UNK         0.0297 
     41 CB         21.1293  -29.5210  -39.3366 C.3       6 UNK        -0.2006 
     42 C          23.0983  -30.6732  -40.5069 C.2       6 UNK         0.4892 
     43 O          22.8403  -31.6575  -39.8126 O.2       6 UNK        -0.5089 
     44 N          24.1481  -30.6223  -41.3331 N.am      7 UNK        -0.4243 
     45 CA         25.0987  -31.7139  -41.5555 C.3       7 UNK         0.0196 
     46 CB         26.4691  -31.1118  -41.9058 C.3       7 UNK        -0.2007 
     47 C          24.6458  -32.6811  -42.6624 C.2       7 UNK         0.5020 
     48 O          25.1128  -33.8201  -42.6912 O.2       7 UNK        -0.5147 
     49 N          23.7595  -32.2221  -43.5600 N.am      8 UNK        -0.4734 
     50 CA         23.3411  -32.9360  -44.7752 C.3       8 UNK         0.0238 
     51 CB         22.5035  -31.9969  -45.6598 C.3       8 UNK        -0.1912 
     52 C          22.5970  -34.2640  -44.5381 C.2       8 UNK         0.5038 
     53 O          22.5539  -35.0894  -45.4516 O.2       8 UNK        -0.5046 
     54 N          22.0419  -34.4561  -43.3344 N.am      9 UNK        -0.4200 
     55 CA         21.4168  -35.7173  -42.9012 C.3       9 UNK         0.0839 
     56 C          22.4389  -36.8322  -42.5290 C.2       9 UNK         0.5513 
     57 N          23.7340  -36.5518  -42.4253 N.am      9 UNK        -0.7519 
     58 O          22.0465  -37.9799  -42.3354 O.2       9 UNK        -0.4960 
     59 C59        20.3844  -35.5094  -41.7602 C.3       10 UNK        -0.0876 
     60 S60        19.1097  -34.2680  -42.1721 S.3       10 UNK        -0.2414 
     61 C61        19.6133  -32.9113  -41.0731 C.3       10 UNK         0.0169 
     62 H62        16.2598  -24.3939  -49.6404 H         1 UNK         0.0903 
     63 H63        15.5612  -24.6694  -48.0439 H         1 UNK         0.0903 
     64 H64        16.5052  -23.2109  -48.3531 H         1 UNK         0.0903 
     65 H65        16.7071  -26.1935  -46.8738 H         1 UNK         0.3096 
     66 H66        19.3376  -27.0556  -47.5927 H         1 UNK         0.1121 
     67 H67        17.8529  -27.7605  -45.0006 H         1 UNK         0.0849 
     68 H68        17.4240  -28.4481  -46.5329 H         1 UNK         0.0849 
     69 H69        21.2538  -29.3850  -44.1952 H         1 UNK         0.0865 
     70 H70        20.3089  -27.9479  -44.0017 H         1 UNK         0.0865 
     71 H71        20.5958  -31.4964  -43.1515 H         1 UNK         0.1346 
     72 H72        17.6140  -31.3214  -40.0856 H         1 UNK         0.1412 
     73 H73        18.1235  -28.0118  -42.7592 H         1 UNK         0.1426 
     74 H74        16.0601  -28.2308  -41.3126 H         1 UNK         0.0716 
     75 H75        15.9497  -29.5378  -40.1692 H         1 UNK         0.0716 
     76 H76        17.3545  -25.3881  -39.4347 H         1 UNK         0.0695 
     77 H77        16.8695  -26.1151  -40.9290 H         1 UNK         0.0695 
     78 H78        19.4240  -26.9742  -40.9998 H         1 UNK         0.0983 
     79 H79        18.1333  -24.7221  -42.1139 H         1 UNK         0.3095 
     80 H80        18.9442  -23.4145  -43.7147 H         1 UNK         0.0454 
     81 H81        21.2674  -22.6473  -43.7178 H         1 UNK         0.0851 
     82 H82        20.6846  -22.7317  -45.3726 H         1 UNK         0.0851 
     83 H83        21.7742  -23.9685  -44.7495 H         1 UNK         0.0851 
     84 H84        18.1025  -24.8332  -45.1937 H         1 UNK         0.2976 
     85 H85        20.2984  -23.7455  -40.5804 H         1 UNK         0.3116 
     86 H86        21.5641  -23.8964  -37.9934 H         1 UNK         0.0646 
     87 H87        21.1169  -21.7267  -39.1309 H         1 UNK         0.0847 
     88 H88        22.8355  -21.9175  -38.8326 H         1 UNK         0.0847 
     89 H89        22.2007  -22.1705  -40.4515 H         1 UNK         0.0847 
     90 H90        22.3282  -25.2644  -41.1334 H         1 UNK         0.3040 
     91 H91        24.9259  -26.3240  -40.1135 H         1 UNK         0.1015 
     92 H92        25.3684  -24.5427  -41.8198 H         1 UNK         0.0786 
     93 H93        24.2904  -25.3520  -42.9566 H         1 UNK         0.0786 
     94 H94        25.7828  -26.1317  -42.4433 H         1 UNK         0.0786 
     95 H95        22.7695  -27.6518  -39.4589 H         1 UNK         0.3172 
     96 H96        21.6523  -29.4040  -41.4036 H         1 UNK         0.0595 
     97 H97        21.5762  -29.4253  -38.3468 H         1 UNK         0.0839 
     98 H98        20.6011  -30.4741  -39.3627 H         1 UNK         0.0839 
     99 H99        20.3702  -28.7480  -39.4433 H         1 UNK         0.0839 
    100 H100       24.2782  -29.7663  -41.8682 H         1 UNK         0.2998 
    101 H101       25.2070  -32.2933  -40.6359 H         1 UNK         0.0822 
    102 H102       26.8371  -30.4722  -41.1033 H         1 UNK         0.0787 
    103 H103       27.2124  -31.8951  -42.0612 H         1 UNK         0.0787 
    104 H104       26.4275  -30.5148  -42.8180 H         1 UNK         0.0787 
    105 H105       23.4347  -31.2723  -43.4563 H         1 UNK         0.3055 
    106 H106       24.2513  -33.1882  -45.3241 H         1 UNK         0.1106 
    107 H107       22.2770  -32.4674  -46.6176 H         1 UNK         0.0828 
    108 H108       21.5505  -31.7419  -45.1986 H         1 UNK         0.0828 
    109 H109       23.0336  -31.0694  -45.8773 H         1 UNK         0.0828 
    110 H110       22.1434  -33.7368  -42.6357 H         1 UNK         0.2931 
    111 H111       20.8587  -36.1070  -43.7550 H         1 UNK         0.0412 
    112 H112       24.0831  -35.6126  -42.5793 H         1 UNK         0.3472 
    113 H113       24.3777  -37.2897  -42.1870 H         1 UNK         0.3472 
    114 H114       20.8880  -35.2362  -40.8310 H         1 UNK         0.0970 
    115 H115       19.8666  -36.4471  -41.5492 H         1 UNK         0.0970 
    116 H116       19.2361  -33.1049  -40.0678 H         1 UNK         0.0612 
    117 H117       20.7005  -32.8853  -40.9933 H         1 UNK         0.0612 
@<TRIPOS>BOND
     1    1    2 1    
     2    1   62 1    
     3    1   63 1    
     4    1   64 1    
     5    2    3 2    
     6    2    4 am   BACKBONE|DICT|INTERRES
     7    4    5 1    
     8    4   65 1    
     9    5    6 1    
    10    5   25 1    
    11    5   66 1    
    12    6    7 1    
    13    6   67 1    
    14    6   68 1    
    15    7    8 1    
    16    8    9 1    
    17    8   69 1    
    18    8   70 1    
    19    9   10 ar   
    20    9   14 ar   
    21   10   11 ar   
    22   10   71 1    
    23   11   12 ar   
    24   11   61 1    
    25   12   13 ar   
    26   12   72 1    
    27   13   14 ar   
    28   13   15 1    
    29   14   73 1    
    30   15   16 1    
    31   15   74 1    
    32   15   75 1    
    33   16   17 1    
    34   17   18 1    
    35   17   76 1    
    36   17   77 1    
    37   18   19 1    
    38   18   27 1    
    39   18   78 1    
    40   19   20 am   BACKBONE|DICT|INTERRES
    41   19   79 1    
    42   20   21 2    
    43   20   22 1    
    44   22   23 1    
    45   22   24 1    
    46   22   80 1    
    47   23   81 1    
    48   23   82 1    
    49   23   83 1    
    50   24   25 am   BACKBONE|DICT|INTERRES
    51   24   84 1    
    52   25   26 2    
    53   27   28 2    
    54   27   29 am   BACKBONE|DICT|INTERRES
    55   29   30 1    
    56   29   85 1    
    57   30   31 1    
    58   30   32 1    
    59   30   86 1    
    60   31   87 1    
    61   31   88 1    
    62   31   89 1    
    63   32   33 2    
    64   32   34 am   BACKBONE|DICT|INTERRES
    65   34   35 1    
    66   34   90 1    
    67   35   36 1    
    68   35   37 1    
    69   35   91 1    
    70   36   92 1    
    71   36   93 1    
    72   36   94 1    
    73   37   38 2    
    74   37   39 am   BACKBONE|DICT|INTERRES
    75   39   40 1    
    76   39   95 1    
    77   40   41 1    
    78   40   42 1    
    79   40   96 1    
    80   41   97 1    
    81   41   98 1    
    82   41   99 1    
    83   42   43 2    
    84   42   44 am   BACKBONE|DICT|INTERRES
    85   44   45 1    
    86   44  100 1    
    87   45   46 1    
    88   45   47 1    
    89   45  101 1    
    90   46  102 1    
    91   46  103 1    
    92   46  104 1    
    93   47   48 2    
    94   47   49 am   BACKBONE|DICT|INTERRES
    95   49   50 1    
    96   49  105 1    
    97   50   51 1    
    98   50   52 1    
    99   50  106 1    
   100   51  107 1    
   101   51  108 1    
   102   51  109 1    
   103   52   53 2    
   104   52   54 am   BACKBONE|DICT|INTERRES
   105   54   55 1    
   106   54  110 1    
   107   55   56 1    
   108   55   59 1    
   109   55  111 1    
   110   56   57 am   BACKBONE|DICT|INTERRES
   111   56   58 2    
   112   57  112 1    
   113   57  113 1    
   114   59   60 1    
   115   59  114 1    
   116   59  115 1    
   117   60   61 1    
   118   61  116 1    
   119   61  117 1    
@<TRIPOS>SUBSTRUCTURE
     1 UNK         1 GROUP             0       ****    0 ROOT    
