@<TRIPOS>MOLECULE
3R8
117   119    1
SMALL
USER_CHARGES


@<TRIPOS>ATOM
      1 CA         16.3062  -24.4616  -48.9686 C.3       0 UNK        -0.2013 
      2 C          16.9878  -25.1834  -47.8161 C.2       0 UNK         0.4866 
      3 O          16.6868  -24.8992  -46.6565 O.2       0 UNK        -0.5176 
      4 N          17.9139  -26.1014  -48.1282 N.am      1 UNK        -0.4884 
      5 CA         18.6930  -26.9703  -47.2265 C.3       1 UNK         0.0853 
      6 C6         17.8327  -27.8594  -46.2852 C.3       10 UNK        -0.0849 
      7 S7         16.5739  -28.8784  -47.1239 S.3       10 UNK        -0.2776 
      8 C8         16.6533  -30.4414  -46.1715 C.3       10 UNK         0.0316 
      9 C9         16.5963  -30.2905  -44.6473 C.ar      10 UNK        -0.0863 
     10 C10        17.2843  -31.2129  -43.8503 C.ar      10 UNK        -0.1009 
     11 C11        17.2735  -31.1039  -42.4564 C.ar      10 UNK        -0.0712 
     12 C12        16.5713  -30.0583  -41.8536 C.ar      10 UNK        -0.0894 
     13 C13        15.8892  -29.1212  -42.6333 C.ar      10 UNK        -0.0745 
     14 C14        15.8796  -29.2590  -44.0250 C.ar      10 UNK        -0.0972 
     15 C15        15.1973  -27.9379  -41.9727 C.3       10 UNK         0.0209 
     16 S16        16.1595  -26.3996  -42.1668 S.3       10 UNK        -0.2568 
     17 C17        17.7017  -26.7708  -41.2560 C.3       10 UNK        -0.0983 
     18 CA         18.8341  -27.2746  -42.1967 C.3       3 UNK         0.0876 
     19 N          19.1301  -26.3540  -43.2961 N.am      3 UNK        -0.4424 
     20 C          19.7656  -25.1752  -43.2520 C.2       2 UNK         0.4918 
     21 O          20.1902  -24.6617  -42.2166 O.2       2 UNK        -0.4875 
     22 CA         19.9223  -24.4179  -44.5903 C.3       2 UNK         0.0481 
     23 CB         21.3870  -24.0144  -44.8577 C.3       2 UNK        -0.1831 
     24 N          19.3130  -25.1225  -45.7316 N.am      2 UNK        -0.4498 
     25 C          19.7397  -26.2212  -46.3730 C.2       1 UNK         0.5027 
     26 O          20.8657  -26.7006  -46.2511 O.2       1 UNK        -0.4969 
     27 C          20.1286  -27.7251  -41.4874 C.2       3 UNK         0.5005 
     28 O          21.0997  -28.0515  -42.1745 O.2       3 UNK        -0.5279 
     29 N          20.1454  -27.7466  -40.1471 N.am      4 UNK        -0.4463 
     30 CA         21.2608  -28.2037  -39.3084 C.3       4 UNK         0.0283 
     31 CB         20.7205  -28.5509  -37.9091 C.3       4 UNK        -0.1875 
     32 C          22.4511  -27.2189  -39.2596 C.2       4 UNK         0.4949 
     33 O          22.9842  -26.9423  -38.1843 O.2       4 UNK        -0.5039 
     34 N          22.8601  -26.7166  -40.4297 N.am      5 UNK        -0.4663 
     35 CA         24.0396  -25.8719  -40.6362 C.3       5 UNK         0.0242 
     36 CB         23.8370  -25.0528  -41.9221 C.3       5 UNK        -0.1982 
     37 C          25.3442  -26.6877  -40.7144 C.2       5 UNK         0.5017 
     38 O          26.4270  -26.1037  -40.6574 O.2       5 UNK        -0.5012 
     39 N          25.2194  -28.0117  -40.8481 N.am      6 UNK        -0.4439 
     40 CA         26.2920  -28.9960  -40.8844 C.3       6 UNK         0.0297 
     41 CB         26.7316  -29.2193  -42.3426 C.3       6 UNK        -0.2006 
     42 C          25.7695  -30.2919  -40.2516 C.2       6 UNK         0.4892 
     43 O          24.5590  -30.4260  -40.0379 O.2       6 UNK        -0.5089 
     44 N          26.6899  -31.2255  -39.9735 N.am      7 UNK        -0.4243 
     45 CA         26.4014  -32.5565  -39.4318 C.3       7 UNK         0.0196 
     46 CB         27.7190  -33.3166  -39.2107 C.3       7 UNK        -0.2007 
     47 C          25.4642  -33.3516  -40.3555 C.2       7 UNK         0.5020 
     48 O          25.7120  -33.4141  -41.5620 O.2       7 UNK        -0.5147 
     49 N          24.3850  -33.8965  -39.7755 N.am      8 UNK        -0.4734 
     50 CA         23.2793  -34.5951  -40.4516 C.3       8 UNK         0.0238 
     51 CB         23.7592  -35.9518  -41.0114 C.3       8 UNK        -0.1912 
     52 C          22.5597  -33.7373  -41.5174 C.2       8 UNK         0.5038 
     53 O          21.9930  -34.2912  -42.4612 O.2       8 UNK        -0.5046 
     54 N          22.6096  -32.4073  -41.3509 N.am      9 UNK        -0.4200 
     55 CA         22.1231  -31.3869  -42.2932 C.3       9 UNK         0.0839 
     56 C          22.9534  -31.2962  -43.6102 C.2       9 UNK         0.5513 
     57 N          24.1652  -31.8392  -43.6725 N.am      9 UNK        -0.7519 
     58 O          22.5056  -30.7091  -44.5914 O.2       9 UNK        -0.4960 
     59 C59        20.5884  -31.4483  -42.5475 C.3       10 UNK        -0.0876 
     60 S60        19.6079  -31.4266  -41.0073 S.3       10 UNK        -0.2414 
     61 C61        18.0259  -32.1059  -41.5938 C.3       10 UNK         0.0169 
     62 H62        16.4832  -23.3889  -48.8965 H         1 UNK         0.0903 
     63 H63        16.6710  -24.8017  -49.9376 H         1 UNK         0.0903 
     64 H64        15.2307  -24.6328  -48.9325 H         1 UNK         0.0903 
     65 H65        18.1150  -26.2492  -49.1082 H         1 UNK         0.3096 
     66 H66        19.2556  -27.6389  -47.8810 H         1 UNK         0.1121 
     67 H67        17.3082  -27.2477  -45.5490 H         1 UNK         0.0849 
     68 H68        18.4852  -28.5251  -45.7158 H         1 UNK         0.0849 
     69 H69        15.8302  -31.0834  -46.4875 H         1 UNK         0.0865 
     70 H70        17.5708  -30.9581  -46.4578 H         1 UNK         0.0865 
     71 H71        17.8363  -32.0183  -44.3156 H         1 UNK         0.1346 
     72 H72        16.5803  -29.9618  -40.7763 H         1 UNK         0.1412 
     73 H73        15.3408  -28.5356  -44.6213 H         1 UNK         0.1426 
     74 H74        14.2124  -27.7977  -42.4204 H         1 UNK         0.0716 
     75 H75        15.0265  -28.1274  -40.9117 H         1 UNK         0.0716 
     76 H76        17.4728  -27.5071  -40.4840 H         1 UNK         0.0695 
     77 H77        18.0127  -25.8620  -40.7377 H         1 UNK         0.0695 
     78 H78        18.4762  -28.1817  -42.6827 H         1 UNK         0.0983 
     79 H79        18.8352  -26.6707  -44.2041 H         1 UNK         0.3095 
     80 H80        19.3472  -23.4974  -44.4816 H         1 UNK         0.0454 
     81 H81        22.0563  -24.8748  -44.8524 H         1 UNK         0.0851 
     82 H82        21.7453  -23.3295  -44.0883 H         1 UNK         0.0851 
     83 H83        21.4931  -23.5081  -45.8169 H         1 UNK         0.0851 
     84 H84        18.3521  -24.8491  -45.9386 H         1 UNK         0.2976 
     85 H85        19.3275  -27.4189  -39.6545 H         1 UNK         0.3116 
     86 H86        21.6470  -29.1288  -39.7419 H         1 UNK         0.0646 
     87 H87        19.9264  -29.2959  -37.9642 H         1 UNK         0.0847 
     88 H88        21.5062  -28.9695  -37.2785 H         1 UNK         0.0847 
     89 H89        20.3256  -27.6717  -37.3988 H         1 UNK         0.0847 
     90 H90        22.3540  -27.0180  -41.2604 H         1 UNK         0.3040 
     91 H91        24.1349  -25.1811  -39.7955 H         1 UNK         0.1015 
     92 H92        23.7180  -25.6954  -42.7955 H         1 UNK         0.0786 
     93 H93        24.6894  -24.3984  -42.1099 H         1 UNK         0.0786 
     94 H94        22.9533  -24.4185  -41.8507 H         1 UNK         0.0786 
     95 H95        24.2925  -28.4165  -40.8057 H         1 UNK         0.3172 
     96 H96        27.1377  -28.6421  -40.2909 H         1 UNK         0.0595 
     97 H97        25.9075  -29.5812  -42.9588 H         1 UNK         0.0839 
     98 H98        27.5351  -29.9537  -42.4083 H         1 UNK         0.0839 
     99 H99        27.1015  -28.2966  -42.7900 H         1 UNK         0.0839 
    100 H100       27.6538  -31.0367  -40.2071 H         1 UNK         0.2998 
    101 H101       25.9159  -32.4178  -38.4634 H         1 UNK         0.0822 
    102 H102       27.5327  -34.3050  -38.7881 H         1 UNK         0.0787 
    103 H103       28.2635  -33.4597  -40.1452 H         1 UNK         0.0787 
    104 H104       28.3730  -32.7872  -38.5174 H         1 UNK         0.0787 
    105 H105       24.2696  -33.7718  -38.7782 H         1 UNK         0.3055 
    106 H106       22.5297  -34.8014  -39.6858 H         1 UNK         0.1106 
    107 H107       22.9212  -36.5404  -41.3869 H         1 UNK         0.0828 
    108 H108       24.4604  -35.8235  -41.8367 H         1 UNK         0.0828 
    109 H109       24.2509  -36.5476  -40.2426 H         1 UNK         0.0828 
    110 H110       23.1413  -32.0393  -40.5721 H         1 UNK         0.2931 
    111 H111       22.3188  -30.4396  -41.7913 H         1 UNK         0.0412 
    112 H112       24.5581  -32.3407  -42.8836 H         1 UNK         0.3472 
    113 H113       24.6877  -31.7704  -44.5308 H         1 UNK         0.3472 
    114 H114       20.3352  -32.3379  -43.1256 H         1 UNK         0.0970 
    115 H115       20.2715  -30.5956  -43.1507 H         1 UNK         0.0970 
    116 H116       17.4158  -32.3695  -40.7287 H         1 UNK         0.0612 
    117 H117       18.2022  -33.0358  -42.1368 H         1 UNK         0.0612 
@<TRIPOS>BOND
     1    1    2 1    
     2    1   62 1    
     3    1   63 1    
     4    1   64 1    
     5    2    3 2    
     6    2    4 am   BACKBONE|DICT|INTERRES
     7    4    5 1    
     8    4   65 1    
     9    5    6 1    
    10    5   25 1    
    11    5   66 1    
    12    6    7 1    
    13    6   67 1    
    14    6   68 1    
    15    7    8 1    
    16    8    9 1    
    17    8   69 1    
    18    8   70 1    
    19    9   10 ar   
    20    9   14 ar   
    21   10   11 ar   
    22   10   71 1    
    23   11   12 ar   
    24   11   61 1    
    25   12   13 ar   
    26   12   72 1    
    27   13   14 ar   
    28   13   15 1    
    29   14   73 1    
    30   15   16 1    
    31   15   74 1    
    32   15   75 1    
    33   16   17 1    
    34   17   18 1    
    35   17   76 1    
    36   17   77 1    
    37   18   19 1    
    38   18   27 1    
    39   18   78 1    
    40   19   20 am   BACKBONE|DICT|INTERRES
    41   19   79 1    
    42   20   21 2    
    43   20   22 1    
    44   22   23 1    
    45   22   24 1    
    46   22   80 1    
    47   23   81 1    
    48   23   82 1    
    49   23   83 1    
    50   24   25 am   BACKBONE|DICT|INTERRES
    51   24   84 1    
    52   25   26 2    
    53   27   28 2    
    54   27   29 am   BACKBONE|DICT|INTERRES
    55   29   30 1    
    56   29   85 1    
    57   30   31 1    
    58   30   32 1    
    59   30   86 1    
    60   31   87 1    
    61   31   88 1    
    62   31   89 1    
    63   32   33 2    
    64   32   34 am   BACKBONE|DICT|INTERRES
    65   34   35 1    
    66   34   90 1    
    67   35   36 1    
    68   35   37 1    
    69   35   91 1    
    70   36   92 1    
    71   36   93 1    
    72   36   94 1    
    73   37   38 2    
    74   37   39 am   BACKBONE|DICT|INTERRES
    75   39   40 1    
    76   39   95 1    
    77   40   41 1    
    78   40   42 1    
    79   40   96 1    
    80   41   97 1    
    81   41   98 1    
    82   41   99 1    
    83   42   43 2    
    84   42   44 am   BACKBONE|DICT|INTERRES
    85   44   45 1    
    86   44  100 1    
    87   45   46 1    
    88   45   47 1    
    89   45  101 1    
    90   46  102 1    
    91   46  103 1    
    92   46  104 1    
    93   47   48 2    
    94   47   49 am   BACKBONE|DICT|INTERRES
    95   49   50 1    
    96   49  105 1    
    97   50   51 1    
    98   50   52 1    
    99   50  106 1    
   100   51  107 1    
   101   51  108 1    
   102   51  109 1    
   103   52   53 2    
   104   52   54 am   BACKBONE|DICT|INTERRES
   105   54   55 1    
   106   54  110 1    
   107   55   56 1    
   108   55   59 1    
   109   55  111 1    
   110   56   57 am   BACKBONE|DICT|INTERRES
   111   56   58 2    
   112   57  112 1    
   113   57  113 1    
   114   59   60 1    
   115   59  114 1    
   116   59  115 1    
   117   60   61 1    
   118   61  116 1    
   119   61  117 1    
@<TRIPOS>SUBSTRUCTURE
     1 UNK         1 GROUP             0       ****    0 ROOT    
