@<TRIPOS>MOLECULE
3R8
117   119    1
SMALL
USER_CHARGES


@<TRIPOS>ATOM
      1 CA         18.6361  -22.7673  -45.7150 C.3       0 UNK        -0.2013 
      2 C          17.9886  -23.0462  -44.3609 C.2       0 UNK         0.4866 
      3 O          17.7629  -22.1088  -43.5976 O.2       0 UNK        -0.5176 
      4 N          17.6576  -24.2988  -44.0172 N.am      1 UNK        -0.4884 
      5 CA         17.9063  -25.5286  -44.7804 C.3       1 UNK         0.0853 
      6 C6         16.7626  -26.5562  -44.5581 C.3       10 UNK        -0.0849 
      7 S7         16.5316  -27.6520  -45.9991 S.3       10 UNK        -0.2776 
      8 C8         15.4798  -28.9569  -45.2953 C.3       10 UNK         0.0316 
      9 C9         16.2883  -29.9887  -44.5220 C.ar      10 UNK        -0.0863 
     10 C10        16.9388  -31.0203  -45.2076 C.ar      10 UNK        -0.1009 
     11 C11        17.6330  -32.0131  -44.5090 C.ar      10 UNK        -0.0712 
     12 C12        17.6661  -31.9675  -43.1126 C.ar      10 UNK        -0.0894 
     13 C13        17.0196  -30.9434  -42.4141 C.ar      10 UNK        -0.0745 
     14 C14        16.3399  -29.9494  -43.1244 C.ar      10 UNK        -0.0972 
     15 C15        16.9905  -30.9691  -40.8925 C.3       10 UNK         0.0209 
     16 S16        18.6444  -30.7771  -40.1595 S.3       10 UNK        -0.2568 
     17 C17        18.8073  -28.9695  -40.0197 C.3       10 UNK        -0.0983 
     18 CA         20.1131  -28.4641  -40.6757 C.3       3 UNK         0.0876 
     19 N          20.0284  -28.4721  -42.1388 N.am      3 UNK        -0.4424 
     20 C          21.0665  -28.2580  -42.9590 C.2       2 UNK         0.4918 
     21 O          22.2284  -28.1460  -42.5752 O.2       2 UNK        -0.4875 
     22 CA         20.7555  -28.1212  -44.4579 C.3       2 UNK         0.0481 
     23 CB         20.6913  -29.5032  -45.1176 C.3       2 UNK        -0.1831 
     24 N          19.5082  -27.3989  -44.7169 N.am      2 UNK        -0.4498 
     25 C          19.3141  -26.0950  -44.4730 C.2       1 UNK         0.5027 
     26 O          20.1994  -25.3502  -44.0477 O.2       1 UNK        -0.4969 
     27 C          20.4697  -27.0573  -40.1551 C.2       3 UNK         0.5005 
     28 O          20.0485  -26.0590  -40.7433 O.2       3 UNK        -0.5279 
     29 N          21.2496  -27.0101  -39.0660 N.am      4 UNK        -0.4463 
     30 CA         21.8161  -25.8313  -38.3907 C.3       4 UNK         0.0283 
     31 CB         20.7351  -24.8182  -37.9646 C.3       4 UNK        -0.1875 
     32 C          22.9508  -25.1511  -39.1777 C.2       4 UNK         0.4949 
     33 O          23.9372  -24.7424  -38.5649 O.2       4 UNK        -0.5039 
     34 N          22.8266  -25.0761  -40.5096 N.am      5 UNK        -0.4663 
     35 CA         23.8976  -24.6732  -41.4264 C.3       5 UNK         0.0242 
     36 CB         23.3051  -24.4335  -42.8238 C.3       5 UNK        -0.1982 
     37 C          25.0284  -25.7168  -41.4923 C.2       5 UNK         0.5017 
     38 O          26.1935  -25.3457  -41.6385 O.2       5 UNK        -0.5012 
     39 N          24.6588  -26.9941  -41.3626 N.am      6 UNK        -0.4439 
     40 CA         25.5262  -28.1614  -41.2920 C.3       6 UNK         0.0297 
     41 CB         25.8047  -28.6741  -42.7183 C.3       6 UNK        -0.2006 
     42 C          24.8298  -29.2266  -40.4307 C.2       6 UNK         0.4892 
     43 O          23.7033  -29.0169  -39.9655 O.2       6 UNK        -0.5089 
     44 N          25.4986  -30.3715  -40.2470 N.am      7 UNK        -0.4243 
     45 CA         24.9709  -31.5563  -39.5635 C.3       7 UNK         0.0196 
     46 CB         26.1516  -32.4188  -39.0786 C.3       7 UNK        -0.2007 
     47 C          23.9932  -32.3373  -40.4668 C.2       7 UNK         0.5020 
     48 O          24.2568  -33.4911  -40.8117 O.2       7 UNK        -0.5147 
     49 N          22.8923  -31.6738  -40.8461 N.am      8 UNK        -0.4734 
     50 CA         21.8535  -32.1224  -41.7811 C.3       8 UNK         0.0238 
     51 CB         21.1050  -33.3523  -41.2153 C.3       8 UNK        -0.1912 
     52 C          22.4029  -32.3297  -43.2085 C.2       8 UNK         0.5038 
     53 O          23.4007  -31.7062  -43.5780 O.2       8 UNK        -0.5046 
     54 N          21.7264  -33.1743  -43.9959 N.am      9 UNK        -0.4200 
     55 CA         22.1007  -33.5242  -45.3772 C.3       9 UNK         0.0839 
     56 C          23.2378  -34.5840  -45.4838 C.2       9 UNK         0.5513 
     57 N          23.7695  -35.1132  -44.3880 N.am      9 UNK        -0.7519 
     58 O          23.6529  -34.9291  -46.5871 O.2       9 UNK        -0.4960 
     59 C59        20.8620  -33.9300  -46.2221 C.3       10 UNK        -0.0876 
     60 S60        19.6402  -32.5790  -46.3438 S.3       10 UNK        -0.2414 
     61 C61        18.3049  -33.1615  -45.2519 C.3       10 UNK         0.0169 
     62 H62        19.5426  -23.3566  -45.8483 H         1 UNK         0.0903 
     63 H63        17.9448  -22.9906  -46.5270 H         1 UNK         0.0903 
     64 H64        18.9137  -21.7164  -45.7958 H         1 UNK         0.0903 
     65 H65        17.2722  -24.4441  -43.0949 H         1 UNK         0.3096 
     66 H66        17.9122  -25.2752  -45.8418 H         1 UNK         0.1121 
     67 H67        15.8141  -26.0347  -44.4160 H         1 UNK         0.0849 
     68 H68        16.9167  -27.1377  -43.6474 H         1 UNK         0.0849 
     69 H69        14.7091  -28.5115  -44.6639 H         1 UNK         0.0865 
     70 H70        14.9486  -29.4532  -46.1090 H         1 UNK         0.0865 
     71 H71        16.8948  -31.0595  -46.2877 H         1 UNK         0.1346 
     72 H72        18.1711  -32.7454  -42.5588 H         1 UNK         0.1412 
     73 H73        15.8177  -29.1682  -42.5887 H         1 UNK         0.1426 
     74 H74        16.5842  -31.9295  -40.5722 H         1 UNK         0.0716 
     75 H75        16.3152  -30.2111  -40.4928 H         1 UNK         0.0716 
     76 H76        18.7892  -28.7400  -38.9522 H         1 UNK         0.0695 
     77 H77        17.9387  -28.4684  -40.4510 H         1 UNK         0.0695 
     78 H78        20.9295  -29.1323  -40.3928 H         1 UNK         0.0983 
     79 H79        19.1038  -28.5406  -42.5340 H         1 UNK         0.3095 
     80 H80        21.5708  -27.5612  -44.9207 H         1 UNK         0.0454 
     81 H81        20.4743  -29.4303  -46.1832 H         1 UNK         0.0851 
     82 H82        19.9251  -30.1301  -44.6604 H         1 UNK         0.0851 
     83 H83        21.6433  -30.0253  -45.0192 H         1 UNK         0.0851 
     84 H84        18.7360  -27.9327  -45.0967 H         1 UNK         0.2976 
     85 H85        21.5838  -27.8928  -38.7005 H         1 UNK         0.3116 
     86 H86        22.2681  -26.2194  -37.4763 H         1 UNK         0.0646 
     87 H87        20.2715  -24.3256  -38.8196 H         1 UNK         0.0847 
     88 H88        19.9472  -25.2974  -37.3840 H         1 UNK         0.0847 
     89 H89        21.1667  -24.0344  -37.3409 H         1 UNK         0.0847 
     90 H90        21.9538  -25.3955  -40.9194 H         1 UNK         0.3040 
     91 H91        24.3270  -23.7364  -41.0643 H         1 UNK         0.1015 
     92 H92        24.0725  -24.0941  -43.5207 H         1 UNK         0.0786 
     93 H93        22.5256  -23.6717  -42.8014 H         1 UNK         0.0786 
     94 H94        22.8684  -25.3441  -43.2370 H         1 UNK         0.0786 
     95 H95        23.6730  -27.2163  -41.2623 H         1 UNK         0.3172 
     96 H96        26.4644  -27.8900  -40.8040 H         1 UNK         0.0595 
     97 H97        24.8892  -29.0147  -43.2053 H         1 UNK         0.0839 
     98 H98        26.5030  -29.5113  -42.7149 H         1 UNK         0.0839 
     99 H99        26.2433  -27.8951  -43.3421 H         1 UNK         0.0839 
    100 H100       26.4039  -30.4754  -40.6822 H         1 UNK         0.2998 
    101 H101       24.4115  -31.2358  -38.6817 H         1 UNK         0.0822 
    102 H102       25.7966  -33.2980  -38.5391 H         1 UNK         0.0787 
    103 H103       26.7642  -32.7710  -39.9095 H         1 UNK         0.0787 
    104 H104       26.7963  -31.8622  -38.3981 H         1 UNK         0.0787 
    105 H105       22.8412  -30.7000  -40.5615 H         1 UNK         0.3055 
    106 H106       21.1385  -31.3021  -41.8565 H         1 UNK         0.1106 
    107 H107       20.7899  -33.1784  -40.1863 H         1 UNK         0.0828 
    108 H108       20.2022  -33.5727  -41.7832 H         1 UNK         0.0828 
    109 H109       21.7252  -34.2492  -41.2227 H         1 UNK         0.0828 
    110 H110       20.9268  -33.6581  -43.6189 H         1 UNK         0.2931 
    111 H111       22.5118  -32.6244  -45.8397 H         1 UNK         0.0412 
    112 H112       23.4693  -34.8136  -43.4738 H         1 UNK         0.3472 
    113 H113       24.5072  -35.7943  -44.4779 H         1 UNK         0.3472 
    114 H114       20.3970  -34.8338  -45.8252 H         1 UNK         0.0970 
    115 H115       21.1626  -34.1758  -47.2424 H         1 UNK         0.0970 
    116 H116       17.5625  -33.6916  -45.8499 H         1 UNK         0.0612 
    117 H117       18.7002  -33.8865  -44.5394 H         1 UNK         0.0612 
@<TRIPOS>BOND
     1    1    2 1    
     2    1   62 1    
     3    1   63 1    
     4    1   64 1    
     5    2    3 2    
     6    2    4 am   BACKBONE|DICT|INTERRES
     7    4    5 1    
     8    4   65 1    
     9    5    6 1    
    10    5   25 1    
    11    5   66 1    
    12    6    7 1    
    13    6   67 1    
    14    6   68 1    
    15    7    8 1    
    16    8    9 1    
    17    8   69 1    
    18    8   70 1    
    19    9   10 ar   
    20    9   14 ar   
    21   10   11 ar   
    22   10   71 1    
    23   11   12 ar   
    24   11   61 1    
    25   12   13 ar   
    26   12   72 1    
    27   13   14 ar   
    28   13   15 1    
    29   14   73 1    
    30   15   16 1    
    31   15   74 1    
    32   15   75 1    
    33   16   17 1    
    34   17   18 1    
    35   17   76 1    
    36   17   77 1    
    37   18   19 1    
    38   18   27 1    
    39   18   78 1    
    40   19   20 am   BACKBONE|DICT|INTERRES
    41   19   79 1    
    42   20   21 2    
    43   20   22 1    
    44   22   23 1    
    45   22   24 1    
    46   22   80 1    
    47   23   81 1    
    48   23   82 1    
    49   23   83 1    
    50   24   25 am   BACKBONE|DICT|INTERRES
    51   24   84 1    
    52   25   26 2    
    53   27   28 2    
    54   27   29 am   BACKBONE|DICT|INTERRES
    55   29   30 1    
    56   29   85 1    
    57   30   31 1    
    58   30   32 1    
    59   30   86 1    
    60   31   87 1    
    61   31   88 1    
    62   31   89 1    
    63   32   33 2    
    64   32   34 am   BACKBONE|DICT|INTERRES
    65   34   35 1    
    66   34   90 1    
    67   35   36 1    
    68   35   37 1    
    69   35   91 1    
    70   36   92 1    
    71   36   93 1    
    72   36   94 1    
    73   37   38 2    
    74   37   39 am   BACKBONE|DICT|INTERRES
    75   39   40 1    
    76   39   95 1    
    77   40   41 1    
    78   40   42 1    
    79   40   96 1    
    80   41   97 1    
    81   41   98 1    
    82   41   99 1    
    83   42   43 2    
    84   42   44 am   BACKBONE|DICT|INTERRES
    85   44   45 1    
    86   44  100 1    
    87   45   46 1    
    88   45   47 1    
    89   45  101 1    
    90   46  102 1    
    91   46  103 1    
    92   46  104 1    
    93   47   48 2    
    94   47   49 am   BACKBONE|DICT|INTERRES
    95   49   50 1    
    96   49  105 1    
    97   50   51 1    
    98   50   52 1    
    99   50  106 1    
   100   51  107 1    
   101   51  108 1    
   102   51  109 1    
   103   52   53 2    
   104   52   54 am   BACKBONE|DICT|INTERRES
   105   54   55 1    
   106   54  110 1    
   107   55   56 1    
   108   55   59 1    
   109   55  111 1    
   110   56   57 am   BACKBONE|DICT|INTERRES
   111   56   58 2    
   112   57  112 1    
   113   57  113 1    
   114   59   60 1    
   115   59  114 1    
   116   59  115 1    
   117   60   61 1    
   118   61  116 1    
   119   61  117 1    
@<TRIPOS>SUBSTRUCTURE
     1 UNK         1 GROUP             0       ****    0 ROOT    
