@<TRIPOS>MOLECULE
3R8
117   119    1
SMALL
USER_CHARGES


@<TRIPOS>ATOM
      1 CA         16.2285  -26.0243  -48.8207 C.3       0 UNK        -0.2013 
      2 C          17.6094  -25.7018  -48.2694 C.2       0 UNK         0.4866 
      3 O          18.0720  -24.5677  -48.3998 O.2       0 UNK        -0.5176 
      4 N          18.2749  -26.6919  -47.6630 N.am      1 UNK        -0.4884 
      5 CA         19.5760  -26.5477  -47.0026 C.3       1 UNK         0.0853 
      6 C6         20.3005  -27.9152  -46.8765 C.3       10 UNK        -0.0849 
      7 S7         19.3555  -29.1900  -45.9680 S.3       10 UNK        -0.2776 
      8 C8         20.1896  -29.1151  -44.3570 C.3       10 UNK         0.0316 
      9 C9         19.3650  -29.7736  -43.2662 C.ar      10 UNK        -0.0863 
     10 C10        19.7117  -31.0372  -42.7860 C.ar      10 UNK        -0.1009 
     11 C11        19.0005  -31.6221  -41.7363 C.ar      10 UNK        -0.0712 
     12 C12        17.9388  -30.9239  -41.1532 C.ar      10 UNK        -0.0894 
     13 C13        17.5833  -29.6540  -41.6235 C.ar      10 UNK        -0.0745 
     14 C14        18.2872  -29.0934  -42.6938 C.ar      10 UNK        -0.0972 
     15 C15        16.4479  -28.8842  -40.9652 C.3       10 UNK         0.0209 
     16 S16        17.0557  -27.8207  -39.6141 S.3       10 UNK        -0.2568 
     17 C17        17.6072  -26.3222  -40.5017 C.3       10 UNK        -0.0983 
     18 CA         19.1273  -26.2997  -40.8109 C.3       3 UNK         0.0876 
     19 N          19.4036  -25.4838  -42.0029 N.am      3 UNK        -0.4424 
     20 C          20.5475  -25.4929  -42.6970 C.2       2 UNK         0.4918 
     21 O          21.5140  -26.2016  -42.4108 O.2       2 UNK        -0.4875 
     22 CA         20.6415  -24.5294  -43.8909 C.3       2 UNK         0.0481 
     23 CB         21.9543  -23.7284  -43.8444 C.3       2 UNK        -0.1831 
     24 N          20.5543  -25.2425  -45.1661 N.am      2 UNK        -0.4498 
     25 C          19.4427  -25.8198  -45.6441 C.2       1 UNK         0.5027 
     26 O          18.3608  -25.8053  -45.0492 O.2       1 UNK        -0.4969 
     27 C          19.9845  -25.8991  -39.5859 C.2       3 UNK         0.5005 
     28 O          20.1553  -26.7073  -38.6734 O.2       3 UNK        -0.5279 
     29 N          20.5525  -24.6826  -39.6013 N.am      4 UNK        -0.4463 
     30 CA         21.5603  -24.2230  -38.6412 C.3       4 UNK         0.0283 
     31 CB         21.7880  -22.7135  -38.8209 C.3       4 UNK        -0.1875 
     32 C          22.8938  -24.9870  -38.7610 C.2       4 UNK         0.4949 
     33 O          23.5576  -25.1975  -37.7458 O.2       4 UNK        -0.5039 
     34 N          23.2552  -25.3919  -39.9875 N.am      5 UNK        -0.4663 
     35 CA         24.4141  -26.2421  -40.2693 C.3       5 UNK         0.0242 
     36 CB         24.9939  -25.8825  -41.6482 C.3       5 UNK        -0.1982 
     37 C          24.0307  -27.7283  -40.2131 C.2       5 UNK         0.5017 
     38 O          24.7731  -28.5231  -39.6370 O.2       5 UNK        -0.5012 
     39 N          22.8789  -28.0624  -40.8164 N.am      6 UNK        -0.4439 
     40 CA         22.2594  -29.3895  -40.9104 C.3       6 UNK         0.0297 
     41 CB         21.8297  -29.9051  -39.5218 C.3       6 UNK        -0.2006 
     42 C          23.1002  -30.4228  -41.6876 C.2       6 UNK         0.4892 
     43 O          22.9620  -31.6227  -41.4507 O.2       6 UNK        -0.5089 
     44 N          23.9443  -29.9501  -42.6159 N.am      7 UNK        -0.4243 
     45 CA         24.9885  -30.7182  -43.3083 C.3       7 UNK         0.0196 
     46 CB         25.7292  -29.7808  -44.2761 C.3       7 UNK        -0.2007 
     47 C          24.5303  -31.9918  -44.0463 C.2       7 UNK         0.5020 
     48 O          25.3394  -32.9024  -44.2251 O.2       7 UNK        -0.5147 
     49 N          23.2594  -32.0403  -44.4649 N.am      8 UNK        -0.4734 
     50 CA         22.6687  -33.1768  -45.1758 C.3       8 UNK         0.0238 
     51 CB         21.4330  -32.7006  -45.9604 C.3       8 UNK        -0.1912 
     52 C          22.3151  -34.3802  -44.2783 C.2       8 UNK         0.5038 
     53 O          22.1071  -35.4652  -44.8247 O.2       8 UNK        -0.5046 
     54 N          22.2318  -34.1962  -42.9514 N.am      9 UNK        -0.4200 
     55 CA         21.8033  -35.2489  -42.0080 C.3       9 UNK         0.0839 
     56 C          22.3245  -35.1150  -40.5496 C.2       9 UNK         0.5513 
     57 N          22.9713  -34.0312  -40.1471 N.am      9 UNK        -0.7519 
     58 O          22.1651  -36.0437  -39.7612 O.2       9 UNK        -0.4960 
     59 C59        20.2793  -35.6016  -42.0838 C.3       10 UNK        -0.0876 
     60 S60        19.1198  -34.2540  -42.5187 S.3       10 UNK        -0.2414 
     61 C61        19.4107  -32.9979  -41.2346 C.3       10 UNK         0.0169 
     62 H62        15.9534  -27.0647  -48.6481 H         1 UNK         0.0903 
     63 H63        15.4786  -25.3922  -48.3459 H         1 UNK         0.0903 
     64 H64        16.2001  -25.8399  -49.8943 H         1 UNK         0.0903 
     65 H65        17.8366  -27.5950  -47.5454 H         1 UNK         0.3096 
     66 H66        20.1940  -25.9104  -47.6399 H         1 UNK         0.1121 
     67 H67        20.4937  -28.3075  -47.8763 H         1 UNK         0.0849 
     68 H68        21.2876  -27.7923  -46.4268 H         1 UNK         0.0849 
     69 H69        21.1712  -29.5825  -44.4405 H         1 UNK         0.0865 
     70 H70        20.3725  -28.0787  -44.0784 H         1 UNK         0.0865 
     71 H71        20.5483  -31.5698  -43.2118 H         1 UNK         0.1346 
     72 H72        17.3952  -31.3625  -40.3276 H         1 UNK         0.1412 
     73 H73        18.0183  -28.1122  -43.0626 H         1 UNK         0.1426 
     74 H74        15.7206  -29.5855  -40.5534 H         1 UNK         0.0716 
     75 H75        15.9061  -28.2909  -41.7032 H         1 UNK         0.0716 
     76 H76        17.3155  -25.4450  -39.9210 H         1 UNK         0.0695 
     77 H77        17.0326  -26.2576  -41.4270 H         1 UNK         0.0695 
     78 H78        19.4414  -27.3156  -41.0550 H         1 UNK         0.0983 
     79 H79        18.6500  -24.8930  -42.3256 H         1 UNK         0.3095 
     80 H80        19.8152  -23.8173  -43.8369 H         1 UNK         0.0454 
     81 H81        22.0502  -23.1866  -42.9025 H         1 UNK         0.0851 
     82 H82        22.8294  -24.3728  -43.9386 H         1 UNK         0.0851 
     83 H83        21.9962  -22.9897  -44.6449 H         1 UNK         0.0851 
     84 H84        21.4118  -25.3166  -45.6945 H         1 UNK         0.2976 
     85 H85        20.3328  -24.0625  -40.3668 H         1 UNK         0.3116 
     86 H86        21.1701  -24.3921  -37.6351 H         1 UNK         0.0646 
     87 H87        22.5170  -22.3420  -38.0992 H         1 UNK         0.0847 
     88 H88        20.8673  -22.1508  -38.6657 H         1 UNK         0.0847 
     89 H89        22.1660  -22.4746  -39.8158 H         1 UNK         0.0847 
     90 H90        22.6338  -25.2041  -40.7622 H         1 UNK         0.3040 
     91 H91        25.1903  -26.0671  -39.5204 H         1 UNK         0.1015 
     92 H92        25.3163  -24.8416  -41.6806 H         1 UNK         0.0786 
     93 H93        24.2706  -26.0320  -42.4504 H         1 UNK         0.0786 
     94 H94        25.8656  -26.4976  -41.8762 H         1 UNK         0.0786 
     95 H95        22.3803  -27.3249  -41.3120 H         1 UNK         0.3172 
     96 H96        21.3522  -29.2338  -41.4893 H         1 UNK         0.0595 
     97 H97        21.2185  -29.1713  -38.9974 H         1 UNK         0.0839 
     98 H98        22.6890  -30.1397  -38.8932 H         1 UNK         0.0839 
     99 H99        21.2329  -30.8137  -39.6094 H         1 UNK         0.0839 
    100 H100       23.9665  -28.9503  -42.7512 H         1 UNK         0.2998 
    101 H101       25.6964  -31.0419  -42.5425 H         1 UNK         0.0822 
    102 H102       25.0613  -29.3828  -45.0412 H         1 UNK         0.0787 
    103 H103       26.5367  -30.3053  -44.7894 H         1 UNK         0.0787 
    104 H104       26.1787  -28.9386  -43.7495 H         1 UNK         0.0787 
    105 H105       22.6657  -31.2485  -44.2757 H         1 UNK         0.3055 
    106 H106       23.4012  -33.5358  -45.9029 H         1 UNK         0.1106 
    107 H107       20.6207  -32.3885  -45.3053 H         1 UNK         0.0828 
    108 H108       21.6734  -31.8660  -46.6193 H         1 UNK         0.0828 
    109 H109       21.0428  -33.5023  -46.5889 H         1 UNK         0.0828 
    110 H110       22.4500  -33.2902  -42.5538 H         1 UNK         0.2931 
    111 H111       22.3302  -36.1480  -42.3350 H         1 UNK         0.0412 
    112 H112       23.3084  -34.0011  -39.1985 H         1 UNK         0.3472 
    113 H113       23.0613  -33.1994  -40.7272 H         1 UNK         0.3472 
    114 H114       19.9244  -36.0776  -41.1677 H         1 UNK         0.0970 
    115 H115       20.1479  -36.3630  -42.8541 H         1 UNK         0.0970 
    116 H116       20.4650  -32.9604  -40.9668 H         1 UNK         0.0612 
    117 H117       18.8657  -33.2718  -40.3303 H         1 UNK         0.0612 
@<TRIPOS>BOND
     1    1    2 1    
     2    1   62 1    
     3    1   63 1    
     4    1   64 1    
     5    2    3 2    
     6    2    4 am   BACKBONE|DICT|INTERRES
     7    4    5 1    
     8    4   65 1    
     9    5    6 1    
    10    5   25 1    
    11    5   66 1    
    12    6    7 1    
    13    6   67 1    
    14    6   68 1    
    15    7    8 1    
    16    8    9 1    
    17    8   69 1    
    18    8   70 1    
    19    9   10 ar   
    20    9   14 ar   
    21   10   11 ar   
    22   10   71 1    
    23   11   12 ar   
    24   11   61 1    
    25   12   13 ar   
    26   12   72 1    
    27   13   14 ar   
    28   13   15 1    
    29   14   73 1    
    30   15   16 1    
    31   15   74 1    
    32   15   75 1    
    33   16   17 1    
    34   17   18 1    
    35   17   76 1    
    36   17   77 1    
    37   18   19 1    
    38   18   27 1    
    39   18   78 1    
    40   19   20 am   BACKBONE|DICT|INTERRES
    41   19   79 1    
    42   20   21 2    
    43   20   22 1    
    44   22   23 1    
    45   22   24 1    
    46   22   80 1    
    47   23   81 1    
    48   23   82 1    
    49   23   83 1    
    50   24   25 am   BACKBONE|DICT|INTERRES
    51   24   84 1    
    52   25   26 2    
    53   27   28 2    
    54   27   29 am   BACKBONE|DICT|INTERRES
    55   29   30 1    
    56   29   85 1    
    57   30   31 1    
    58   30   32 1    
    59   30   86 1    
    60   31   87 1    
    61   31   88 1    
    62   31   89 1    
    63   32   33 2    
    64   32   34 am   BACKBONE|DICT|INTERRES
    65   34   35 1    
    66   34   90 1    
    67   35   36 1    
    68   35   37 1    
    69   35   91 1    
    70   36   92 1    
    71   36   93 1    
    72   36   94 1    
    73   37   38 2    
    74   37   39 am   BACKBONE|DICT|INTERRES
    75   39   40 1    
    76   39   95 1    
    77   40   41 1    
    78   40   42 1    
    79   40   96 1    
    80   41   97 1    
    81   41   98 1    
    82   41   99 1    
    83   42   43 2    
    84   42   44 am   BACKBONE|DICT|INTERRES
    85   44   45 1    
    86   44  100 1    
    87   45   46 1    
    88   45   47 1    
    89   45  101 1    
    90   46  102 1    
    91   46  103 1    
    92   46  104 1    
    93   47   48 2    
    94   47   49 am   BACKBONE|DICT|INTERRES
    95   49   50 1    
    96   49  105 1    
    97   50   51 1    
    98   50   52 1    
    99   50  106 1    
   100   51  107 1    
   101   51  108 1    
   102   51  109 1    
   103   52   53 2    
   104   52   54 am   BACKBONE|DICT|INTERRES
   105   54   55 1    
   106   54  110 1    
   107   55   56 1    
   108   55   59 1    
   109   55  111 1    
   110   56   57 am   BACKBONE|DICT|INTERRES
   111   56   58 2    
   112   57  112 1    
   113   57  113 1    
   114   59   60 1    
   115   59  114 1    
   116   59  115 1    
   117   60   61 1    
   118   61  116 1    
   119   61  117 1    
@<TRIPOS>SUBSTRUCTURE
     1 UNK         1 GROUP             0       ****    0 ROOT    
