@<TRIPOS>MOLECULE
3R8
117   119    1
SMALL
USER_CHARGES


@<TRIPOS>ATOM
      1 CA         18.5749  -21.8733  -48.4281 C.3       0 UNK        -0.2013 
      2 C          19.3821  -22.6303  -47.3840 C.2       0 UNK         0.4866 
      3 O          20.2161  -22.0332  -46.7022 O.2       0 UNK        -0.5176 
      4 N          19.1484  -23.9421  -47.2591 N.am      1 UNK        -0.4884 
      5 CA         19.7691  -24.8151  -46.2584 C.3       1 UNK         0.0853 
      6 C6         19.6451  -26.3161  -46.6433 C.3       10 UNK        -0.0849 
      7 S7         17.9373  -26.8441  -47.0230 S.3       10 UNK        -0.2776 
      8 C8         18.1845  -28.5714  -47.5503 C.3       10 UNK         0.0316 
      9 C9         18.1687  -29.5582  -46.3879 C.ar      10 UNK        -0.0863 
     10 C10        19.2109  -30.4773  -46.2240 C.ar      10 UNK        -0.1009 
     11 C11        19.1590  -31.4430  -45.2121 C.ar      10 UNK        -0.0712 
     12 C12        18.0584  -31.4710  -44.3487 C.ar      10 UNK        -0.0894 
     13 C13        17.0266  -30.5351  -44.4785 C.ar      10 UNK        -0.0745 
     14 C14        17.0797  -29.5947  -45.5108 C.ar      10 UNK        -0.0972 
     15 C15        15.8650  -30.5246  -43.4936 C.3       10 UNK         0.0209 
     16 S16        16.4050  -30.1336  -41.7952 S.3       10 UNK        -0.2568 
     17 C17        17.0135  -28.4133  -41.9387 C.3       10 UNK        -0.0983 
     18 CA         18.5079  -28.3085  -42.3564 C.3       3 UNK         0.0876 
     19 N          18.9257  -26.9442  -42.6799 N.am      3 UNK        -0.4424 
     20 C          19.1258  -25.9293  -41.8273 C.2       2 UNK         0.4918 
     21 O          18.8999  -25.9991  -40.6185 O.2       2 UNK        -0.4875 
     22 CA         19.7153  -24.6249  -42.4068 C.3       2 UNK         0.0481 
     23 CB         20.9721  -24.2016  -41.6270 C.3       2 UNK        -0.1831 
     24 N          20.0615  -24.7260  -43.8299 N.am      2 UNK        -0.4498 
     25 C          19.2089  -24.5389  -44.8459 C.2       1 UNK         0.5027 
     26 O          18.0287  -24.2124  -44.6964 O.2       1 UNK        -0.4969 
     27 C          19.5323  -28.9698  -41.4156 C.2       3 UNK         0.5005 
     28 O          20.6651  -29.1699  -41.8476 O.2       3 UNK        -0.5279 
     29 N          19.1552  -29.2816  -40.1670 N.am      4 UNK        -0.4463 
     30 CA         19.9657  -30.0066  -39.1787 C.3       4 UNK         0.0283 
     31 CB         19.2175  -30.0503  -37.8379 C.3       4 UNK        -0.1875 
     32 C          21.3943  -29.4678  -38.9774 C.2       4 UNK         0.4949 
     33 O          22.3126  -30.2632  -38.7828 O.2       4 UNK        -0.5039 
     34 N          21.5576  -28.1417  -39.0645 N.am      5 UNK        -0.4663 
     35 CA         22.8434  -27.4532  -38.9441 C.3       5 UNK         0.0242 
     36 CB         22.5900  -26.0300  -38.4206 C.3       5 UNK        -0.1982 
     37 C          23.6645  -27.4120  -40.2483 C.2       5 UNK         0.5017 
     38 O          24.8374  -27.0393  -40.1885 O.2       5 UNK        -0.5012 
     39 N          23.0765  -27.7747  -41.3992 N.am      6 UNK        -0.4439 
     40 CA         23.7245  -27.7387  -42.7150 C.3       6 UNK         0.0297 
     41 CB         22.6563  -27.5878  -43.8154 C.3       6 UNK        -0.2006 
     42 C          24.6143  -28.9764  -42.9261 C.2       6 UNK         0.4892 
     43 O          24.2751  -29.8555  -43.7176 O.2       6 UNK        -0.5089 
     44 N          25.7366  -29.0149  -42.1953 N.am      7 UNK        -0.4243 
     45 CA         26.7326  -30.0928  -42.1573 C.3       7 UNK         0.0196 
     46 CB         27.4208  -30.2751  -43.5283 C.3       7 UNK        -0.2007 
     47 C          26.1667  -31.4042  -41.5763 C.2       7 UNK         0.5020 
     48 O          26.4458  -32.4840  -42.0996 O.2       7 UNK        -0.5147 
     49 N          25.4156  -31.2715  -40.4727 N.am      8 UNK        -0.4734 
     50 CA         24.8797  -32.3428  -39.6251 C.3       8 UNK         0.0238 
     51 CB         26.0278  -33.1194  -38.9417 C.3       8 UNK        -0.1912 
     52 C          23.8774  -33.2656  -40.3459 C.2       8 UNK         0.5038 
     53 O          24.0783  -34.4822  -40.3763 O.2       8 UNK        -0.5046 
     54 N          22.7939  -32.6816  -40.8784 N.am      9 UNK        -0.4200 
     55 CA         21.6240  -33.4393  -41.3661 C.3       9 UNK         0.0839 
     56 C          20.7884  -34.1035  -40.2302 C.2       9 UNK         0.5513 
     57 N          20.9353  -33.7059  -38.9708 N.am      9 UNK        -0.7519 
     58 O          19.9925  -34.9987  -40.5007 O.2       9 UNK        -0.4960 
     59 C59        20.6958  -32.5991  -42.2815 C.3       10 UNK        -0.0876 
     60 S60        21.5026  -32.0265  -43.8137 S.3       10 UNK        -0.2414 
     61 C61        20.2735  -32.4764  -45.0830 C.3       10 UNK         0.0169 
     62 H62        17.9922  -21.0850  -47.9522 H         1 UNK         0.0903 
     63 H63        19.2415  -21.4124  -49.1565 H         1 UNK         0.0903 
     64 H64        17.8868  -22.5269  -48.9641 H         1 UNK         0.0903 
     65 H65        18.4255  -24.3801  -47.8135 H         1 UNK         0.3096 
     66 H66        20.8340  -24.5705  -46.2379 H         1 UNK         0.1121 
     67 H67        20.2564  -26.5047  -47.5274 H         1 UNK         0.0849 
     68 H68        20.0547  -26.9615  -45.8636 H         1 UNK         0.0849 
     69 H69        17.3796  -28.8405  -48.2356 H         1 UNK         0.0865 
     70 H70        19.1086  -28.6506  -48.1251 H         1 UNK         0.0865 
     71 H71        20.0534  -30.4613  -46.9022 H         1 UNK         0.1346 
     72 H72        18.0055  -32.2099  -43.5623 H         1 UNK         0.1412 
     73 H73        16.2747  -28.8821  -45.6310 H         1 UNK         0.1426 
     74 H74        15.3901  -31.5066  -43.4949 H         1 UNK         0.0716 
     75 H75        15.0967  -29.8119  -43.7976 H         1 UNK         0.0716 
     76 H76        16.3928  -27.8939  -42.6705 H         1 UNK         0.0695 
     77 H77        16.8393  -27.9011  -40.9912 H         1 UNK         0.0695 
     78 H78        18.6270  -28.8446  -43.2951 H         1 UNK         0.0983 
     79 H79        19.1516  -26.7848  -43.6489 H         1 UNK         0.3095 
     80 H80        18.9624  -23.8448  -42.2776 H         1 UNK         0.0454 
     81 H81        21.7456  -24.9702  -41.6528 H         1 UNK         0.0851 
     82 H82        21.3982  -23.2817  -42.0276 H         1 UNK         0.0851 
     83 H83        20.7337  -24.0101  -40.5802 H         1 UNK         0.0851 
     84 H84        21.0202  -24.9660  -44.0373 H         1 UNK         0.2976 
     85 H85        18.2035  -29.0706  -39.9016 H         1 UNK         0.3116 
     86 H86        20.0588  -31.0312  -39.5386 H         1 UNK         0.0646 
     87 H87        19.7883  -30.6028  -37.0899 H         1 UNK         0.0847 
     88 H88        18.2528  -30.5484  -37.9363 H         1 UNK         0.0847 
     89 H89        19.0419  -29.0498  -37.4404 H         1 UNK         0.0847 
     90 H90        20.7455  -27.5709  -39.2580 H         1 UNK         0.3040 
     91 H91        23.4542  -27.9775  -38.2053 H         1 UNK         0.1015 
     92 H92        22.1041  -26.0485  -37.4449 H         1 UNK         0.0786 
     93 H93        21.9571  -25.4577  -39.0980 H         1 UNK         0.0786 
     94 H94        23.5250  -25.4802  -38.3032 H         1 UNK         0.0786 
     95 H95        22.1444  -28.1872  -41.3790 H         1 UNK         0.3172 
     96 H96        24.3656  -26.8559  -42.7671 H         1 UNK         0.0595 
     97 H97        22.0115  -26.7333  -43.6249 H         1 UNK         0.0839 
     98 H98        22.0244  -28.4728  -43.8989 H         1 UNK         0.0839 
     99 H99        23.1236  -27.4368  -44.7892 H         1 UNK         0.0839 
    100 H100       25.8804  -28.2508  -41.5425 H         1 UNK         0.2998 
    101 H101       27.5010  -29.7655  -41.4551 H         1 UNK         0.0822 
    102 H102       27.8198  -29.3318  -43.9011 H         1 UNK         0.0787 
    103 H103       28.2561  -30.9726  -43.4543 H         1 UNK         0.0787 
    104 H104       26.7364  -30.6710  -44.2791 H         1 UNK         0.0787 
    105 H105       25.2215  -30.3326  -40.1538 H         1 UNK         0.3055 
    106 H106       24.3192  -31.8548  -38.8274 H         1 UNK         0.1106 
    107 H107       25.6360  -33.8453  -38.2280 H         1 UNK         0.0828 
    108 H108       26.6343  -33.6699  -39.6616 H         1 UNK         0.0828 
    109 H109       26.6874  -32.4498  -38.3900 H         1 UNK         0.0828 
    110 H110       22.6961  -31.6777  -40.8239 H         1 UNK         0.2931 
    111 H111       22.0053  -34.2626  -41.9737 H         1 UNK         0.0412 
    112 H112       20.3912  -34.1514  -38.2486 H         1 UNK         0.3472 
    113 H113       21.5799  -32.9683  -38.7347 H         1 UNK         0.3472 
    114 H114       20.3097  -31.7342  -41.7475 H         1 UNK         0.0970 
    115 H115       19.8214  -33.1910  -42.5544 H         1 UNK         0.0970 
    116 H116       20.7937  -32.5770  -46.0367 H         1 UNK         0.0612 
    117 H117       19.8547  -33.4609  -44.8698 H         1 UNK         0.0612 
@<TRIPOS>BOND
     1    1    2 1    
     2    1   62 1    
     3    1   63 1    
     4    1   64 1    
     5    2    3 2    
     6    2    4 am   BACKBONE|DICT|INTERRES
     7    4    5 1    
     8    4   65 1    
     9    5    6 1    
    10    5   25 1    
    11    5   66 1    
    12    6    7 1    
    13    6   67 1    
    14    6   68 1    
    15    7    8 1    
    16    8    9 1    
    17    8   69 1    
    18    8   70 1    
    19    9   10 ar   
    20    9   14 ar   
    21   10   11 ar   
    22   10   71 1    
    23   11   12 ar   
    24   11   61 1    
    25   12   13 ar   
    26   12   72 1    
    27   13   14 ar   
    28   13   15 1    
    29   14   73 1    
    30   15   16 1    
    31   15   74 1    
    32   15   75 1    
    33   16   17 1    
    34   17   18 1    
    35   17   76 1    
    36   17   77 1    
    37   18   19 1    
    38   18   27 1    
    39   18   78 1    
    40   19   20 am   BACKBONE|DICT|INTERRES
    41   19   79 1    
    42   20   21 2    
    43   20   22 1    
    44   22   23 1    
    45   22   24 1    
    46   22   80 1    
    47   23   81 1    
    48   23   82 1    
    49   23   83 1    
    50   24   25 am   BACKBONE|DICT|INTERRES
    51   24   84 1    
    52   25   26 2    
    53   27   28 2    
    54   27   29 am   BACKBONE|DICT|INTERRES
    55   29   30 1    
    56   29   85 1    
    57   30   31 1    
    58   30   32 1    
    59   30   86 1    
    60   31   87 1    
    61   31   88 1    
    62   31   89 1    
    63   32   33 2    
    64   32   34 am   BACKBONE|DICT|INTERRES
    65   34   35 1    
    66   34   90 1    
    67   35   36 1    
    68   35   37 1    
    69   35   91 1    
    70   36   92 1    
    71   36   93 1    
    72   36   94 1    
    73   37   38 2    
    74   37   39 am   BACKBONE|DICT|INTERRES
    75   39   40 1    
    76   39   95 1    
    77   40   41 1    
    78   40   42 1    
    79   40   96 1    
    80   41   97 1    
    81   41   98 1    
    82   41   99 1    
    83   42   43 2    
    84   42   44 am   BACKBONE|DICT|INTERRES
    85   44   45 1    
    86   44  100 1    
    87   45   46 1    
    88   45   47 1    
    89   45  101 1    
    90   46  102 1    
    91   46  103 1    
    92   46  104 1    
    93   47   48 2    
    94   47   49 am   BACKBONE|DICT|INTERRES
    95   49   50 1    
    96   49  105 1    
    97   50   51 1    
    98   50   52 1    
    99   50  106 1    
   100   51  107 1    
   101   51  108 1    
   102   51  109 1    
   103   52   53 2    
   104   52   54 am   BACKBONE|DICT|INTERRES
   105   54   55 1    
   106   54  110 1    
   107   55   56 1    
   108   55   59 1    
   109   55  111 1    
   110   56   57 am   BACKBONE|DICT|INTERRES
   111   56   58 2    
   112   57  112 1    
   113   57  113 1    
   114   59   60 1    
   115   59  114 1    
   116   59  115 1    
   117   60   61 1    
   118   61  116 1    
   119   61  117 1    
@<TRIPOS>SUBSTRUCTURE
     1 UNK         1 GROUP             0       ****    0 ROOT    
