@<TRIPOS>MOLECULE
3R8
117   119    1
SMALL
USER_CHARGES


@<TRIPOS>ATOM
      1 CA         19.0644  -24.0205  -39.0834 C.3       0 UNK        -0.2013 
      2 C          18.4584  -24.7163  -40.2935 C.2       0 UNK         0.4866 
      3 O          17.2364  -24.7178  -40.4426 O.2       0 UNK        -0.5176 
      4 N          19.2989  -25.3015  -41.1528 N.am      1 UNK        -0.4884 
      5 CA         18.9037  -26.0086  -42.3718 C.3       1 UNK         0.0853 
      6 C6         18.9415  -27.5502  -42.1905 C.3       10 UNK        -0.0849 
      7 S7         17.3789  -28.2235  -41.5378 S.3       10 UNK        -0.2776 
      8 C8         16.4727  -28.6156  -43.0751 C.3       10 UNK         0.0316 
      9 C9         17.0039  -29.8639  -43.7713 C.ar      10 UNK        -0.0863 
     10 C10        16.5535  -31.1292  -43.3825 C.ar      10 UNK        -0.1009 
     11 C11        17.0276  -32.2808  -44.0194 C.ar      10 UNK        -0.0712 
     12 C12        17.9688  -32.1622  -45.0464 C.ar      10 UNK        -0.0894 
     13 C13        18.4332  -30.9044  -45.4401 C.ar      10 UNK        -0.0745 
     14 C14        17.9270  -29.7588  -44.8174 C.ar      10 UNK        -0.0972 
     15 C15        19.4757  -30.7866  -46.5442 C.3       10 UNK         0.0209 
     16 S16        21.1658  -31.1274  -45.9453 S.3       10 UNK        -0.2568 
     17 C17        21.5071  -29.6684  -44.9083 C.3       10 UNK        -0.0983 
     18 CA         22.2797  -28.5579  -45.6789 C.3       3 UNK         0.0876 
     19 N          21.6221  -27.2612  -45.5555 N.am      3 UNK        -0.4424 
     20 C          20.7040  -26.7580  -46.3832 C.2       2 UNK         0.4918 
     21 O          20.3009  -27.3340  -47.3942 O.2       2 UNK        -0.4875 
     22 CA         20.1018  -25.4010  -45.9704 C.3       2 UNK         0.0481 
     23 CB         19.1950  -24.7988  -47.0596 C.3       2 UNK        -0.1831 
     24 N          19.3294  -25.5524  -44.7351 N.am      2 UNK        -0.4498 
     25 C          19.8550  -25.5947  -43.5034 C.2       1 UNK         0.5027 
     26 O          21.0492  -25.4009  -43.2661 O.2       1 UNK        -0.4969 
     27 C          23.7205  -28.3977  -45.1688 C.2       3 UNK         0.5005 
     28 O          24.0076  -27.4460  -44.4360 O.2       3 UNK        -0.5279 
     29 N          24.5963  -29.3469  -45.5277 N.am      4 UNK        -0.4463 
     30 CA         26.0263  -29.3547  -45.1831 C.3       4 UNK         0.0283 
     31 CB         26.7044  -30.5536  -45.8660 C.3       4 UNK        -0.1875 
     32 C          26.3279  -29.3601  -43.6713 C.2       4 UNK         0.4949 
     33 O          27.3948  -28.8988  -43.2665 O.2       4 UNK        -0.5039 
     34 N          25.3816  -29.8612  -42.8672 N.am      5 UNK        -0.4663 
     35 CA         25.4349  -29.8595  -41.4046 C.3       5 UNK         0.0242 
     36 CB         24.4613  -30.9276  -40.8814 C.3       5 UNK        -0.1982 
     37 C          25.1173  -28.4919  -40.7684 C.2       5 UNK         0.5017 
     38 O          25.3280  -28.3437  -39.5650 O.2       5 UNK        -0.5012 
     39 N          24.5814  -27.5388  -41.5494 N.am      6 UNK        -0.4439 
     40 CA         24.1200  -26.1891  -41.1794 C.3       6 UNK         0.0297 
     41 CB         25.2541  -25.3455  -40.5653 C.3       6 UNK        -0.2006 
     42 C          22.8537  -26.1452  -40.2999 C.2       6 UNK         0.4892 
     43 O          22.1112  -25.1664  -40.3739 O.2       6 UNK        -0.5089 
     44 N          22.6005  -27.1924  -39.5127 N.am      7 UNK        -0.4243 
     45 CA         21.3741  -27.4331  -38.7659 C.3       7 UNK         0.0196 
     46 CB         21.5264  -26.9332  -37.3203 C.3       7 UNK        -0.2007 
     47 C          21.1072  -28.9387  -38.8211 C.2       7 UNK         0.5020 
     48 O          22.0486  -29.7211  -38.6706 O.2       7 UNK        -0.5147 
     49 N          19.8382  -29.3051  -39.0423 N.am      8 UNK        -0.4734 
     50 CA         19.3433  -30.6627  -39.3081 C.3       8 UNK         0.0238 
     51 CB         19.5940  -31.5908  -38.0970 C.3       8 UNK        -0.1912 
     52 C          19.8735  -31.2493  -40.6357 C.2       8 UNK         0.5038 
     53 O          20.5041  -30.5447  -41.4279 O.2       8 UNK        -0.5046 
     54 N          19.5635  -32.5292  -40.8693 N.am      9 UNK        -0.4200 
     55 CA         19.8552  -33.2518  -42.1176 C.3       9 UNK         0.0839 
     56 C          21.3431  -33.6649  -42.3106 C.2       9 UNK         0.5513 
     57 N          22.2130  -33.5051  -41.3211 N.am      9 UNK        -0.7519 
     58 O          21.7116  -34.1539  -43.3750 O.2       9 UNK        -0.4960 
     59 C59        18.9155  -34.4751  -42.3150 C.3       10 UNK        -0.0876 
     60 S60        17.1525  -34.1396  -41.9644 S.3       10 UNK        -0.2414 
     61 C61        16.5192  -33.6517  -43.5984 C.3       10 UNK         0.0169 
     62 H62        20.1507  -23.9687  -39.1405 H         1 UNK         0.0903 
     63 H63        18.6840  -23.0025  -39.0055 H         1 UNK         0.0903 
     64 H64        18.7980  -24.5550  -38.1720 H         1 UNK         0.0903 
     65 H65        20.3068  -25.2141  -41.0191 H         1 UNK         0.3096 
     66 H66        17.8995  -25.6975  -42.6691 H         1 UNK         0.1121 
     67 H67        19.7563  -27.8375  -41.5246 H         1 UNK         0.0849 
     68 H68        19.1609  -28.0654  -43.1233 H         1 UNK         0.0849 
     69 H69        16.5041  -27.7583  -43.7488 H         1 UNK         0.0865 
     70 H70        15.4197  -28.7608  -42.8287 H         1 UNK         0.0865 
     71 H71        15.8349  -31.2205  -42.5793 H         1 UNK         0.1346 
     72 H72        18.3523  -33.0489  -45.5324 H         1 UNK         0.1412 
     73 H73        18.2686  -28.7850  -45.1396 H         1 UNK         0.1426 
     74 H74        19.4437  -29.7974  -47.0012 H         1 UNK         0.0716 
     75 H75        19.2388  -31.4934  -47.3407 H         1 UNK         0.0716 
     76 H76        22.0435  -30.0121  -44.0209 H         1 UNK         0.0695 
     77 H77        20.5662  -29.2903  -44.5152 H         1 UNK         0.0695 
     78 H78        22.3462  -28.8030  -46.7416 H         1 UNK         0.0983 
     79 H79        21.9348  -26.7030  -44.7666 H         1 UNK         0.3095 
     80 H80        20.9271  -24.7057  -45.8023 H         1 UNK         0.0454 
     81 H81        18.3384  -25.4381  -47.2765 H         1 UNK         0.0851 
     82 H82        19.7444  -24.6635  -47.9922 H         1 UNK         0.0851 
     83 H83        18.8167  -23.8202  -46.7640 H         1 UNK         0.0851 
     84 H84        18.3447  -25.7433  -44.8529 H         1 UNK         0.2976 
     85 H85        24.2695  -30.1091  -46.1060 H         1 UNK         0.3116 
     86 H86        26.4621  -28.4403  -45.5911 H         1 UNK         0.0646 
     87 H87        26.2886  -31.5020  -45.5234 H         1 UNK         0.0847 
     88 H88        27.7740  -30.5717  -45.6516 H         1 UNK         0.0847 
     89 H89        26.5960  -30.5093  -46.9498 H         1 UNK         0.0847 
     90 H90        24.5442  -30.2320  -43.2918 H         1 UNK         0.3040 
     91 H91        26.4452  -30.1326  -41.0916 H         1 UNK         0.1015 
     92 H92        24.7179  -31.9165  -41.2607 H         1 UNK         0.0786 
     93 H93        23.4305  -30.7116  -41.1680 H         1 UNK         0.0786 
     94 H94        24.4868  -30.9840  -39.7920 H         1 UNK         0.0786 
     95 H95        24.4463  -27.7593  -42.5329 H         1 UNK         0.3172 
     96 H96        23.8424  -25.7185  -42.1242 H         1 UNK         0.0595 
     97 H97        25.5633  -25.7217  -39.5899 H         1 UNK         0.0839 
     98 H98        24.9333  -24.3126  -40.4235 H         1 UNK         0.0839 
     99 H99        26.1304  -25.3267  -41.2131 H         1 UNK         0.0839 
    100 H100       23.2723  -27.9528  -39.4837 H         1 UNK         0.2998 
    101 H101       20.5432  -26.9092  -39.2405 H         1 UNK         0.0822 
    102 H102       21.7163  -25.8600  -37.2918 H         1 UNK         0.0787 
    103 H103       20.6182  -27.1192  -36.7457 H         1 UNK         0.0787 
    104 H104       22.3488  -27.4333  -36.8070 H         1 UNK         0.0787 
    105 H105       19.1513  -28.5756  -39.1760 H         1 UNK         0.3055 
    106 H106       18.2639  -30.5636  -39.4360 H         1 UNK         0.1106 
    107 H107       19.0245  -32.5170  -38.1771 H         1 UNK         0.0828 
    108 H108       19.2896  -31.1145  -37.1650 H         1 UNK         0.0828 
    109 H109       20.6458  -31.8628  -38.0025 H         1 UNK         0.0828 
    110 H110       19.0343  -33.0428  -40.1812 H         1 UNK         0.2931 
    111 H111       19.6514  -32.5539  -42.9299 H         1 UNK         0.0412 
    112 H112       21.9231  -33.0918  -40.4498 H         1 UNK         0.3472 
    113 H113       23.1697  -33.7894  -41.4556 H         1 UNK         0.3472 
    114 H114       19.2228  -35.2904  -41.6574 H         1 UNK         0.0970 
    115 H115       19.0082  -34.8636  -43.3310 H         1 UNK         0.0970 
    116 H116       16.7819  -34.4131  -44.3344 H         1 UNK         0.0612 
    117 H117       15.4294  -33.6294  -43.5581 H         1 UNK         0.0612 
@<TRIPOS>BOND
     1    1    2 1    
     2    1   62 1    
     3    1   63 1    
     4    1   64 1    
     5    2    3 2    
     6    2    4 am   BACKBONE|DICT|INTERRES
     7    4    5 1    
     8    4   65 1    
     9    5    6 1    
    10    5   25 1    
    11    5   66 1    
    12    6    7 1    
    13    6   67 1    
    14    6   68 1    
    15    7    8 1    
    16    8    9 1    
    17    8   69 1    
    18    8   70 1    
    19    9   10 ar   
    20    9   14 ar   
    21   10   11 ar   
    22   10   71 1    
    23   11   12 ar   
    24   11   61 1    
    25   12   13 ar   
    26   12   72 1    
    27   13   14 ar   
    28   13   15 1    
    29   14   73 1    
    30   15   16 1    
    31   15   74 1    
    32   15   75 1    
    33   16   17 1    
    34   17   18 1    
    35   17   76 1    
    36   17   77 1    
    37   18   19 1    
    38   18   27 1    
    39   18   78 1    
    40   19   20 am   BACKBONE|DICT|INTERRES
    41   19   79 1    
    42   20   21 2    
    43   20   22 1    
    44   22   23 1    
    45   22   24 1    
    46   22   80 1    
    47   23   81 1    
    48   23   82 1    
    49   23   83 1    
    50   24   25 am   BACKBONE|DICT|INTERRES
    51   24   84 1    
    52   25   26 2    
    53   27   28 2    
    54   27   29 am   BACKBONE|DICT|INTERRES
    55   29   30 1    
    56   29   85 1    
    57   30   31 1    
    58   30   32 1    
    59   30   86 1    
    60   31   87 1    
    61   31   88 1    
    62   31   89 1    
    63   32   33 2    
    64   32   34 am   BACKBONE|DICT|INTERRES
    65   34   35 1    
    66   34   90 1    
    67   35   36 1    
    68   35   37 1    
    69   35   91 1    
    70   36   92 1    
    71   36   93 1    
    72   36   94 1    
    73   37   38 2    
    74   37   39 am   BACKBONE|DICT|INTERRES
    75   39   40 1    
    76   39   95 1    
    77   40   41 1    
    78   40   42 1    
    79   40   96 1    
    80   41   97 1    
    81   41   98 1    
    82   41   99 1    
    83   42   43 2    
    84   42   44 am   BACKBONE|DICT|INTERRES
    85   44   45 1    
    86   44  100 1    
    87   45   46 1    
    88   45   47 1    
    89   45  101 1    
    90   46  102 1    
    91   46  103 1    
    92   46  104 1    
    93   47   48 2    
    94   47   49 am   BACKBONE|DICT|INTERRES
    95   49   50 1    
    96   49  105 1    
    97   50   51 1    
    98   50   52 1    
    99   50  106 1    
   100   51  107 1    
   101   51  108 1    
   102   51  109 1    
   103   52   53 2    
   104   52   54 am   BACKBONE|DICT|INTERRES
   105   54   55 1    
   106   54  110 1    
   107   55   56 1    
   108   55   59 1    
   109   55  111 1    
   110   56   57 am   BACKBONE|DICT|INTERRES
   111   56   58 2    
   112   57  112 1    
   113   57  113 1    
   114   59   60 1    
   115   59  114 1    
   116   59  115 1    
   117   60   61 1    
   118   61  116 1    
   119   61  117 1    
@<TRIPOS>SUBSTRUCTURE
     1 UNK         1 GROUP             0       ****    0 ROOT    
