@<TRIPOS>MOLECULE
3R8
117   119    1
SMALL
USER_CHARGES


@<TRIPOS>ATOM
      1 CA         17.5890  -28.9011  -41.5118 C.3       0 UNK        -0.2013 
      2 C          17.5092  -27.9393  -42.6850 C.2       0 UNK         0.4866 
      3 O          18.5169  -27.6877  -43.3432 O.2       0 UNK        -0.5176 
      4 N          16.3160  -27.3850  -42.9389 N.am      1 UNK        -0.4884 
      5 CA         16.0186  -26.4188  -44.0069 C.3       1 UNK         0.0853 
      6 C6         16.0923  -27.0394  -45.4328 C.3       10 UNK        -0.0849 
      7 S7         14.9706  -28.4653  -45.6320 S.3       10 UNK        -0.2776 
      8 C8         15.8686  -29.4790  -46.8526 C.3       10 UNK         0.0316 
      9 C9         17.1499  -30.0807  -46.2884 C.ar      10 UNK        -0.0863 
     10 C10        17.0886  -31.1470  -45.3866 C.ar      10 UNK        -0.1009 
     11 C11        18.2604  -31.7268  -44.8910 C.ar      10 UNK        -0.0712 
     12 C12        19.5022  -31.2207  -45.2900 C.ar      10 UNK        -0.0894 
     13 C13        19.5787  -30.1586  -46.1976 C.ar      10 UNK        -0.0745 
     14 C14        18.3978  -29.5984  -46.6966 C.ar      10 UNK        -0.0972 
     15 C15        20.9340  -29.6625  -46.6912 C.3       10 UNK         0.0209 
     16 S16        21.1877  -27.8776  -46.4255 S.3       10 UNK        -0.2568 
     17 C17        21.6036  -27.8333  -44.6515 C.3       10 UNK        -0.0983 
     18 CA         21.6525  -26.3834  -44.0994 C.3       3 UNK         0.0876 
     19 N          20.3687  -25.6915  -44.2626 N.am      3 UNK        -0.4424 
     20 C          20.2147  -24.3714  -44.4412 C.2       2 UNK         0.4918 
     21 O          21.1580  -23.5800  -44.3937 O.2       2 UNK        -0.4875 
     22 CA         18.8002  -23.8245  -44.7181 C.3       2 UNK         0.0481 
     23 CB         18.7724  -23.0506  -46.0476 C.3       2 UNK        -0.1831 
     24 N          17.7952  -24.8874  -44.7765 N.am      2 UNK        -0.4498 
     25 C          16.8851  -25.1495  -43.8286 C.2       1 UNK         0.5027 
     26 O          16.7267  -24.4572  -42.8206 O.2       1 UNK        -0.4969 
     27 C          22.1257  -26.3163  -42.6309 C.2       3 UNK         0.5005 
     28 O          22.3700  -27.3487  -42.0050 O.2       3 UNK        -0.5279 
     29 N          22.2377  -25.0911  -42.0981 N.am      4 UNK        -0.4463 
     30 CA         22.6921  -24.8060  -40.7340 C.3       4 UNK         0.0283 
     31 CB         22.3267  -23.3588  -40.3681 C.3       4 UNK        -0.1875 
     32 C          24.1993  -25.0466  -40.5423 C.2       4 UNK         0.4949 
     33 O          24.6175  -25.4329  -39.4514 O.2       4 UNK        -0.5039 
     34 N          24.9855  -24.8351  -41.6058 N.am      5 UNK        -0.4663 
     35 CA         26.4320  -25.0627  -41.6502 C.3       5 UNK         0.0242 
     36 CB         27.0826  -23.9501  -42.4944 C.3       5 UNK        -0.1982 
     37 C          26.7446  -26.4740  -42.1832 C.2       5 UNK         0.5017 
     38 O          27.5436  -26.6227  -43.1097 O.2       5 UNK        -0.5012 
     39 N          26.0890  -27.4852  -41.6061 N.am      6 UNK        -0.4439 
     40 CA         26.1996  -28.8977  -41.9570 C.3       6 UNK         0.0297 
     41 CB         25.3500  -29.1942  -43.2093 C.3       6 UNK        -0.2006 
     42 C          25.7398  -29.7410  -40.7599 C.2       6 UNK         0.4892 
     43 O          25.2468  -29.1904  -39.7706 O.2       6 UNK        -0.5089 
     44 N          25.9057  -31.0645  -40.8748 N.am      7 UNK        -0.4243 
     45 CA         25.3979  -32.0516  -39.9190 C.3       7 UNK         0.0196 
     46 CB         26.0293  -33.4188  -40.2316 C.3       7 UNK        -0.2007 
     47 C          23.8612  -32.1462  -39.9572 C.2       7 UNK         0.5020 
     48 O          23.2487  -31.8364  -40.9823 O.2       7 UNK        -0.5147 
     49 N          23.2706  -32.5945  -38.8423 N.am      8 UNK        -0.4734 
     50 CA         21.8261  -32.7913  -38.6864 C.3       8 UNK         0.0238 
     51 CB         21.5193  -33.1176  -37.2152 C.3       8 UNK        -0.1912 
     52 C          21.2762  -33.8963  -39.6069 C.2       8 UNK         0.5038 
     53 O          21.9780  -34.8749  -39.8773 O.2       8 UNK        -0.5046 
     54 N          20.0261  -33.7176  -40.0482 N.am      9 UNK        -0.4200 
     55 CA         19.2893  -34.6414  -40.9225 C.3       9 UNK         0.0839 
     56 C          19.0520  -36.0316  -40.2713 C.2       9 UNK         0.5513 
     57 N          19.1039  -37.1004  -41.0542 N.am      9 UNK        -0.7519 
     58 O          18.7749  -36.1421  -39.0785 O.2       9 UNK        -0.4960 
     59 C59        17.9422  -34.0282  -41.3863 C.3       10 UNK        -0.0876 
     60 S60        18.1369  -32.4141  -42.2168 S.3       10 UNK        -0.2414 
     61 C61        18.1813  -32.9258  -43.9581 C.3       10 UNK         0.0169 
     62 H62        16.7534  -29.6005  -41.5232 H         1 UNK         0.0903 
     63 H63        18.5126  -29.4779  -41.5574 H         1 UNK         0.0903 
     64 H64        17.5764  -28.3542  -40.5697 H         1 UNK         0.0903 
     65 H65        15.5332  -27.6163  -42.3433 H         1 UNK         0.3096 
     66 H66        14.9894  -26.0930  -43.8468 H         1 UNK         0.1121 
     67 H67        17.1106  -27.3571  -45.6574 H         1 UNK         0.0849 
     68 H68        15.8204  -26.3003  -46.1890 H         1 UNK         0.0849 
     69 H69        16.0786  -28.8750  -47.7368 H         1 UNK         0.0865 
     70 H70        15.2143  -30.2851  -47.1877 H         1 UNK         0.0865 
     71 H71        16.1261  -31.5321  -45.0783 H         1 UNK         0.1346 
     72 H72        20.4086  -31.6716  -44.9095 H         1 UNK         0.1412 
     73 H73        18.4554  -28.7866  -47.4089 H         1 UNK         0.1426 
     74 H74        21.0059  -29.8660  -47.7604 H         1 UNK         0.0716 
     75 H75        21.7502  -30.2131  -46.2208 H         1 UNK         0.0716 
     76 H76        22.5716  -28.3212  -44.5298 H         1 UNK         0.0695 
     77 H77        20.8827  -28.4386  -44.0998 H         1 UNK         0.0695 
     78 H78        22.4072  -25.8507  -44.6827 H         1 UNK         0.0983 
     79 H79        19.5517  -26.2917  -44.1817 H         1 UNK         0.3095 
     80 H80        18.5672  -23.1229  -43.9150 H         1 UNK         0.0454 
     81 H81        19.0396  -23.6870  -46.8921 H         1 UNK         0.0851 
     82 H82        19.4761  -22.2172  -46.0325 H         1 UNK         0.0851 
     83 H83        17.7848  -22.6322  -46.2418 H         1 UNK         0.0851 
     84 H84        17.8708  -25.5237  -45.5571 H         1 UNK         0.2976 
     85 H85        21.9953  -24.3003  -42.6869 H         1 UNK         0.3116 
     86 H86        22.1612  -25.4740  -40.0521 H         1 UNK         0.0646 
     87 H87        22.6330  -23.1259  -39.3473 H         1 UNK         0.0847 
     88 H88        21.2507  -23.1937  -40.4271 H         1 UNK         0.0847 
     89 H89        22.8140  -22.6384  -41.0265 H         1 UNK         0.0847 
     90 H90        24.5482  -24.5518  -42.4707 H         1 UNK         0.3040 
     91 H91        26.8500  -25.0019  -40.6427 H         1 UNK         0.1015 
     92 H92        26.8649  -22.9636  -42.0845 H         1 UNK         0.0786 
     93 H93        26.7334  -23.9686  -43.5276 H         1 UNK         0.0786 
     94 H94        28.1681  -24.0572  -42.5138 H         1 UNK         0.0786 
     95 H95        25.4808  -27.3007  -40.8146 H         1 UNK         0.3172 
     96 H96        27.2467  -29.1350  -42.1568 H         1 UNK         0.0595 
     97 H97        24.2890  -29.0400  -43.0113 H         1 UNK         0.0839 
     98 H98        25.4710  -30.2269  -43.5373 H         1 UNK         0.0839 
     99 H99        25.6307  -28.5576  -44.0484 H         1 UNK         0.0839 
    100 H100       26.2947  -31.4298  -41.7317 H         1 UNK         0.2998 
    101 H101       25.7028  -31.7434  -38.9164 H         1 UNK         0.0822 
    102 H102       27.1173  -33.3770  -40.1755 H         1 UNK         0.0787 
    103 H103       25.6986  -34.1759  -39.5192 H         1 UNK         0.0787 
    104 H104       25.7562  -33.7703  -41.2276 H         1 UNK         0.0787 
    105 H105       23.8496  -32.8665  -38.0608 H         1 UNK         0.3055 
    106 H106       21.3364  -31.8496  -38.9458 H         1 UNK         0.1106 
    107 H107       20.4471  -33.2429  -37.0571 H         1 UNK         0.0828 
    108 H108       22.0035  -34.0422  -36.8980 H         1 UNK         0.0828 
    109 H109       21.8508  -32.3185  -36.5518 H         1 UNK         0.0828 
    110 H110       19.5184  -32.8933  -39.7648 H         1 UNK         0.2931 
    111 H111       19.9099  -34.7904  -41.8087 H         1 UNK         0.0412 
    112 H112       19.3213  -37.0189  -42.0356 H         1 UNK         0.3472 
    113 H113       18.9355  -38.0105  -40.6535 H         1 UNK         0.3472 
    114 H114       17.2778  -33.8856  -40.5317 H         1 UNK         0.0970 
    115 H115       17.4189  -34.7131  -42.0565 H         1 UNK         0.0970 
    116 H116       19.0369  -33.5837  -44.1180 H         1 UNK         0.0612 
    117 H117       17.2912  -33.5142  -44.1864 H         1 UNK         0.0612 
@<TRIPOS>BOND
     1    1    2 1    
     2    1   62 1    
     3    1   63 1    
     4    1   64 1    
     5    2    3 2    
     6    2    4 am   BACKBONE|DICT|INTERRES
     7    4    5 1    
     8    4   65 1    
     9    5    6 1    
    10    5   25 1    
    11    5   66 1    
    12    6    7 1    
    13    6   67 1    
    14    6   68 1    
    15    7    8 1    
    16    8    9 1    
    17    8   69 1    
    18    8   70 1    
    19    9   10 ar   
    20    9   14 ar   
    21   10   11 ar   
    22   10   71 1    
    23   11   12 ar   
    24   11   61 1    
    25   12   13 ar   
    26   12   72 1    
    27   13   14 ar   
    28   13   15 1    
    29   14   73 1    
    30   15   16 1    
    31   15   74 1    
    32   15   75 1    
    33   16   17 1    
    34   17   18 1    
    35   17   76 1    
    36   17   77 1    
    37   18   19 1    
    38   18   27 1    
    39   18   78 1    
    40   19   20 am   BACKBONE|DICT|INTERRES
    41   19   79 1    
    42   20   21 2    
    43   20   22 1    
    44   22   23 1    
    45   22   24 1    
    46   22   80 1    
    47   23   81 1    
    48   23   82 1    
    49   23   83 1    
    50   24   25 am   BACKBONE|DICT|INTERRES
    51   24   84 1    
    52   25   26 2    
    53   27   28 2    
    54   27   29 am   BACKBONE|DICT|INTERRES
    55   29   30 1    
    56   29   85 1    
    57   30   31 1    
    58   30   32 1    
    59   30   86 1    
    60   31   87 1    
    61   31   88 1    
    62   31   89 1    
    63   32   33 2    
    64   32   34 am   BACKBONE|DICT|INTERRES
    65   34   35 1    
    66   34   90 1    
    67   35   36 1    
    68   35   37 1    
    69   35   91 1    
    70   36   92 1    
    71   36   93 1    
    72   36   94 1    
    73   37   38 2    
    74   37   39 am   BACKBONE|DICT|INTERRES
    75   39   40 1    
    76   39   95 1    
    77   40   41 1    
    78   40   42 1    
    79   40   96 1    
    80   41   97 1    
    81   41   98 1    
    82   41   99 1    
    83   42   43 2    
    84   42   44 am   BACKBONE|DICT|INTERRES
    85   44   45 1    
    86   44  100 1    
    87   45   46 1    
    88   45   47 1    
    89   45  101 1    
    90   46  102 1    
    91   46  103 1    
    92   46  104 1    
    93   47   48 2    
    94   47   49 am   BACKBONE|DICT|INTERRES
    95   49   50 1    
    96   49  105 1    
    97   50   51 1    
    98   50   52 1    
    99   50  106 1    
   100   51  107 1    
   101   51  108 1    
   102   51  109 1    
   103   52   53 2    
   104   52   54 am   BACKBONE|DICT|INTERRES
   105   54   55 1    
   106   54  110 1    
   107   55   56 1    
   108   55   59 1    
   109   55  111 1    
   110   56   57 am   BACKBONE|DICT|INTERRES
   111   56   58 2    
   112   57  112 1    
   113   57  113 1    
   114   59   60 1    
   115   59  114 1    
   116   59  115 1    
   117   60   61 1    
   118   61  116 1    
   119   61  117 1    
@<TRIPOS>SUBSTRUCTURE
     1 UNK         1 GROUP             0       ****    0 ROOT    
