@<TRIPOS>MOLECULE
3R8
117   119    1
SMALL
USER_CHARGES


@<TRIPOS>ATOM
      1 CA         16.4021  -22.4079  -46.7223 C.3       0 UNK        -0.2013 
      2 C          16.3926  -23.2729  -45.4702 C.2       0 UNK         0.4866 
      3 O          16.4051  -22.7345  -44.3630 O.2       0 UNK        -0.5176 
      4 N          16.3617  -24.6019  -45.6492 N.am      1 UNK        -0.4884 
      5 CA         16.4050  -25.6451  -44.6128 C.3       1 UNK         0.0853 
      6 C6         15.2709  -25.4905  -43.5560 C.3       10 UNK        -0.0849 
      7 S7         14.8856  -26.9603  -42.5375 S.3       10 UNK        -0.2776 
      8 C8         14.3086  -28.1929  -43.7498 C.3       10 UNK         0.0316 
      9 C9         15.4259  -29.1463  -44.1555 C.ar      10 UNK        -0.0863 
     10 C10        15.9558  -30.0411  -43.2204 C.ar      10 UNK        -0.1009 
     11 C11        16.9678  -30.9353  -43.5823 C.ar      10 UNK        -0.0712 
     12 C12        17.4590  -30.9248  -44.8909 C.ar      10 UNK        -0.0894 
     13 C13        16.9465  -30.0266  -45.8311 C.ar      10 UNK        -0.0745 
     14 C14        15.9174  -29.1556  -45.4639 C.ar      10 UNK        -0.0972 
     15 C15        17.4894  -29.9962  -47.2505 C.3       10 UNK         0.0209 
     16 S16        18.7772  -28.7231  -47.4394 S.3       10 UNK        -0.2568 
     17 C17        20.2609  -29.5890  -46.8205 C.3       10 UNK        -0.0983 
     18 CA         21.0224  -28.7964  -45.7242 C.3       3 UNK         0.0876 
     19 N          20.1543  -28.4894  -44.5727 N.am      3 UNK        -0.4424 
     20 C          20.3791  -27.5820  -43.6122 C.2       2 UNK         0.4918 
     21 O          21.4279  -26.9417  -43.5113 O.2       2 UNK        -0.4875 
     22 CA         19.2366  -27.3638  -42.6047 C.3       2 UNK         0.0481 
     23 CB         19.6252  -26.4109  -41.4552 C.3       2 UNK        -0.1831 
     24 N          18.0020  -26.9177  -43.2583 N.am      2 UNK        -0.4498 
     25 C          17.8196  -25.8197  -44.0084 C.2       1 UNK         0.5027 
     26 O          18.7103  -25.0012  -44.2509 O.2       1 UNK        -0.4969 
     27 C          22.3842  -29.4618  -45.3749 C.2       3 UNK         0.5005 
     28 O          22.9145  -30.2310  -46.1790 O.2       3 UNK        -0.5279 
     29 N          22.9444  -29.1495  -44.2025 N.am      4 UNK        -0.4463 
     30 CA         24.2833  -29.5267  -43.7478 C.3       4 UNK         0.0283 
     31 CB         24.2440  -30.9143  -43.0860 C.3       4 UNK        -0.1875 
     32 C          24.9055  -28.4514  -42.8336 C.2       4 UNK         0.4949 
     33 O          25.9357  -28.7180  -42.2123 O.2       4 UNK        -0.5039 
     34 N          24.2971  -27.2533  -42.7752 N.am      5 UNK        -0.4663 
     35 CA         24.7130  -26.0861  -41.9910 C.3       5 UNK         0.0242 
     36 CB         26.0092  -25.4741  -42.5727 C.3       5 UNK        -0.1982 
     37 C          24.7784  -26.3986  -40.4837 C.2       5 UNK         0.5017 
     38 O          23.7299  -26.5947  -39.8684 O.2       5 UNK        -0.5012 
     39 N          25.9925  -26.4257  -39.9188 N.am      6 UNK        -0.4439 
     40 CA         26.2552  -26.7178  -38.5084 C.3       6 UNK         0.0297 
     41 CB         27.6501  -26.1857  -38.1396 C.3       6 UNK        -0.2006 
     42 C          26.1404  -28.2117  -38.1516 C.2       6 UNK         0.4892 
     43 O          25.9712  -28.5248  -36.9719 O.2       6 UNK        -0.5089 
     44 N          26.2526  -29.1031  -39.1461 N.am      7 UNK        -0.4243 
     45 CA         26.1103  -30.5493  -38.9727 C.3       7 UNK         0.0196 
     46 CB         26.9919  -31.2650  -40.0100 C.3       7 UNK        -0.2007 
     47 C          24.6393  -30.9758  -39.1040 C.2       7 UNK         0.5020 
     48 O          23.8103  -30.2135  -39.6055 O.2       7 UNK        -0.5147 
     49 N          24.3395  -32.2023  -38.6590 N.am      8 UNK        -0.4734 
     50 CA         23.0177  -32.8198  -38.7817 C.3       8 UNK         0.0238 
     51 CB         22.9487  -34.0675  -37.8849 C.3       8 UNK        -0.1912 
     52 C          22.7179  -33.1760  -40.2473 C.2       8 UNK         0.5038 
     53 O          23.4544  -33.9689  -40.8391 O.2       8 UNK        -0.5046 
     54 N          21.6617  -32.5730  -40.8012 N.am      9 UNK        -0.4200 
     55 CA         21.1721  -32.8170  -42.1632 C.3       9 UNK         0.0839 
     56 C          20.4552  -34.1871  -42.3227 C.2       9 UNK         0.5513 
     57 N          20.3311  -34.6770  -43.5489 N.am      9 UNK        -0.7519 
     58 O          19.9909  -34.7960  -41.3606 O.2       9 UNK        -0.4960 
     59 C59        20.3180  -31.6249  -42.6716 C.3       10 UNK        -0.0876 
     60 S60        18.8865  -31.2293  -41.6058 S.3       10 UNK        -0.2414 
     61 C61        17.5040  -31.9262  -42.5605 C.3       10 UNK         0.0169 
     62 H62        16.3723  -23.0050  -47.6336 H         1 UNK         0.0903 
     63 H63        15.5389  -21.7427  -46.7254 H         1 UNK         0.0903 
     64 H64        17.3036  -21.7963  -46.7477 H         1 UNK         0.0903 
     65 H65        16.3816  -24.9537  -46.5968 H         1 UNK         0.3096 
     66 H66        16.2171  -26.5566  -45.1711 H         1 UNK         0.1121 
     67 H67        14.3451  -25.1980  -44.0543 H         1 UNK         0.0849 
     68 H68        15.5031  -24.6730  -42.8717 H         1 UNK         0.0849 
     69 H69        13.5007  -28.7723  -43.3004 H         1 UNK         0.0865 
     70 H70        13.8743  -27.6929  -44.6171 H         1 UNK         0.0865 
     71 H71        15.5735  -30.0457  -42.2083 H         1 UNK         0.1346 
     72 H72        18.2315  -31.6223  -45.1819 H         1 UNK         0.1412 
     73 H73        15.5042  -28.4828  -46.2031 H         1 UNK         0.1426 
     74 H74        17.8793  -30.9729  -47.5414 H         1 UNK         0.0716 
     75 H75        16.6784  -29.7777  -47.9469 H         1 UNK         0.0716 
     76 H76        20.8998  -29.7560  -47.6898 H         1 UNK         0.0695 
     77 H77        19.9937  -30.5798  -46.4513 H         1 UNK         0.0695 
     78 H78        21.2929  -27.8339  -46.1640 H         1 UNK         0.0983 
     79 H79        19.2553  -28.9499  -44.5813 H         1 UNK         0.3095 
     80 H80        19.0170  -28.3355  -42.1632 H         1 UNK         0.0454 
     81 H81        18.8165  -26.3134  -40.7312 H         1 UNK         0.0851 
     82 H82        20.4983  -26.7846  -40.9180 H         1 UNK         0.0851 
     83 H83        19.8726  -25.4129  -41.8182 H         1 UNK         0.0851 
     84 H84        17.1972  -27.5159  -43.1147 H         1 UNK         0.2976 
     85 H85        22.4411  -28.4838  -43.6239 H         1 UNK         0.3116 
     86 H86        24.9398  -29.5857  -44.6183 H         1 UNK         0.0646 
     87 H87        23.8557  -31.6678  -43.7703 H         1 UNK         0.0847 
     88 H88        25.2406  -31.2404  -42.7912 H         1 UNK         0.0847 
     89 H89        23.6204  -30.9097  -42.1932 H         1 UNK         0.0847 
     90 H90        23.4359  -27.1153  -43.2913 H         1 UNK         0.3040 
     91 H91        23.9217  -25.3429  -42.1057 H         1 UNK         0.1015 
     92 H92        26.8470  -26.1717  -42.5550 H         1 UNK         0.0786 
     93 H93        26.3059  -24.5805  -42.0216 H         1 UNK         0.0786 
     94 H94        25.8619  -25.1709  -43.6094 H         1 UNK         0.0786 
     95 H95        26.7952  -26.2740  -40.5127 H         1 UNK         0.3172 
     96 H96        25.5194  -26.1817  -37.9051 H         1 UNK         0.0595 
     97 H97        28.4360  -26.6780  -38.7139 H         1 UNK         0.0839 
     98 H98        27.8654  -26.3549  -37.0834 H         1 UNK         0.0839 
     99 H99        27.7261  -25.1123  -38.3146 H         1 UNK         0.0839 
    100 H100       26.2918  -28.7699  -40.1034 H         1 UNK         0.2998 
    101 H101       26.4576  -30.8328  -37.9766 H         1 UNK         0.0822 
    102 H102       26.9135  -32.3491  -39.9199 H         1 UNK         0.0787 
    103 H103       28.0426  -31.0060  -39.8784 H         1 UNK         0.0787 
    104 H104       26.7121  -31.0018  -41.0289 H         1 UNK         0.0787 
    105 H105       25.0786  -32.7848  -38.2920 H         1 UNK         0.3055 
    106 H106       22.2711  -32.1056  -38.4259 H         1 UNK         0.1106 
    107 H107       21.9683  -34.5411  -37.9536 H         1 UNK         0.0828 
    108 H108       23.6906  -34.8144  -38.1704 H         1 UNK         0.0828 
    109 H109       23.1124  -33.8141  -36.8373 H         1 UNK         0.0828 
    110 H110       21.0967  -31.9488  -40.2445 H         1 UNK         0.2931 
    111 H111       22.0520  -32.8687  -42.8062 H         1 UNK         0.0412 
    112 H112       19.8625  -35.5607  -43.6757 H         1 UNK         0.3472 
    113 H113       20.7164  -34.1984  -44.3480 H         1 UNK         0.3472 
    114 H114       19.9954  -31.7921  -43.6988 H         1 UNK         0.0970 
    115 H115       20.9455  -30.7341  -42.7116 H         1 UNK         0.0970 
    116 H116       16.7090  -32.2011  -41.8658 H         1 UNK         0.0612 
    117 H117       17.8102  -32.8533  -43.0471 H         1 UNK         0.0612 
@<TRIPOS>BOND
     1    1    2 1    
     2    1   62 1    
     3    1   63 1    
     4    1   64 1    
     5    2    3 2    
     6    2    4 am   BACKBONE|DICT|INTERRES
     7    4    5 1    
     8    4   65 1    
     9    5    6 1    
    10    5   25 1    
    11    5   66 1    
    12    6    7 1    
    13    6   67 1    
    14    6   68 1    
    15    7    8 1    
    16    8    9 1    
    17    8   69 1    
    18    8   70 1    
    19    9   10 ar   
    20    9   14 ar   
    21   10   11 ar   
    22   10   71 1    
    23   11   12 ar   
    24   11   61 1    
    25   12   13 ar   
    26   12   72 1    
    27   13   14 ar   
    28   13   15 1    
    29   14   73 1    
    30   15   16 1    
    31   15   74 1    
    32   15   75 1    
    33   16   17 1    
    34   17   18 1    
    35   17   76 1    
    36   17   77 1    
    37   18   19 1    
    38   18   27 1    
    39   18   78 1    
    40   19   20 am   BACKBONE|DICT|INTERRES
    41   19   79 1    
    42   20   21 2    
    43   20   22 1    
    44   22   23 1    
    45   22   24 1    
    46   22   80 1    
    47   23   81 1    
    48   23   82 1    
    49   23   83 1    
    50   24   25 am   BACKBONE|DICT|INTERRES
    51   24   84 1    
    52   25   26 2    
    53   27   28 2    
    54   27   29 am   BACKBONE|DICT|INTERRES
    55   29   30 1    
    56   29   85 1    
    57   30   31 1    
    58   30   32 1    
    59   30   86 1    
    60   31   87 1    
    61   31   88 1    
    62   31   89 1    
    63   32   33 2    
    64   32   34 am   BACKBONE|DICT|INTERRES
    65   34   35 1    
    66   34   90 1    
    67   35   36 1    
    68   35   37 1    
    69   35   91 1    
    70   36   92 1    
    71   36   93 1    
    72   36   94 1    
    73   37   38 2    
    74   37   39 am   BACKBONE|DICT|INTERRES
    75   39   40 1    
    76   39   95 1    
    77   40   41 1    
    78   40   42 1    
    79   40   96 1    
    80   41   97 1    
    81   41   98 1    
    82   41   99 1    
    83   42   43 2    
    84   42   44 am   BACKBONE|DICT|INTERRES
    85   44   45 1    
    86   44  100 1    
    87   45   46 1    
    88   45   47 1    
    89   45  101 1    
    90   46  102 1    
    91   46  103 1    
    92   46  104 1    
    93   47   48 2    
    94   47   49 am   BACKBONE|DICT|INTERRES
    95   49   50 1    
    96   49  105 1    
    97   50   51 1    
    98   50   52 1    
    99   50  106 1    
   100   51  107 1    
   101   51  108 1    
   102   51  109 1    
   103   52   53 2    
   104   52   54 am   BACKBONE|DICT|INTERRES
   105   54   55 1    
   106   54  110 1    
   107   55   56 1    
   108   55   59 1    
   109   55  111 1    
   110   56   57 am   BACKBONE|DICT|INTERRES
   111   56   58 2    
   112   57  112 1    
   113   57  113 1    
   114   59   60 1    
   115   59  114 1    
   116   59  115 1    
   117   60   61 1    
   118   61  116 1    
   119   61  117 1    
@<TRIPOS>SUBSTRUCTURE
     1 UNK         1 GROUP             0       ****    0 ROOT    
