@<TRIPOS>MOLECULE
3R8
117   119    1
SMALL
USER_CHARGES


@<TRIPOS>ATOM
      1 CA         13.9238  -24.2669  -44.0975 C.3       0 UNK        -0.2013 
      2 C          15.0772  -25.2559  -44.1685 C.2       0 UNK         0.4866 
      3 O          16.2353  -24.8430  -44.2352 O.2       0 UNK        -0.5176 
      4 N          14.7736  -26.5599  -44.1473 N.am      1 UNK        -0.4884 
      5 CA         15.7382  -27.6659  -44.2103 C.3       1 UNK         0.0853 
      6 C6         15.0791  -28.9605  -44.7517 C.3       10 UNK        -0.0849 
      7 S7         14.7386  -28.8048  -46.5386 S.3       10 UNK        -0.2776 
      8 C8         16.0895  -29.7874  -47.2767 C.3       10 UNK         0.0316 
      9 C9         17.4652  -29.3941  -46.7494 C.ar      10 UNK        -0.0863 
     10 C10        18.1537  -30.2512  -45.8859 C.ar      10 UNK        -0.1009 
     11 C11        19.4096  -29.8991  -45.3857 C.ar      10 UNK        -0.0712 
     12 C12        19.9846  -28.6827  -45.7609 C.ar      10 UNK        -0.0894 
     13 C13        19.3032  -27.8105  -46.6160 C.ar      10 UNK        -0.0745 
     14 C14        18.0473  -28.1759  -47.1141 C.ar      10 UNK        -0.0972 
     15 C15        19.9207  -26.4772  -47.0118 C.3       10 UNK         0.0209 
     16 S16        19.6664  -25.2063  -45.7312 S.3       10 UNK        -0.2568 
     17 C17        21.1921  -25.3661  -44.7417 C.3       10 UNK        -0.0983 
     18 CA         20.9736  -25.1443  -43.2214 C.3       3 UNK         0.0876 
     19 N          19.9446  -26.0466  -42.6833 N.am      3 UNK        -0.4424 
     20 C          19.2476  -25.8452  -41.5569 C.2       2 UNK         0.4918 
     21 O          19.4635  -24.9161  -40.7785 O.2       2 UNK        -0.4875 
     22 CA         18.1015  -26.8323  -41.2919 C.3       2 UNK         0.0481 
     23 CB         17.2612  -26.4728  -40.0501 C.3       2 UNK        -0.1831 
     24 N          17.2600  -26.8766  -42.4825 N.am      2 UNK        -0.4498 
     25 C          16.4459  -27.8682  -42.8544 C.2       1 UNK         0.5027 
     26 O          16.2349  -28.8775  -42.1796 O.2       1 UNK        -0.4969 
     27 C          22.3284  -25.2193  -42.4758 C.2       3 UNK         0.5005 
     28 O          23.2698  -24.5420  -42.8889 O.2       3 UNK        -0.5279 
     29 N          22.4334  -26.0744  -41.4456 N.am      4 UNK        -0.4463 
     30 CA         23.6274  -26.4402  -40.6622 C.3       4 UNK         0.0283 
     31 CB         24.3614  -25.2098  -40.0921 C.3       4 UNK        -0.1875 
     32 C          24.5961  -27.3877  -41.3981 C.2       4 UNK         0.4949 
     33 O          25.4294  -28.0155  -40.7426 O.2       4 UNK        -0.5039 
     34 N          24.4453  -27.5216  -42.7226 N.am      5 UNK        -0.4663 
     35 CA         25.1643  -28.4582  -43.5876 C.3       5 UNK         0.0242 
     36 CB         24.7037  -28.2405  -45.0382 C.3       5 UNK        -0.1982 
     37 C          24.9409  -29.9223  -43.1741 C.2       5 UNK         0.5017 
     38 O          23.8622  -30.2569  -42.6785 O.2       5 UNK        -0.5012 
     39 N          25.9666  -30.7592  -43.3871 N.am      6 UNK        -0.4439 
     40 CA         26.0259  -32.1811  -43.0183 C.3       6 UNK         0.0297 
     41 CB         25.0499  -33.0103  -43.8816 C.3       6 UNK        -0.2006 
     42 C          25.8329  -32.4141  -41.5050 C.2       6 UNK         0.4892 
     43 O          25.1329  -33.3489  -41.1143 O.2       6 UNK        -0.5089 
     44 N          26.4409  -31.5363  -40.6893 N.am      7 UNK        -0.4243 
     45 CA         26.3462  -31.4766  -39.2240 C.3       7 UNK         0.0196 
     46 CB         27.0666  -32.6814  -38.5809 C.3       7 UNK        -0.2007 
     47 C          24.8891  -31.3165  -38.7472 C.2       7 UNK         0.5020 
     48 O          24.4200  -32.0940  -37.9145 O.2       7 UNK        -0.5147 
     49 N          24.2034  -30.3155  -39.3182 N.am      8 UNK        -0.4734 
     50 CA         22.7758  -30.0151  -39.1609 C.3       8 UNK         0.0238 
     51 CB         22.4574  -29.5493  -37.7240 C.3       8 UNK        -0.1912 
     52 C          21.8756  -31.1633  -39.6512 C.2       8 UNK         0.5038 
     53 O          21.0093  -31.6320  -38.9096 O.2       8 UNK        -0.5046 
     54 N          22.0922  -31.5642  -40.9104 N.am      9 UNK        -0.4200 
     55 CA         21.2960  -32.5499  -41.6557 C.3       9 UNK         0.0839 
     56 C          21.3677  -33.9928  -41.0731 C.2       9 UNK         0.5513 
     57 N          22.5192  -34.4377  -40.5879 N.am      9 UNK        -0.7519 
     58 O          20.3828  -34.7279  -41.0717 O.2       9 UNK        -0.4960 
     59 C59        19.8394  -32.0683  -41.9234 C.3       10 UNK        -0.0876 
     60 S60        19.7409  -30.4207  -42.7069 S.3       10 UNK        -0.2414 
     61 C61        20.1352  -30.8334  -44.4329 C.3       10 UNK         0.0169 
     62 H62        13.9266  -23.6251  -44.9781 H         1 UNK         0.0903 
     63 H63        12.9577  -24.7688  -44.0467 H         1 UNK         0.0903 
     64 H64        14.0254  -23.6356  -43.2152 H         1 UNK         0.0903 
     65 H65        13.8047  -26.8375  -44.0783 H         1 UNK         0.3096 
     66 H66        16.5293  -27.3833  -44.9082 H         1 UNK         0.1121 
     67 H67        14.1461  -29.1701  -44.2257 H         1 UNK         0.0849 
     68 H68        15.7117  -29.8338  -44.5858 H         1 UNK         0.0849 
     69 H69        15.8957  -30.8456  -47.0935 H         1 UNK         0.0865 
     70 H70        16.0686  -29.6606  -48.3600 H         1 UNK         0.0865 
     71 H71        17.7081  -31.1917  -45.5911 H         1 UNK         0.1346 
     72 H72        20.9593  -28.4188  -45.3778 H         1 UNK         0.1412 
     73 H73        17.5128  -27.5065  -47.7747 H         1 UNK         0.1426 
     74 H74        19.4730  -26.1219  -47.9412 H         1 UNK         0.0716 
     75 H75        20.9846  -26.5984  -47.2214 H         1 UNK         0.0716 
     76 H76        21.8990  -24.6341  -45.1375 H         1 UNK         0.0695 
     77 H77        21.6461  -26.3412  -44.9174 H         1 UNK         0.0695 
     78 H78        20.6148  -24.1212  -43.0869 H         1 UNK         0.0983 
     79 H79        19.6892  -26.8256  -43.2735 H         1 UNK         0.3095 
     80 H80        18.5515  -27.8152  -41.1379 H         1 UNK         0.0454 
     81 H81        16.4837  -27.2140  -39.8660 H         1 UNK         0.0851 
     82 H82        16.7782  -25.5012  -40.1601 H         1 UNK         0.0851 
     83 H83        17.8834  -26.4310  -39.1553 H         1 UNK         0.0851 
     84 H84        17.2955  -26.0565  -43.0849 H         1 UNK         0.2976 
     85 H85        21.5941  -26.5824  -41.2049 H         1 UNK         0.3116 
     86 H86        23.2491  -26.9969  -39.8050 H         1 UNK         0.0646 
     87 H87        24.8689  -24.6365  -40.8679 H         1 UNK         0.0847 
     88 H88        25.1234  -25.5150  -39.3738 H         1 UNK         0.0847 
     89 H89        23.6753  -24.5416  -39.5718 H         1 UNK         0.0847 
     90 H90        23.7408  -26.9523  -43.1654 H         1 UNK         0.3040 
     91 H91        26.2289  -28.2272  -43.5106 H         1 UNK         0.1015 
     92 H92        23.6400  -28.4514  -45.1587 H         1 UNK         0.0786 
     93 H93        25.2440  -28.8946  -45.7240 H         1 UNK         0.0786 
     94 H94        24.8821  -27.2152  -45.3635 H         1 UNK         0.0786 
     95 H95        26.8061  -30.3863  -43.8102 H         1 UNK         0.3172 
     96 H96        27.0372  -32.5188  -43.2496 H         1 UNK         0.0595 
     97 H97        24.0097  -32.7615  -43.6716 H         1 UNK         0.0839 
     98 H98        25.1712  -34.0778  -43.6934 H         1 UNK         0.0839 
     99 H99        25.2246  -32.8484  -44.9451 H         1 UNK         0.0839 
    100 H100       26.9695  -30.7906  -41.1204 H         1 UNK         0.2998 
    101 H101       26.8722  -30.5724  -38.9130 H         1 UNK         0.0822 
    102 H102       28.1022  -32.7482  -38.9140 H         1 UNK         0.0787 
    103 H103       27.0810  -32.5917  -37.4940 H         1 UNK         0.0787 
    104 H104       26.5753  -33.6247  -38.8219 H         1 UNK         0.0787 
    105 H105       24.7007  -29.7226  -39.9770 H         1 UNK         0.3055 
    106 H106       22.5589  -29.1825  -39.8291 H         1 UNK         0.1106 
    107 H107       21.4185  -29.2280  -37.6409 H         1 UNK         0.0828 
    108 H108       22.6082  -30.3453  -36.9945 H         1 UNK         0.0828 
    109 H109       23.0818  -28.7045  -37.4335 H         1 UNK         0.0828 
    110 H110       22.8264  -31.1114  -41.4514 H         1 UNK         0.2931 
    111 H111       21.7802  -32.6260  -42.6294 H         1 UNK         0.0412 
    112 H112       22.5662  -35.3707  -40.2117 H         1 UNK         0.3472 
    113 H113       23.3664  -33.8783  -40.6492 H         1 UNK         0.3472 
    114 H114       19.3066  -32.7837  -42.5521 H         1 UNK         0.0970 
    115 H115       19.2792  -32.0282  -40.9879 H         1 UNK         0.0970 
    116 H116       21.2149  -30.7675  -44.5778 H         1 UNK         0.0612 
    117 H117       19.8577  -31.8659  -44.6496 H         1 UNK         0.0612 
@<TRIPOS>BOND
     1    1    2 1    
     2    1   62 1    
     3    1   63 1    
     4    1   64 1    
     5    2    3 2    
     6    2    4 am   BACKBONE|DICT|INTERRES
     7    4    5 1    
     8    4   65 1    
     9    5    6 1    
    10    5   25 1    
    11    5   66 1    
    12    6    7 1    
    13    6   67 1    
    14    6   68 1    
    15    7    8 1    
    16    8    9 1    
    17    8   69 1    
    18    8   70 1    
    19    9   10 ar   
    20    9   14 ar   
    21   10   11 ar   
    22   10   71 1    
    23   11   12 ar   
    24   11   61 1    
    25   12   13 ar   
    26   12   72 1    
    27   13   14 ar   
    28   13   15 1    
    29   14   73 1    
    30   15   16 1    
    31   15   74 1    
    32   15   75 1    
    33   16   17 1    
    34   17   18 1    
    35   17   76 1    
    36   17   77 1    
    37   18   19 1    
    38   18   27 1    
    39   18   78 1    
    40   19   20 am   BACKBONE|DICT|INTERRES
    41   19   79 1    
    42   20   21 2    
    43   20   22 1    
    44   22   23 1    
    45   22   24 1    
    46   22   80 1    
    47   23   81 1    
    48   23   82 1    
    49   23   83 1    
    50   24   25 am   BACKBONE|DICT|INTERRES
    51   24   84 1    
    52   25   26 2    
    53   27   28 2    
    54   27   29 am   BACKBONE|DICT|INTERRES
    55   29   30 1    
    56   29   85 1    
    57   30   31 1    
    58   30   32 1    
    59   30   86 1    
    60   31   87 1    
    61   31   88 1    
    62   31   89 1    
    63   32   33 2    
    64   32   34 am   BACKBONE|DICT|INTERRES
    65   34   35 1    
    66   34   90 1    
    67   35   36 1    
    68   35   37 1    
    69   35   91 1    
    70   36   92 1    
    71   36   93 1    
    72   36   94 1    
    73   37   38 2    
    74   37   39 am   BACKBONE|DICT|INTERRES
    75   39   40 1    
    76   39   95 1    
    77   40   41 1    
    78   40   42 1    
    79   40   96 1    
    80   41   97 1    
    81   41   98 1    
    82   41   99 1    
    83   42   43 2    
    84   42   44 am   BACKBONE|DICT|INTERRES
    85   44   45 1    
    86   44  100 1    
    87   45   46 1    
    88   45   47 1    
    89   45  101 1    
    90   46  102 1    
    91   46  103 1    
    92   46  104 1    
    93   47   48 2    
    94   47   49 am   BACKBONE|DICT|INTERRES
    95   49   50 1    
    96   49  105 1    
    97   50   51 1    
    98   50   52 1    
    99   50  106 1    
   100   51  107 1    
   101   51  108 1    
   102   51  109 1    
   103   52   53 2    
   104   52   54 am   BACKBONE|DICT|INTERRES
   105   54   55 1    
   106   54  110 1    
   107   55   56 1    
   108   55   59 1    
   109   55  111 1    
   110   56   57 am   BACKBONE|DICT|INTERRES
   111   56   58 2    
   112   57  112 1    
   113   57  113 1    
   114   59   60 1    
   115   59  114 1    
   116   59  115 1    
   117   60   61 1    
   118   61  116 1    
   119   61  117 1    
@<TRIPOS>SUBSTRUCTURE
     1 UNK         1 GROUP             0       ****    0 ROOT    
