@<TRIPOS>MOLECULE
3R8
117   119    1
SMALL
USER_CHARGES


@<TRIPOS>ATOM
      1 CA         16.3781  -22.1994  -43.1607 C.3       0 UNK        -0.2013 
      2 C          16.9839  -23.2117  -44.1217 C.2       0 UNK         0.4866 
      3 O          17.6606  -22.8213  -45.0739 O.2       0 UNK        -0.5176 
      4 N          16.7410  -24.5068  -43.8813 N.am      1 UNK        -0.4884 
      5 CA         17.3264  -25.6227  -44.6345 C.3       1 UNK         0.0853 
      6 C6         16.3906  -26.8602  -44.6181 C.3       10 UNK        -0.0849 
      7 S7         16.5157  -27.8313  -46.1584 S.3       10 UNK        -0.2776 
      8 C8         15.8989  -29.4564  -45.6209 C.3       10 UNK         0.0316 
      9 C9         16.9432  -30.2174  -44.8186 C.ar      10 UNK        -0.0863 
     10 C10        17.9898  -30.8703  -45.4782 C.ar      10 UNK        -0.1009 
     11 C11        18.9477  -31.5837  -44.7533 C.ar      10 UNK        -0.0712 
     12 C12        18.8505  -31.6393  -43.3620 C.ar      10 UNK        -0.0894 
     13 C13        17.8042  -31.0029  -42.6896 C.ar      10 UNK        -0.0745 
     14 C14        16.8531  -30.2893  -43.4242 C.ar      10 UNK        -0.0972 
     15 C15        17.6708  -31.1424  -41.1791 C.3       10 UNK         0.0209 
     16 S16        19.2079  -30.7322  -40.2915 S.3       10 UNK        -0.2568 
     17 C17        19.0914  -28.9232  -40.1159 C.3       10 UNK        -0.0983 
     18 CA         20.3205  -28.2011  -40.7268 C.3       3 UNK         0.0876 
     19 N          20.1947  -28.0538  -42.1838 N.am      3 UNK        -0.4424 
     20 C          21.1647  -27.6310  -43.0076 C.2       2 UNK         0.4918 
     21 O          22.3098  -27.3756  -42.6390 O.2       2 UNK        -0.4875 
     22 CA         20.7834  -27.3656  -44.4780 C.3       2 UNK         0.0481 
     23 CB         21.1229  -28.5804  -45.3507 C.3       2 UNK        -0.1831 
     24 N          19.3842  -26.9760  -44.7079 N.am      2 UNK        -0.4498 
     25 C          18.7551  -25.9406  -44.1328 C.2       1 UNK         0.5027 
     26 O          19.2619  -25.2641  -43.2350 O.2       1 UNK        -0.4969 
     27 C          20.6023  -26.8750  -39.9762 C.2       3 UNK         0.5005 
     28 O          21.0021  -26.9323  -38.8119 O.2       3 UNK        -0.5279 
     29 N          20.4096  -25.7108  -40.6188 N.am      4 UNK        -0.4463 
     30 CA         20.8287  -24.4065  -40.0924 C.3       4 UNK         0.0283 
     31 CB         20.0993  -23.2863  -40.8525 C.3       4 UNK        -0.1875 
     32 C          22.3555  -24.1951  -40.1580 C.2       4 UNK         0.4949 
     33 O          22.8679  -23.3268  -39.4506 O.2       4 UNK        -0.5039 
     34 N          23.0499  -24.9765  -40.9959 N.am      5 UNK        -0.4663 
     35 CA         24.5063  -25.0191  -41.1157 C.3       5 UNK         0.0242 
     36 CB         24.8682  -24.9931  -42.6147 C.3       5 UNK        -0.1982 
     37 C          25.0526  -26.2725  -40.4038 C.2       5 UNK         0.5017 
     38 O          24.3411  -26.9043  -39.6206 O.2       5 UNK        -0.5012 
     39 N          26.3172  -26.6158  -40.6831 N.am      6 UNK        -0.4439 
     40 CA         26.9982  -27.8038  -40.1525 C.3       6 UNK         0.0297 
     41 CB         28.5176  -27.6076  -40.2932 C.3       6 UNK        -0.2006 
     42 C          26.5618  -29.1278  -40.8162 C.2       6 UNK         0.4892 
     43 O          26.9293  -30.1938  -40.3196 O.2       6 UNK        -0.5089 
     44 N          25.8238  -29.0458  -41.9314 N.am      7 UNK        -0.4243 
     45 CA         25.2987  -30.1838  -42.6861 C.3       7 UNK         0.0196 
     46 CB         24.8707  -29.6873  -44.0769 C.3       7 UNK        -0.2007 
     47 C          24.1255  -30.8778  -41.9701 C.2       7 UNK         0.5020 
     48 O          23.4741  -30.2820  -41.1106 O.2       7 UNK        -0.5147 
     49 N          23.8590  -32.1245  -42.3690 N.am      8 UNK        -0.4734 
     50 CA         22.7499  -32.9472  -41.8942 C.3       8 UNK         0.0238 
     51 CB         23.1563  -33.6822  -40.6037 C.3       8 UNK        -0.1912 
     52 C          22.3629  -33.9373  -42.9998 C.2       8 UNK         0.5038 
     53 O          23.1791  -34.2133  -43.8836 O.2       8 UNK        -0.5046 
     54 N          21.1303  -34.4447  -42.9218 N.am      9 UNK        -0.4200 
     55 CA         20.5488  -35.4476  -43.8222 C.3       9 UNK         0.0839 
     56 C          20.1586  -36.6985  -42.9944 C.2       9 UNK         0.5513 
     57 N          20.2883  -37.8865  -43.5676 N.am      9 UNK        -0.7519 
     58 O          19.7078  -36.6002  -41.8541 O.2       9 UNK        -0.4960 
     59 C59        19.3118  -34.8820  -44.5758 C.3       10 UNK        -0.0876 
     60 S60        19.7382  -33.9254  -46.0730 S.3       10 UNK        -0.2414 
     61 C61        20.1172  -32.2517  -45.4616 C.3       10 UNK         0.0169 
     62 H62        17.1679  -21.6279  -42.6737 H         1 UNK         0.0903 
     63 H63        15.7373  -21.5039  -43.7020 H         1 UNK         0.0903 
     64 H64        15.7799  -22.6786  -42.3859 H         1 UNK         0.0903 
     65 H65        16.2072  -24.7631  -43.0629 H         1 UNK         0.3096 
     66 H66        17.4349  -25.2905  -45.6699 H         1 UNK         0.1121 
     67 H67        15.3482  -26.5456  -44.5404 H         1 UNK         0.0849 
     68 H68        16.5741  -27.4874  -43.7445 H         1 UNK         0.0849 
     69 H69        14.9787  -29.3306  -45.0480 H         1 UNK         0.0865 
     70 H70        15.6276  -30.0390  -46.5027 H         1 UNK         0.0865 
     71 H71        18.0628  -30.8168  -46.5561 H         1 UNK         0.1346 
     72 H72        19.5886  -32.1863  -42.7961 H         1 UNK         0.1412 
     73 H73        16.0327  -29.8042  -42.9128 H         1 UNK         0.1426 
     74 H74        17.4127  -32.1784  -40.9559 H         1 UNK         0.0716 
     75 H75        16.8502  -30.5359  -40.7929 H         1 UNK         0.0716 
     76 H76        19.0082  -28.7370  -39.0430 H         1 UNK         0.0695 
     77 H77        18.1640  -28.5489  -40.5527 H         1 UNK         0.0695 
     78 H78        21.2069  -28.8149  -40.5483 H         1 UNK         0.0983 
     79 H79        19.2877  -28.2537  -42.5773 H         1 UNK         0.3095 
     80 H80        21.3975  -26.5295  -44.8187 H         1 UNK         0.0454 
     81 H81        20.5765  -29.4611  -45.0236 H         1 UNK         0.0851 
     82 H82        22.1844  -28.8193  -45.2970 H         1 UNK         0.0851 
     83 H83        20.8862  -28.4034  -46.3998 H         1 UNK         0.0851 
     84 H84        18.8765  -27.5048  -45.4058 H         1 UNK         0.2976 
     85 H85        20.0441  -25.7151  -41.5688 H         1 UNK         0.3116 
     86 H86        20.5326  -24.3479  -39.0429 H         1 UNK         0.0646 
     87 H87        20.3998  -23.2475  -41.9002 H         1 UNK         0.0847 
     88 H88        20.3215  -22.3117  -40.4161 H         1 UNK         0.0847 
     89 H89        19.0177  -23.4184  -40.8187 H         1 UNK         0.0847 
     90 H90        22.5595  -25.7203  -41.4821 H         1 UNK         0.3040 
     91 H91        24.9519  -24.1464  -40.6334 H         1 UNK         0.1015 
     92 H92        24.5542  -25.9048  -43.1246 H         1 UNK         0.0786 
     93 H93        25.9415  -24.8798  -42.7693 H         1 UNK         0.0786 
     94 H94        24.3895  -24.1532  -43.1188 H         1 UNK         0.0786 
     95 H95        26.8447  -26.0424  -41.3262 H         1 UNK         0.3172 
     96 H96        26.7665  -27.8865  -39.0884 H         1 UNK         0.0595 
     97 H97        29.0620  -28.4523  -39.8683 H         1 UNK         0.0839 
     98 H98        28.8542  -26.7135  -39.7681 H         1 UNK         0.0839 
     99 H99        28.8194  -27.5198  -41.3377 H         1 UNK         0.0839 
    100 H100       25.5207  -28.1314  -42.2296 H         1 UNK         0.2998 
    101 H101       26.1021  -30.9141  -42.8068 H         1 UNK         0.0822 
    102 H102       25.7196  -29.2896  -44.6334 H         1 UNK         0.0787 
    103 H103       24.4417  -30.4925  -44.6750 H         1 UNK         0.0787 
    104 H104       24.1226  -28.8985  -44.0024 H         1 UNK         0.0787 
    105 H105       24.3888  -32.5429  -43.1248 H         1 UNK         0.3055 
    106 H106       21.8894  -32.3042  -41.6921 H         1 UNK         0.1106 
    107 H107       22.3419  -34.3043  -40.2302 H         1 UNK         0.0828 
    108 H108       24.0173  -34.3320  -40.7653 H         1 UNK         0.0828 
    109 H109       23.4125  -32.9787  -39.8113 H         1 UNK         0.0828 
    110 H110       20.5674  -34.2402  -42.1082 H         1 UNK         0.2931 
    111 H111       21.2922  -35.7643  -44.5570 H         1 UNK         0.0412 
    112 H112       20.6460  -37.9763  -44.5066 H         1 UNK         0.3472 
    113 H113       20.0272  -38.7121  -43.0506 H         1 UNK         0.3472 
    114 H114       18.6694  -34.3010  -43.9142 H         1 UNK         0.0970 
    115 H115       18.6811  -35.6993  -44.9317 H         1 UNK         0.0970 
    116 H116       20.9884  -32.2839  -44.8096 H         1 UNK         0.0612 
    117 H117       20.4159  -31.6417  -46.3153 H         1 UNK         0.0612 
@<TRIPOS>BOND
     1    1    2 1    
     2    1   62 1    
     3    1   63 1    
     4    1   64 1    
     5    2    3 2    
     6    2    4 am   BACKBONE|DICT|INTERRES
     7    4    5 1    
     8    4   65 1    
     9    5    6 1    
    10    5   25 1    
    11    5   66 1    
    12    6    7 1    
    13    6   67 1    
    14    6   68 1    
    15    7    8 1    
    16    8    9 1    
    17    8   69 1    
    18    8   70 1    
    19    9   10 ar   
    20    9   14 ar   
    21   10   11 ar   
    22   10   71 1    
    23   11   12 ar   
    24   11   61 1    
    25   12   13 ar   
    26   12   72 1    
    27   13   14 ar   
    28   13   15 1    
    29   14   73 1    
    30   15   16 1    
    31   15   74 1    
    32   15   75 1    
    33   16   17 1    
    34   17   18 1    
    35   17   76 1    
    36   17   77 1    
    37   18   19 1    
    38   18   27 1    
    39   18   78 1    
    40   19   20 am   BACKBONE|DICT|INTERRES
    41   19   79 1    
    42   20   21 2    
    43   20   22 1    
    44   22   23 1    
    45   22   24 1    
    46   22   80 1    
    47   23   81 1    
    48   23   82 1    
    49   23   83 1    
    50   24   25 am   BACKBONE|DICT|INTERRES
    51   24   84 1    
    52   25   26 2    
    53   27   28 2    
    54   27   29 am   BACKBONE|DICT|INTERRES
    55   29   30 1    
    56   29   85 1    
    57   30   31 1    
    58   30   32 1    
    59   30   86 1    
    60   31   87 1    
    61   31   88 1    
    62   31   89 1    
    63   32   33 2    
    64   32   34 am   BACKBONE|DICT|INTERRES
    65   34   35 1    
    66   34   90 1    
    67   35   36 1    
    68   35   37 1    
    69   35   91 1    
    70   36   92 1    
    71   36   93 1    
    72   36   94 1    
    73   37   38 2    
    74   37   39 am   BACKBONE|DICT|INTERRES
    75   39   40 1    
    76   39   95 1    
    77   40   41 1    
    78   40   42 1    
    79   40   96 1    
    80   41   97 1    
    81   41   98 1    
    82   41   99 1    
    83   42   43 2    
    84   42   44 am   BACKBONE|DICT|INTERRES
    85   44   45 1    
    86   44  100 1    
    87   45   46 1    
    88   45   47 1    
    89   45  101 1    
    90   46  102 1    
    91   46  103 1    
    92   46  104 1    
    93   47   48 2    
    94   47   49 am   BACKBONE|DICT|INTERRES
    95   49   50 1    
    96   49  105 1    
    97   50   51 1    
    98   50   52 1    
    99   50  106 1    
   100   51  107 1    
   101   51  108 1    
   102   51  109 1    
   103   52   53 2    
   104   52   54 am   BACKBONE|DICT|INTERRES
   105   54   55 1    
   106   54  110 1    
   107   55   56 1    
   108   55   59 1    
   109   55  111 1    
   110   56   57 am   BACKBONE|DICT|INTERRES
   111   56   58 2    
   112   57  112 1    
   113   57  113 1    
   114   59   60 1    
   115   59  114 1    
   116   59  115 1    
   117   60   61 1    
   118   61  116 1    
   119   61  117 1    
@<TRIPOS>SUBSTRUCTURE
     1 UNK         1 GROUP             0       ****    0 ROOT    
