@<TRIPOS>MOLECULE
3R8
117   119    1
SMALL
USER_CHARGES


@<TRIPOS>ATOM
      1 CA         20.6289  -28.3887  -49.7386 C.3       0 UNK        -0.2013 
      2 C          20.1768  -28.4436  -48.2870 C.2       0 UNK         0.4866 
      3 O          20.7964  -29.1353  -47.4805 O.2       0 UNK        -0.5176 
      4 N          19.0972  -27.7259  -47.9537 N.am      1 UNK        -0.4884 
      5 CA         18.5321  -27.6190  -46.6045 C.3       1 UNK         0.0853 
      6 C6         17.1231  -26.9747  -46.6321 C.3       10 UNK        -0.0849 
      7 S7         15.9327  -28.0065  -47.5550 S.3       10 UNK        -0.2776 
      8 C8         14.8029  -28.5688  -46.2376 C.3       10 UNK         0.0316 
      9 C9         15.5230  -29.2048  -45.0531 C.ar      10 UNK        -0.0863 
     10 C10        16.4140  -30.2662  -45.2425 C.ar      10 UNK        -0.1009 
     11 C11        17.0735  -30.8438  -44.1539 C.ar      10 UNK        -0.0712 
     12 C12        16.7994  -30.3838  -42.8631 C.ar      10 UNK        -0.0894 
     13 C13        15.9227  -29.3141  -42.6597 C.ar      10 UNK        -0.0745 
     14 C14        15.2903  -28.7279  -43.7595 C.ar      10 UNK        -0.0972 
     15 C15        15.6396  -28.7966  -41.2561 C.3       10 UNK         0.0209 
     16 S16        16.8332  -27.5170  -40.7462 S.3       10 UNK        -0.2568 
     17 C17        18.1931  -28.5375  -40.0773 C.3       10 UNK        -0.0983 
     18 CA         19.6202  -28.0256  -40.3967 C.3       3 UNK         0.0876 
     19 N          19.8094  -27.6979  -41.8148 N.am      3 UNK        -0.4424 
     20 C          21.0105  -27.5329  -42.3852 C.2       2 UNK         0.4918 
     21 O          22.0673  -27.8644  -41.8425 O.2       2 UNK        -0.4875 
     22 CA         21.0296  -26.8693  -43.7687 C.3       2 UNK         0.0481 
     23 CB         22.4192  -26.8980  -44.4331 C.3       2 UNK        -0.1831 
     24 N          20.0309  -27.4594  -44.6599 N.am      2 UNK        -0.4498 
     25 C          19.4829  -26.8155  -45.6984 C.2       1 UNK         0.5027 
     26 O          19.7087  -25.6333  -45.9704 O.2       1 UNK        -0.4969 
     27 C          20.0413  -26.8405  -39.4971 C.2       3 UNK         0.5005 
     28 O          20.1599  -25.7090  -39.9765 O.2       3 UNK        -0.5279 
     29 N          20.3338  -27.1350  -38.2215 N.am      4 UNK        -0.4463 
     30 CA         20.9480  -26.2644  -37.2024 C.3       4 UNK         0.0283 
     31 CB         20.1475  -24.9685  -36.9639 C.3       4 UNK        -0.1875 
     32 C          22.4371  -25.9743  -37.4729 C.2       4 UNK         0.4949 
     33 O          23.2454  -26.0832  -36.5512 O.2       4 UNK        -0.5039 
     34 N          22.7860  -25.6767  -38.7326 N.am      5 UNK        -0.4663 
     35 CA         24.1617  -25.6709  -39.2432 C.3       5 UNK         0.0242 
     36 CB         24.1866  -25.0175  -40.6346 C.3       5 UNK        -0.1982 
     37 C          24.7602  -27.0898  -39.2997 C.2       5 UNK         0.5017 
     38 O          25.9587  -27.2527  -39.0715 O.2       5 UNK        -0.5012 
     39 N          23.8961  -28.0782  -39.5772 N.am      6 UNK        -0.4439 
     40 CA         24.1427  -29.5223  -39.6110 C.3       6 UNK         0.0297 
     41 CB         24.5751  -30.0467  -38.2254 C.3       6 UNK        -0.2006 
     42 C          25.0837  -29.9655  -40.7461 C.2       6 UNK         0.4892 
     43 O          25.7815  -30.9715  -40.6042 O.2       6 UNK        -0.5089 
     44 N          25.0643  -29.2355  -41.8692 N.am      7 UNK        -0.4243 
     45 CA         25.7722  -29.6031  -43.0941 C.3       7 UNK         0.0196 
     46 CB         26.0372  -28.3443  -43.9366 C.3       7 UNK        -0.2007 
     47 C          24.9233  -30.6352  -43.8476 C.2       7 UNK         0.5020 
     48 O          23.8931  -30.2700  -44.4136 O.2       7 UNK        -0.5147 
     49 N          25.3208  -31.9126  -43.7663 N.am      8 UNK        -0.4734 
     50 CA         24.6436  -33.1220  -44.2703 C.3       8 UNK         0.0238 
     51 CB         24.4281  -33.0682  -45.7960 C.3       8 UNK        -0.1912 
     52 C          23.3333  -33.4677  -43.5347 C.2       8 UNK         0.5038 
     53 O          23.1182  -34.6360  -43.2110 O.2       8 UNK        -0.5046 
     54 N          22.5046  -32.4559  -43.2590 N.am      9 UNK        -0.4200 
     55 CA         21.2626  -32.5345  -42.4754 C.3       9 UNK         0.0839 
     56 C          21.4700  -32.7106  -40.9409 C.2       9 UNK         0.5513 
     57 N          22.6907  -32.7197  -40.4194 N.am      9 UNK        -0.7519 
     58 O          20.4962  -32.8483  -40.2057 O.2       9 UNK        -0.4960 
     59 C59        20.3353  -31.3288  -42.7782 C.3       10 UNK        -0.0876 
     60 S60        19.7779  -31.2965  -44.5166 S.3       10 UNK        -0.2414 
     61 C61        18.0849  -31.9577  -44.3795 C.3       10 UNK         0.0169 
     62 H62        21.6469  -28.0049  -49.7996 H         1 UNK         0.0903 
     63 H63        20.6147  -29.3876  -50.1736 H         1 UNK         0.0903 
     64 H64        19.9877  -27.7469  -50.3425 H         1 UNK         0.0903 
     65 H65        18.6307  -27.1746  -48.6598 H         1 UNK         0.3096 
     66 H66        18.4444  -28.6286  -46.1982 H         1 UNK         0.1121 
     67 H67        16.7534  -26.8062  -45.6189 H         1 UNK         0.0849 
     68 H68        17.1583  -25.9897  -47.1017 H         1 UNK         0.0849 
     69 H69        14.2005  -27.7185  -45.9138 H         1 UNK         0.0865 
     70 H70        14.1050  -29.2945  -46.6572 H         1 UNK         0.0865 
     71 H71        16.6093  -30.6287  -46.2428 H         1 UNK         0.1346 
     72 H72        17.2734  -30.8576  -42.0176 H         1 UNK         0.1412 
     73 H73        14.6081  -27.9030  -43.6034 H         1 UNK         0.1426 
     74 H74        15.6408  -29.6178  -40.5376 H         1 UNK         0.0716 
     75 H75        14.6367  -28.3685  -41.2173 H         1 UNK         0.0716 
     76 H76        18.1026  -29.5496  -40.4658 H         1 UNK         0.0695 
     77 H77        18.0433  -28.6401  -39.0009 H         1 UNK         0.0695 
     78 H78        20.3080  -28.8430  -40.1663 H         1 UNK         0.0983 
     79 H79        18.9864  -27.3686  -42.2986 H         1 UNK         0.3095 
     80 H80        20.7670  -25.8247  -43.5891 H         1 UNK         0.0454 
     81 H81        22.7248  -27.9189  -44.6610 H         1 UNK         0.0851 
     82 H82        23.1763  -26.4583  -43.7833 H         1 UNK         0.0851 
     83 H83        22.4303  -26.3322  -45.3643 H         1 UNK         0.0851 
     84 H84        19.8208  -28.4385  -44.5112 H         1 UNK         0.2976 
     85 H85        20.2118  -28.0942  -37.9247 H         1 UNK         0.3116 
     86 H86        20.9082  -26.8380  -36.2747 H         1 UNK         0.0646 
     87 H87        19.0983  -25.1814  -36.7600 H         1 UNK         0.0847 
     88 H88        20.5415  -24.4262  -36.1035 H         1 UNK         0.0847 
     89 H89        20.1933  -24.2898  -37.8156 H         1 UNK         0.0847 
     90 H90        22.0333  -25.5664  -39.4066 H         1 UNK         0.3040 
     91 H91        24.7791  -25.0756  -38.5667 H         1 UNK         0.1015 
     92 H92        23.5621  -25.5567  -41.3477 H         1 UNK         0.0786 
     93 H93        25.2000  -24.9972  -41.0382 H         1 UNK         0.0786 
     94 H94        23.8340  -23.9868  -40.5939 H         1 UNK         0.0786 
     95 H95        22.9697  -27.7993  -39.8738 H         1 UNK         0.3172 
     96 H96        23.1763  -29.9730  -39.8401 H         1 UNK         0.0595 
     97 H97        25.5694  -29.6933  -37.9512 H         1 UNK         0.0839 
     98 H98        23.8802  -29.7322  -37.4468 H         1 UNK         0.0839 
     99 H99        24.6041  -31.1368  -38.2109 H         1 UNK         0.0839 
    100 H100       24.3956  -28.4790  -41.9345 H         1 UNK         0.2998 
    101 H101       26.7394  -30.0435  -42.8409 H         1 UNK         0.0822 
    102 H102       26.5752  -28.5969  -44.8511 H         1 UNK         0.0787 
    103 H103       25.1149  -27.8463  -44.2311 H         1 UNK         0.0787 
    104 H104       26.6457  -27.6236  -43.3899 H         1 UNK         0.0787 
    105 H105       26.1495  -32.0969  -43.2155 H         1 UNK         0.3055 
    106 H106       25.3310  -33.9462  -44.0711 H         1 UNK         0.1106 
    107 H107       25.3629  -32.8760  -46.3225 H         1 UNK         0.0828 
    108 H108       24.0375  -34.0174  -46.1651 H         1 UNK         0.0828 
    109 H109       23.7152  -32.2950  -46.0843 H         1 UNK         0.0828 
    110 H110       22.7684  -31.5369  -43.6043 H         1 UNK         0.2931 
    111 H111       20.7385  -33.4364  -42.7971 H         1 UNK         0.0412 
    112 H112       22.7964  -32.8534  -39.4265 H         1 UNK         0.3472 
    113 H113       23.5042  -32.6339  -41.0069 H         1 UNK         0.3472 
    114 H114       19.4640  -31.3323  -42.1242 H         1 UNK         0.0970 
    115 H115       20.8614  -30.3981  -42.5673 H         1 UNK         0.0970 
    116 H116       17.8471  -32.4930  -45.3000 H         1 UNK         0.0612 
    117 H117       18.0310  -32.6962  -43.5781 H         1 UNK         0.0612 
@<TRIPOS>BOND
     1    1    2 1    
     2    1   62 1    
     3    1   63 1    
     4    1   64 1    
     5    2    3 2    
     6    2    4 am   BACKBONE|DICT|INTERRES
     7    4    5 1    
     8    4   65 1    
     9    5    6 1    
    10    5   25 1    
    11    5   66 1    
    12    6    7 1    
    13    6   67 1    
    14    6   68 1    
    15    7    8 1    
    16    8    9 1    
    17    8   69 1    
    18    8   70 1    
    19    9   10 ar   
    20    9   14 ar   
    21   10   11 ar   
    22   10   71 1    
    23   11   12 ar   
    24   11   61 1    
    25   12   13 ar   
    26   12   72 1    
    27   13   14 ar   
    28   13   15 1    
    29   14   73 1    
    30   15   16 1    
    31   15   74 1    
    32   15   75 1    
    33   16   17 1    
    34   17   18 1    
    35   17   76 1    
    36   17   77 1    
    37   18   19 1    
    38   18   27 1    
    39   18   78 1    
    40   19   20 am   BACKBONE|DICT|INTERRES
    41   19   79 1    
    42   20   21 2    
    43   20   22 1    
    44   22   23 1    
    45   22   24 1    
    46   22   80 1    
    47   23   81 1    
    48   23   82 1    
    49   23   83 1    
    50   24   25 am   BACKBONE|DICT|INTERRES
    51   24   84 1    
    52   25   26 2    
    53   27   28 2    
    54   27   29 am   BACKBONE|DICT|INTERRES
    55   29   30 1    
    56   29   85 1    
    57   30   31 1    
    58   30   32 1    
    59   30   86 1    
    60   31   87 1    
    61   31   88 1    
    62   31   89 1    
    63   32   33 2    
    64   32   34 am   BACKBONE|DICT|INTERRES
    65   34   35 1    
    66   34   90 1    
    67   35   36 1    
    68   35   37 1    
    69   35   91 1    
    70   36   92 1    
    71   36   93 1    
    72   36   94 1    
    73   37   38 2    
    74   37   39 am   BACKBONE|DICT|INTERRES
    75   39   40 1    
    76   39   95 1    
    77   40   41 1    
    78   40   42 1    
    79   40   96 1    
    80   41   97 1    
    81   41   98 1    
    82   41   99 1    
    83   42   43 2    
    84   42   44 am   BACKBONE|DICT|INTERRES
    85   44   45 1    
    86   44  100 1    
    87   45   46 1    
    88   45   47 1    
    89   45  101 1    
    90   46  102 1    
    91   46  103 1    
    92   46  104 1    
    93   47   48 2    
    94   47   49 am   BACKBONE|DICT|INTERRES
    95   49   50 1    
    96   49  105 1    
    97   50   51 1    
    98   50   52 1    
    99   50  106 1    
   100   51  107 1    
   101   51  108 1    
   102   51  109 1    
   103   52   53 2    
   104   52   54 am   BACKBONE|DICT|INTERRES
   105   54   55 1    
   106   54  110 1    
   107   55   56 1    
   108   55   59 1    
   109   55  111 1    
   110   56   57 am   BACKBONE|DICT|INTERRES
   111   56   58 2    
   112   57  112 1    
   113   57  113 1    
   114   59   60 1    
   115   59  114 1    
   116   59  115 1    
   117   60   61 1    
   118   61  116 1    
   119   61  117 1    
@<TRIPOS>SUBSTRUCTURE
     1 UNK         1 GROUP             0       ****    0 ROOT    
