@<TRIPOS>MOLECULE
3R8
117   119    1
SMALL
USER_CHARGES


@<TRIPOS>ATOM
      1 CA         19.1509  -26.1724  -48.5297 C.3       0 UNK        -0.2013 
      2 C          19.4381  -27.6147  -48.1191 C.2       0 UNK         0.4866 
      3 O          19.9679  -28.3705  -48.9313 O.2       0 UNK        -0.5176 
      4 N          19.1076  -28.0595  -46.8982 N.am      1 UNK        -0.4884 
      5 CA         18.5217  -27.3233  -45.7693 C.3       1 UNK         0.0853 
      6 C6         17.1217  -26.7184  -46.0772 C.3       10 UNK        -0.0849 
      7 S7         16.0254  -26.6145  -44.6183 S.3       10 UNK        -0.2776 
      8 C8         15.2008  -28.2399  -44.6270 C.3       10 UNK         0.0316 
      9 C9         16.0492  -29.2966  -43.9345 C.ar      10 UNK        -0.0863 
     10 C10        16.8297  -30.1848  -44.6811 C.ar      10 UNK        -0.1009 
     11 C11        17.6314  -31.1328  -44.0390 C.ar      10 UNK        -0.0712 
     12 C12        17.6176  -31.2170  -42.6435 C.ar      10 UNK        -0.0894 
     13 C13        16.8260  -30.3488  -41.8870 C.ar      10 UNK        -0.0745 
     14 C14        16.0494  -29.3857  -42.5387 C.ar      10 UNK        -0.0972 
     15 C15        16.7829  -30.4754  -40.3696 C.3       10 UNK         0.0209 
     16 S16        18.3515  -29.9996  -39.5747 S.3       10 UNK        -0.2568 
     17 C17        18.4455  -28.2140  -39.9302 C.3       10 UNK        -0.0983 
     18 CA         19.7158  -27.8270  -40.7331 C.3       3 UNK         0.0876 
     19 N          19.4863  -26.5977  -41.5050 N.am      3 UNK        -0.4424 
     20 C          20.3796  -25.8335  -42.1511 C.2       2 UNK         0.4918 
     21 O          21.6013  -25.9489  -42.0582 O.2       2 UNK        -0.4875 
     22 CA         19.7659  -24.8115  -43.1247 C.3       2 UNK         0.0481 
     23 CB         20.7986  -23.8231  -43.7085 C.3       2 UNK        -0.1831 
     24 N          19.0223  -25.5279  -44.1707 N.am      2 UNK        -0.4498 
     25 C          19.5252  -26.3642  -45.0925 C.2       1 UNK         0.5027 
     26 O          20.7221  -26.4422  -45.3715 O.2       1 UNK        -0.4969 
     27 C          20.9653  -27.8148  -39.8264 C.2       3 UNK         0.5005 
     28 O          21.7679  -28.7479  -39.8895 O.2       3 UNK        -0.5279 
     29 N          21.1161  -26.7539  -39.0206 N.am      4 UNK        -0.4463 
     30 CA         22.2201  -26.5866  -38.0712 C.3       4 UNK         0.0283 
     31 CB         21.8864  -25.4470  -37.0953 C.3       4 UNK        -0.1875 
     32 C          23.5821  -26.3360  -38.7413 C.2       4 UNK         0.4949 
     33 O          24.6003  -26.7852  -38.2159 O.2       4 UNK        -0.5039 
     34 N          23.5823  -25.6319  -39.8809 N.am      5 UNK        -0.4663 
     35 CA         24.7824  -25.3445  -40.6710 C.3       5 UNK         0.0242 
     36 CB         24.5511  -24.0798  -41.5145 C.3       5 UNK        -0.1982 
     37 C          25.1641  -26.5322  -41.5662 C.2       5 UNK         0.5017 
     38 O          26.3494  -26.8327  -41.7079 O.2       5 UNK        -0.5012 
     39 N          24.1481  -27.1931  -42.1360 N.am      6 UNK        -0.4439 
     40 CA         24.2764  -28.3727  -42.9924 C.3       6 UNK         0.0297 
     41 CB         22.9726  -28.5427  -43.7879 C.3       6 UNK        -0.2006 
     42 C          24.6056  -29.6680  -42.2299 C.2       6 UNK         0.4892 
     43 O          24.9350  -30.6604  -42.8789 O.2       6 UNK        -0.5089 
     44 N          24.4707  -29.6543  -40.8940 N.am      7 UNK        -0.4243 
     45 CA         24.6023  -30.7902  -39.9721 C.3       7 UNK         0.0196 
     46 CB         26.0590  -31.2977  -39.9211 C.3       7 UNK        -0.2007 
     47 C          23.5826  -31.8958  -40.3021 C.2       7 UNK         0.5020 
     48 O          23.9558  -33.0517  -40.5114 O.2       7 UNK        -0.5147 
     49 N          22.3102  -31.4855  -40.4115 N.am      8 UNK        -0.4734 
     50 CA         21.1497  -32.2832  -40.8334 C.3       8 UNK         0.0238 
     51 CB         20.7921  -33.3395  -39.7677 C.3       8 UNK        -0.1912 
     52 C          21.2886  -32.8805  -42.2489 C.2       8 UNK         0.5038 
     53 O          20.7020  -33.9255  -42.5344 O.2       8 UNK        -0.5046 
     54 N          22.0612  -32.1953  -43.1016 N.am      9 UNK        -0.4200 
     55 CA         22.4169  -32.5769  -44.4771 C.3       9 UNK         0.0839 
     56 C          23.3766  -33.8023  -44.5680 C.2       9 UNK         0.5513 
     57 N          24.0348  -34.2148  -43.4898 N.am      9 UNK        -0.7519 
     58 O          23.5501  -34.3766  -45.6401 O.2       9 UNK        -0.4960 
     59 C59        21.1961  -32.6906  -45.4390 C.3       10 UNK        -0.0876 
     60 S60        20.0612  -31.2576  -45.3462 S.3       10 UNK        -0.2414 
     61 C61        18.5100  -32.0721  -44.8474 C.3       10 UNK         0.0169 
     62 H62        19.7231  -25.9140  -49.4204 H         1 UNK         0.0903 
     63 H63        18.0955  -26.0471  -48.7683 H         1 UNK         0.0903 
     64 H64        19.4266  -25.4604  -47.7543 H         1 UNK         0.0903 
     65 H65        19.3636  -29.0118  -46.6728 H         1 UNK         0.3096 
     66 H66        18.3864  -28.0943  -45.0130 H         1 UNK         0.1121 
     67 H67        16.6124  -27.3156  -46.8352 H         1 UNK         0.0849 
     68 H68        17.2119  -25.7195  -46.5069 H         1 UNK         0.0849 
     69 H69        14.2451  -28.1493  -44.1083 H         1 UNK         0.0865 
     70 H70        14.9585  -28.5389  -45.6479 H         1 UNK         0.0865 
     71 H71        16.8349  -30.1230  -45.7611 H         1 UNK         0.1346 
     72 H72        18.2197  -31.9627  -42.1434 H         1 UNK         0.1412 
     73 H73        15.4379  -28.7057  -41.9610 H         1 UNK         0.1426 
     74 H74        15.9736  -29.8758  -39.9499 H         1 UNK         0.0716 
     75 H75        16.5599  -31.5106  -40.1075 H         1 UNK         0.0716 
     76 H76        18.3821  -27.6632  -38.9897 H         1 UNK         0.0695 
     77 H77        17.5501  -27.9329  -40.4857 H         1 UNK         0.0695 
     78 H78        19.8874  -28.5993  -41.4862 H         1 UNK         0.0983 
     79 H79        18.5134  -26.3818  -41.6634 H         1 UNK         0.3095 
     80 H80        19.0350  -24.2283  -42.5627 H         1 UNK         0.0454 
     81 H81        20.3355  -23.1393  -44.4192 H         1 UNK         0.0851 
     82 H82        21.6194  -24.3297  -44.2166 H         1 UNK         0.0851 
     83 H83        21.2415  -23.2187  -42.9163 H         1 UNK         0.0851 
     84 H84        18.0151  -25.5377  -44.0580 H         1 UNK         0.2976 
     85 H85        20.4181  -26.0245  -39.0489 H         1 UNK         0.3116 
     86 H86        22.3059  -27.5102  -37.4942 H         1 UNK         0.0646 
     87 H87        20.9688  -25.6515  -36.5434 H         1 UNK         0.0847 
     88 H88        22.6818  -25.3188  -36.3597 H         1 UNK         0.0847 
     89 H89        21.7646  -24.4938  -37.6113 H         1 UNK         0.0847 
     90 H90        22.6946  -25.3684  -40.2903 H         1 UNK         0.3040 
     91 H91        25.6185  -25.1534  -39.9940 H         1 UNK         0.1015 
     92 H92        23.7292  -24.2054  -42.2206 H         1 UNK         0.0786 
     93 H93        25.4415  -23.8301  -42.0931 H         1 UNK         0.0786 
     94 H94        24.3230  -23.2199  -40.8845 H         1 UNK         0.0786 
     95 H95        23.2069  -26.8267  -42.0028 H         1 UNK         0.3172 
     96 H96        25.0884  -28.1956  -43.7005 H         1 UNK         0.0595 
     97 H97        22.1151  -28.7130  -43.1356 H         1 UNK         0.0839 
     98 H98        23.0344  -29.3831  -44.4793 H         1 UNK         0.0839 
     99 H99        22.7673  -27.6557  -44.3854 H         1 UNK         0.0839 
    100 H100       24.1251  -28.7991  -40.4788 H         1 UNK         0.2998 
    101 H101       24.3451  -30.4163  -38.9796 H         1 UNK         0.0822 
    102 H102       26.1728  -32.0755  -39.1651 H         1 UNK         0.0787 
    103 H103       26.3765  -31.7232  -40.8736 H         1 UNK         0.0787 
    104 H104       26.7491  -30.4934  -39.6666 H         1 UNK         0.0787 
    105 H105       22.1189  -30.5002  -40.2226 H         1 UNK         0.3055 
    106 H106       20.3170  -31.5846  -40.8992 H         1 UNK         0.1106 
    107 H107       19.8543  -33.8403  -40.0112 H         1 UNK         0.0828 
    108 H108       21.5608  -34.1086  -39.6868 H         1 UNK         0.0828 
    109 H109       20.6663  -32.8831  -38.7860 H         1 UNK         0.0828 
    110 H110       22.5456  -31.3849  -42.7459 H         1 UNK         0.2931 
    111 H111       23.0187  -31.7445  -44.8416 H         1 UNK         0.0412 
    112 H112       24.6599  -35.0014  -43.5650 H         1 UNK         0.3472 
    113 H113       23.9231  -33.7425  -42.6010 H         1 UNK         0.3472 
    114 H114       20.6525  -33.6170  -45.2488 H         1 UNK         0.0970 
    115 H115       21.5430  -32.7641  -46.4711 H         1 UNK         0.0970 
    116 H116       18.7238  -32.9643  -44.2575 H         1 UNK         0.0612 
    117 H117       17.9798  -32.4123  -45.7380 H         1 UNK         0.0612 
@<TRIPOS>BOND
     1    1    2 1    
     2    1   62 1    
     3    1   63 1    
     4    1   64 1    
     5    2    3 2    
     6    2    4 am   BACKBONE|DICT|INTERRES
     7    4    5 1    
     8    4   65 1    
     9    5    6 1    
    10    5   25 1    
    11    5   66 1    
    12    6    7 1    
    13    6   67 1    
    14    6   68 1    
    15    7    8 1    
    16    8    9 1    
    17    8   69 1    
    18    8   70 1    
    19    9   10 ar   
    20    9   14 ar   
    21   10   11 ar   
    22   10   71 1    
    23   11   12 ar   
    24   11   61 1    
    25   12   13 ar   
    26   12   72 1    
    27   13   14 ar   
    28   13   15 1    
    29   14   73 1    
    30   15   16 1    
    31   15   74 1    
    32   15   75 1    
    33   16   17 1    
    34   17   18 1    
    35   17   76 1    
    36   17   77 1    
    37   18   19 1    
    38   18   27 1    
    39   18   78 1    
    40   19   20 am   BACKBONE|DICT|INTERRES
    41   19   79 1    
    42   20   21 2    
    43   20   22 1    
    44   22   23 1    
    45   22   24 1    
    46   22   80 1    
    47   23   81 1    
    48   23   82 1    
    49   23   83 1    
    50   24   25 am   BACKBONE|DICT|INTERRES
    51   24   84 1    
    52   25   26 2    
    53   27   28 2    
    54   27   29 am   BACKBONE|DICT|INTERRES
    55   29   30 1    
    56   29   85 1    
    57   30   31 1    
    58   30   32 1    
    59   30   86 1    
    60   31   87 1    
    61   31   88 1    
    62   31   89 1    
    63   32   33 2    
    64   32   34 am   BACKBONE|DICT|INTERRES
    65   34   35 1    
    66   34   90 1    
    67   35   36 1    
    68   35   37 1    
    69   35   91 1    
    70   36   92 1    
    71   36   93 1    
    72   36   94 1    
    73   37   38 2    
    74   37   39 am   BACKBONE|DICT|INTERRES
    75   39   40 1    
    76   39   95 1    
    77   40   41 1    
    78   40   42 1    
    79   40   96 1    
    80   41   97 1    
    81   41   98 1    
    82   41   99 1    
    83   42   43 2    
    84   42   44 am   BACKBONE|DICT|INTERRES
    85   44   45 1    
    86   44  100 1    
    87   45   46 1    
    88   45   47 1    
    89   45  101 1    
    90   46  102 1    
    91   46  103 1    
    92   46  104 1    
    93   47   48 2    
    94   47   49 am   BACKBONE|DICT|INTERRES
    95   49   50 1    
    96   49  105 1    
    97   50   51 1    
    98   50   52 1    
    99   50  106 1    
   100   51  107 1    
   101   51  108 1    
   102   51  109 1    
   103   52   53 2    
   104   52   54 am   BACKBONE|DICT|INTERRES
   105   54   55 1    
   106   54  110 1    
   107   55   56 1    
   108   55   59 1    
   109   55  111 1    
   110   56   57 am   BACKBONE|DICT|INTERRES
   111   56   58 2    
   112   57  112 1    
   113   57  113 1    
   114   59   60 1    
   115   59  114 1    
   116   59  115 1    
   117   60   61 1    
   118   61  116 1    
   119   61  117 1    
@<TRIPOS>SUBSTRUCTURE
     1 UNK         1 GROUP             0       ****    0 ROOT    
