@<TRIPOS>MOLECULE
3R8
117   119    1
SMALL
USER_CHARGES


@<TRIPOS>ATOM
      1 CA         18.5882  -27.9390  -41.7519 C.3       0 UNK        -0.2013 
      2 C          18.3251  -26.8893  -42.8203 C.2       0 UNK         0.4866 
      3 O          18.9446  -25.8259  -42.7880 O.2       0 UNK        -0.5176 
      4 N          17.4103  -27.1745  -43.7575 N.am      1 UNK        -0.4884 
      5 CA         16.9369  -26.2932  -44.8347 C.3       1 UNK         0.0853 
      6 C6         15.7914  -26.9202  -45.6881 C.3       10 UNK        -0.0849 
      7 S7         14.6097  -27.9698  -44.7665 S.3       10 UNK        -0.2776 
      8 C8         15.0290  -29.6326  -45.3997 C.3       10 UNK         0.0316 
      9 C9         16.3390  -30.1485  -44.8181 C.ar      10 UNK        -0.0863 
     10 C10        16.3310  -30.9368  -43.6630 C.ar      10 UNK        -0.1009 
     11 C11        17.5316  -31.3862  -43.1071 C.ar      10 UNK        -0.0712 
     12 C12        18.7429  -31.0331  -43.7043 C.ar      10 UNK        -0.0894 
     13 C13        18.7696  -30.2195  -44.8415 C.ar      10 UNK        -0.0745 
     14 C14        17.5607  -29.8199  -45.4175 C.ar      10 UNK        -0.0972 
     15 C15        20.0913  -29.7259  -45.4242 C.3       10 UNK         0.0209 
     16 S16        21.2175  -29.1349  -44.1178 S.3       10 UNK        -0.2568 
     17 C17        22.3090  -27.9505  -44.9822 C.3       10 UNK        -0.0983 
     18 CA         22.3440  -26.5227  -44.3583 C.3       3 UNK         0.0876 
     19 N          21.1832  -25.7058  -44.7330 N.am      3 UNK        -0.4424 
     20 C          21.1506  -24.8867  -45.7948 C.2       2 UNK         0.4918 
     21 O          22.0992  -24.7459  -46.5687 O.2       2 UNK        -0.4875 
     22 CA         19.8645  -24.0600  -46.0261 C.3       2 UNK         0.0481 
     23 CB         19.6372  -23.7180  -47.5144 C.3       2 UNK        -0.1831 
     24 N          18.6596  -24.6499  -45.4311 N.am      2 UNK        -0.4498 
     25 C          18.1059  -25.8332  -45.7342 C.2       1 UNK         0.5027 
     26 O          18.5114  -26.5716  -46.6339 O.2       1 UNK        -0.4969 
     27 C          22.5974  -26.5255  -42.8353 C.2       3 UNK         0.5005 
     28 O          23.4586  -27.2817  -42.3865 O.2       3 UNK        -0.5279 
     29 N          21.8638  -25.7112  -42.0584 N.am      4 UNK        -0.4463 
     30 CA         21.8115  -25.7181  -40.5871 C.3       4 UNK         0.0283 
     31 CB         20.8510  -24.6154  -40.1124 C.3       4 UNK        -0.1875 
     32 C          23.1586  -25.5956  -39.8488 C.2       4 UNK         0.4949 
     33 O          23.2539  -26.0418  -38.7057 O.2       4 UNK        -0.5039 
     34 N          24.1751  -25.0204  -40.5059 N.am      5 UNK        -0.4663 
     35 CA         25.5571  -24.9727  -40.0180 C.3       5 UNK         0.0242 
     36 CB         26.3678  -24.0044  -40.8944 C.3       5 UNK        -0.1982 
     37 C          26.2366  -26.3564  -39.9729 C.2       5 UNK         0.5017 
     38 O          27.1309  -26.5558  -39.1500 O.2       5 UNK        -0.5012 
     39 N          25.8041  -27.2751  -40.8469 N.am      6 UNK        -0.4439 
     40 CA         26.2424  -28.6691  -40.9005 C.3       6 UNK         0.0297 
     41 CB         26.5089  -29.0649  -42.3630 C.3       6 UNK        -0.2006 
     42 C          25.1915  -29.6011  -40.2773 C.2       6 UNK         0.4892 
     43 O          25.5737  -30.5065  -39.5363 O.2       6 UNK        -0.5089 
     44 N          23.9059  -29.3530  -40.5850 N.am      7 UNK        -0.4243 
     45 CA         22.7123  -30.1119  -40.1896 C.3       7 UNK         0.0196 
     46 CB         22.4712  -30.0081  -38.6698 C.3       7 UNK        -0.2007 
     47 C          22.7858  -31.5659  -40.6906 C.2       7 UNK         0.5020 
     48 O          23.1115  -32.4734  -39.9250 O.2       7 UNK        -0.5147 
     49 N          22.5300  -31.7438  -41.9939 N.am      8 UNK        -0.4734 
     50 CA         22.7544  -32.9884  -42.7411 C.3       8 UNK         0.0238 
     51 CB         22.5069  -32.7240  -44.2361 C.3       8 UNK        -0.1912 
     52 C          21.9532  -34.2222  -42.2776 C.2       8 UNK         0.5038 
     53 O          22.3929  -35.3407  -42.5492 O.2       8 UNK        -0.5046 
     54 N          20.8042  -34.0194  -41.6192 N.am      9 UNK        -0.4200 
     55 CA         19.9599  -35.1003  -41.0841 C.3       9 UNK         0.0839 
     56 C          20.6077  -35.7723  -39.8449 C.2       9 UNK         0.5513 
     57 N          20.7113  -37.0941  -39.8327 N.am      9 UNK        -0.7519 
     58 O          20.9675  -35.1077  -38.8764 O.2       9 UNK        -0.4960 
     59 C59        18.5228  -34.6207  -40.7549 C.3       10 UNK        -0.0876 
     60 S60        17.6560  -33.9893  -42.2302 S.3       10 UNK        -0.2414 
     61 C61        17.5396  -32.2194  -41.8386 C.3       10 UNK         0.0169 
     62 H62        18.4052  -27.5179  -40.7640 H         1 UNK         0.0903 
     63 H63        17.9464  -28.8105  -41.8721 H         1 UNK         0.0903 
     64 H64        19.6254  -28.2676  -41.7917 H         1 UNK         0.0903 
     65 H65        16.9721  -28.0867  -43.7525 H         1 UNK         0.3096 
     66 H66        16.5215  -25.4113  -44.3424 H         1 UNK         0.1121 
     67 H67        15.2187  -26.1169  -46.1548 H         1 UNK         0.0849 
     68 H68        16.1739  -27.5012  -46.5270 H         1 UNK         0.0849 
     69 H69        14.2177  -30.3167  -45.1459 H         1 UNK         0.0865 
     70 H70        15.0751  -29.6187  -46.4898 H         1 UNK         0.0865 
     71 H71        15.3920  -31.1939  -43.1915 H         1 UNK         0.1346 
     72 H72        19.6691  -31.3638  -43.2573 H         1 UNK         0.1412 
     73 H73        17.5788  -29.2064  -46.3068 H         1 UNK         0.1426 
     74 H74        20.5706  -30.5299  -45.9836 H         1 UNK         0.0716 
     75 H75        19.9090  -28.9125  -46.1280 H         1 UNK         0.0716 
     76 H76        23.3139  -28.3758  -44.9664 H         1 UNK         0.0695 
     77 H77        22.0369  -27.8928  -46.0370 H         1 UNK         0.0695 
     78 H78        23.2367  -26.0352  -44.7563 H         1 UNK         0.0983 
     79 H79        20.3538  -25.7956  -44.1524 H         1 UNK         0.3095 
     80 H80        20.0220  -23.1186  -45.4982 H         1 UNK         0.0454 
     81 H81        19.5536  -24.6145  -48.1292 H         1 UNK         0.0851 
     82 H82        18.7306  -23.1295  -47.6533 H         1 UNK         0.0851 
     83 H83        20.4652  -23.1302  -47.9124 H         1 UNK         0.0851 
     84 H84        18.2937  -24.1571  -44.6270 H         1 UNK         0.2976 
     85 H85        21.1668  -25.1348  -42.5088 H         1 UNK         0.3116 
     86 H86        21.3865  -26.6811  -40.2970 H         1 UNK         0.0646 
     87 H87        20.7785  -24.5993  -39.0239 H         1 UNK         0.0847 
     88 H88        19.8425  -24.7711  -40.4948 H         1 UNK         0.0847 
     89 H89        21.1836  -23.6269  -40.4311 H         1 UNK         0.0847 
     90 H90        24.0029  -24.6714  -41.4375 H         1 UNK         0.3040 
     91 H91        25.5431  -24.5838  -38.9972 H         1 UNK         0.1015 
     92 H92        25.9432  -23.0005  -40.8750 H         1 UNK         0.0786 
     93 H93        26.4060  -24.3347  -41.9334 H         1 UNK         0.0786 
     94 H94        27.3965  -23.9260  -40.5396 H         1 UNK         0.0786 
     95 H95        25.0221  -27.0340  -41.4520 H         1 UNK         0.3172 
     96 H96        27.1744  -28.7919  -40.3446 H         1 UNK         0.0595 
     97 H97        26.8397  -30.1021  -42.4316 H         1 UNK         0.0839 
     98 H98        27.2906  -28.4458  -42.8032 H         1 UNK         0.0839 
     99 H99        25.6163  -28.9659  -42.9822 H         1 UNK         0.0839 
    100 H100       23.7283  -28.5944  -41.2426 H         1 UNK         0.2998 
    101 H101       21.8642  -29.6376  -40.6869 H         1 UNK         0.0822 
    102 H102       22.3759  -28.9681  -38.3567 H         1 UNK         0.0787 
    103 H103       21.5509  -30.5204  -38.3871 H         1 UNK         0.0787 
    104 H104       23.2816  -30.4567  -38.0944 H         1 UNK         0.0787 
    105 H105       22.2840  -30.9331  -42.5470 H         1 UNK         0.3055 
    106 H106       23.8090  -33.2438  -42.6157 H         1 UNK         0.1106 
    107 H107       22.7401  -33.6072  -44.8326 H         1 UNK         0.0828 
    108 H108       21.4666  -32.4662  -44.4347 H         1 UNK         0.0828 
    109 H109       23.1318  -31.9117  -44.6081 H         1 UNK         0.0828 
    110 H110       20.5320  -33.0754  -41.3975 H         1 UNK         0.2931 
    111 H111       19.8711  -35.8554  -41.8687 H         1 UNK         0.0412 
    112 H112       21.1128  -37.5483  -39.0269 H         1 UNK         0.3472 
    113 H113       20.4121  -37.6465  -40.6219 H         1 UNK         0.3472 
    114 H114       18.5339  -33.8682  -39.9642 H         1 UNK         0.0970 
    115 H115       17.9311  -35.4511  -40.3645 H         1 UNK         0.0970 
    116 H116       18.3824  -31.9124  -41.2175 H         1 UNK         0.0612 
    117 H117       16.6395  -32.0385  -41.2491 H         1 UNK         0.0612 
@<TRIPOS>BOND
     1    1    2 1    
     2    1   62 1    
     3    1   63 1    
     4    1   64 1    
     5    2    3 2    
     6    2    4 am   BACKBONE|DICT|INTERRES
     7    4    5 1    
     8    4   65 1    
     9    5    6 1    
    10    5   25 1    
    11    5   66 1    
    12    6    7 1    
    13    6   67 1    
    14    6   68 1    
    15    7    8 1    
    16    8    9 1    
    17    8   69 1    
    18    8   70 1    
    19    9   10 ar   
    20    9   14 ar   
    21   10   11 ar   
    22   10   71 1    
    23   11   12 ar   
    24   11   61 1    
    25   12   13 ar   
    26   12   72 1    
    27   13   14 ar   
    28   13   15 1    
    29   14   73 1    
    30   15   16 1    
    31   15   74 1    
    32   15   75 1    
    33   16   17 1    
    34   17   18 1    
    35   17   76 1    
    36   17   77 1    
    37   18   19 1    
    38   18   27 1    
    39   18   78 1    
    40   19   20 am   BACKBONE|DICT|INTERRES
    41   19   79 1    
    42   20   21 2    
    43   20   22 1    
    44   22   23 1    
    45   22   24 1    
    46   22   80 1    
    47   23   81 1    
    48   23   82 1    
    49   23   83 1    
    50   24   25 am   BACKBONE|DICT|INTERRES
    51   24   84 1    
    52   25   26 2    
    53   27   28 2    
    54   27   29 am   BACKBONE|DICT|INTERRES
    55   29   30 1    
    56   29   85 1    
    57   30   31 1    
    58   30   32 1    
    59   30   86 1    
    60   31   87 1    
    61   31   88 1    
    62   31   89 1    
    63   32   33 2    
    64   32   34 am   BACKBONE|DICT|INTERRES
    65   34   35 1    
    66   34   90 1    
    67   35   36 1    
    68   35   37 1    
    69   35   91 1    
    70   36   92 1    
    71   36   93 1    
    72   36   94 1    
    73   37   38 2    
    74   37   39 am   BACKBONE|DICT|INTERRES
    75   39   40 1    
    76   39   95 1    
    77   40   41 1    
    78   40   42 1    
    79   40   96 1    
    80   41   97 1    
    81   41   98 1    
    82   41   99 1    
    83   42   43 2    
    84   42   44 am   BACKBONE|DICT|INTERRES
    85   44   45 1    
    86   44  100 1    
    87   45   46 1    
    88   45   47 1    
    89   45  101 1    
    90   46  102 1    
    91   46  103 1    
    92   46  104 1    
    93   47   48 2    
    94   47   49 am   BACKBONE|DICT|INTERRES
    95   49   50 1    
    96   49  105 1    
    97   50   51 1    
    98   50   52 1    
    99   50  106 1    
   100   51  107 1    
   101   51  108 1    
   102   51  109 1    
   103   52   53 2    
   104   52   54 am   BACKBONE|DICT|INTERRES
   105   54   55 1    
   106   54  110 1    
   107   55   56 1    
   108   55   59 1    
   109   55  111 1    
   110   56   57 am   BACKBONE|DICT|INTERRES
   111   56   58 2    
   112   57  112 1    
   113   57  113 1    
   114   59   60 1    
   115   59  114 1    
   116   59  115 1    
   117   60   61 1    
   118   61  116 1    
   119   61  117 1    
@<TRIPOS>SUBSTRUCTURE
     1 UNK         1 GROUP             0       ****    0 ROOT    
