@<TRIPOS>MOLECULE
3R8
117   119    1
SMALL
USER_CHARGES


@<TRIPOS>ATOM
      1 CA         19.0779  -26.4899  -42.1552 C.3       0 UNK        -0.2013 
      2 C          18.1366  -25.8815  -43.1823 C.2       0 UNK         0.4866 
      3 O          17.7401  -24.7240  -43.0446 O.2       0 UNK        -0.5176 
      4 N          17.7618  -26.6616  -44.2043 N.am      1 UNK        -0.4884 
      5 CA         16.8249  -26.2586  -45.2620 C.3       1 UNK         0.0853 
      6 C6         16.2948  -27.4714  -46.0677 C.3       10 UNK        -0.0849 
      7 S7         15.2804  -28.5958  -45.0435 S.3       10 UNK        -0.2776 
      8 C8         16.2322  -30.1512  -45.0665 C.3       10 UNK         0.0316 
      9 C9         17.4755  -30.0654  -44.1948 C.ar      10 UNK        -0.0863 
     10 C10        17.3797  -30.2318  -42.8103 C.ar      10 UNK        -0.1009 
     11 C11        18.5169  -30.1355  -42.0030 C.ar      10 UNK        -0.0712 
     12 C12        19.7539  -29.8509  -42.5912 C.ar      10 UNK        -0.0894 
     13 C13        19.8598  -29.6549  -43.9714 C.ar      10 UNK        -0.0745 
     14 C14        18.7203  -29.8037  -44.7703 C.ar      10 UNK        -0.0972 
     15 C15        21.1962  -29.2438  -44.5829 C.3       10 UNK         0.0209 
     16 S16        20.9846  -27.8684  -45.7567 S.3       10 UNK        -0.2568 
     17 C17        22.6072  -27.0175  -45.7893 C.3       10 UNK        -0.0983 
     18 CA         22.5541  -25.5052  -45.3883 C.3       3 UNK         0.0876 
     19 N          21.3538  -24.8261  -45.8710 N.am      3 UNK        -0.4424 
     20 C          20.9802  -24.6734  -47.1431 C.2       2 UNK         0.4918 
     21 O          21.7312  -24.8440  -48.1047 O.2       2 UNK        -0.4875 
     22 CA         19.4867  -24.3757  -47.3555 C.3       2 UNK         0.0481 
     23 CB         19.0630  -24.4702  -48.8370 C.3       2 UNK        -0.1831 
     24 N          18.7078  -25.3047  -46.5284 N.am      2 UNK        -0.4498 
     25 C          17.4151  -25.1832  -46.2011 C.2       1 UNK         0.5027 
     26 O          16.6937  -24.2657  -46.5957 O.2       1 UNK        -0.4969 
     27 C          22.5904  -25.3078  -43.8632 C.2       3 UNK         0.5005 
     28 O          21.5849  -24.8942  -43.2773 O.2       3 UNK        -0.5279 
     29 N          23.7369  -25.6058  -43.2388 N.am      4 UNK        -0.4463 
     30 CA         23.8647  -25.6950  -41.7822 C.3       4 UNK         0.0283 
     31 CB         25.3529  -25.7101  -41.3982 C.3       4 UNK        -0.1875 
     32 C          23.1745  -26.9733  -41.2878 C.2       4 UNK         0.4949 
     33 O          23.3233  -28.0124  -41.9305 O.2       4 UNK        -0.5039 
     34 N          22.4575  -26.8951  -40.1584 N.am      5 UNK        -0.4663 
     35 CA         21.6490  -27.9956  -39.6138 C.3       5 UNK         0.0242 
     36 CB         20.9615  -27.5489  -38.3147 C.3       5 UNK        -0.1982 
     37 C          22.4313  -29.3036  -39.3974 C.2       5 UNK         0.5017 
     38 O          21.9444  -30.3744  -39.7604 O.2       5 UNK        -0.5012 
     39 N          23.6611  -29.1711  -38.8850 N.am      6 UNK        -0.4439 
     40 CA         24.6082  -30.2604  -38.6363 C.3       6 UNK         0.0297 
     41 CB         25.7984  -29.7052  -37.8358 C.3       6 UNK        -0.2006 
     42 C          25.1054  -30.9980  -39.8968 C.2       6 UNK         0.4892 
     43 O          25.7159  -32.0580  -39.7535 O.2       6 UNK        -0.5089 
     44 N          24.8577  -30.4519  -41.0985 N.am      7 UNK        -0.4243 
     45 CA         25.2319  -31.0725  -42.3726 C.3       7 UNK         0.0196 
     46 CB         25.2223  -30.0138  -43.4880 C.3       7 UNK        -0.2007 
     47 C          24.3429  -32.2691  -42.7592 C.2       7 UNK         0.5020 
     48 O          24.7353  -33.0256  -43.6485 O.2       7 UNK        -0.5147 
     49 N          23.1800  -32.4318  -42.1110 N.am      8 UNK        -0.4734 
     50 CA         22.2691  -33.5543  -42.3532 C.3       8 UNK         0.0238 
     51 CB         21.2594  -33.1995  -43.4590 C.3       8 UNK        -0.1912 
     52 C          21.5491  -34.0237  -41.0835 C.2       8 UNK         0.5038 
     53 O          21.4018  -35.2339  -40.9043 O.2       8 UNK        -0.5046 
     54 N          21.1001  -33.0882  -40.2380 N.am      9 UNK        -0.4200 
     55 CA         20.3613  -33.3842  -39.0030 C.3       9 UNK         0.0839 
     56 C          21.3117  -33.6651  -37.8088 C.2       9 UNK         0.5513 
     57 N          20.8254  -34.3501  -36.7843 N.am      9 UNK        -0.7519 
     58 O          22.4678  -33.2536  -37.7828 O.2       9 UNK        -0.4960 
     59 C59        19.3378  -32.2685  -38.6656 C.3       10 UNK        -0.0876 
     60 S60        18.1217  -32.0243  -40.0104 S.3       10 UNK        -0.2414 
     61 C61        18.3955  -30.2901  -40.4938 C.3       10 UNK         0.0169 
     62 H62        19.5110  -25.7151  -41.5228 H         1 UNK         0.0903 
     63 H63        18.5436  -27.1926  -41.5172 H         1 UNK         0.0903 
     64 H64        19.8994  -27.0110  -42.6454 H         1 UNK         0.0903 
     65 H65        18.0851  -27.6202  -44.2417 H         1 UNK         0.3096 
     66 H66        15.9679  -25.7917  -44.7706 H         1 UNK         0.1121 
     67 H67        15.6600  -27.1324  -46.8891 H         1 UNK         0.0849 
     68 H68        17.1165  -28.0180  -46.5327 H         1 UNK         0.0849 
     69 H69        15.5938  -30.9588  -44.7050 H         1 UNK         0.0865 
     70 H70        16.4920  -30.4106  -46.0941 H         1 UNK         0.0865 
     71 H71        16.4176  -30.4317  -42.3583 H         1 UNK         0.1346 
     72 H72        20.6367  -29.7619  -41.9757 H         1 UNK         0.1412 
     73 H73        18.7968  -29.6755  -45.8413 H         1 UNK         0.1426 
     74 H74        21.6490  -30.0959  -45.0899 H         1 UNK         0.0716 
     75 H75        21.8859  -28.9355  -43.8001 H         1 UNK         0.0716 
     76 H76        22.9753  -27.0931  -46.8132 H         1 UNK         0.0695 
     77 H77        23.3302  -27.5712  -45.1874 H         1 UNK         0.0695 
     78 H78        23.4232  -24.9914  -45.8037 H         1 UNK         0.0983 
     79 H79        20.7095  -24.6047  -45.1205 H         1 UNK         0.3095 
     80 H80        19.3079  -23.3581  -47.0029 H         1 UNK         0.0454 
     81 H81        19.6505  -23.7910  -49.4559 H         1 UNK         0.0851 
     82 H82        18.0164  -24.2013  -48.9765 H         1 UNK         0.0851 
     83 H83        19.2054  -25.4774  -49.2299 H         1 UNK         0.0851 
     84 H84        19.2279  -26.0886  -46.1516 H         1 UNK         0.2976 
     85 H85        24.5095  -25.9664  -43.7797 H         1 UNK         0.3116 
     86 H86        23.3900  -24.8234  -41.3263 H         1 UNK         0.0646 
     87 H87        25.4760  -25.7507  -40.3152 H         1 UNK         0.0847 
     88 H88        25.8624  -24.8119  -41.7472 H         1 UNK         0.0847 
     89 H89        25.8709  -26.5745  -41.8164 H         1 UNK         0.0847 
     90 H90        22.3958  -26.0062  -39.6821 H         1 UNK         0.3040 
     91 H91        20.8703  -28.1998  -40.3479 H         1 UNK         0.1015 
     92 H92        20.3450  -28.3500  -37.9041 H         1 UNK         0.0786 
     93 H93        20.3053  -26.6954  -38.4866 H         1 UNK         0.0786 
     94 H94        21.6849  -27.2684  -37.5481 H         1 UNK         0.0786 
     95 H95        23.9741  -28.2383  -38.6596 H         1 UNK         0.3172 
     96 H96        24.0978  -31.0009  -38.0172 H         1 UNK         0.0595 
     97 H97        26.3426  -28.9447  -38.3973 H         1 UNK         0.0839 
     98 H98        26.5078  -30.4966  -37.5890 H         1 UNK         0.0839 
     99 H99        25.4738  -29.2626  -36.8939 H         1 UNK         0.0839 
    100 H100       24.3318  -29.5850  -41.1579 H         1 UNK         0.2998 
    101 H101       26.2537  -31.4463  -42.2776 H         1 UNK         0.0822 
    102 H102       25.8135  -29.1392  -43.2167 H         1 UNK         0.0787 
    103 H103       24.2108  -29.6795  -43.7172 H         1 UNK         0.0787 
    104 H104       25.6428  -30.4178  -44.4097 H         1 UNK         0.0787 
    105 H105       22.9465  -31.7877  -41.3661 H         1 UNK         0.3055 
    106 H106       22.8525  -34.4118  -42.6976 H         1 UNK         0.1106 
    107 H107       20.5999  -32.3880  -43.1560 H         1 UNK         0.0828 
    108 H108       21.7605  -32.9013  -44.3798 H         1 UNK         0.0828 
    109 H109       20.6269  -34.0557  -43.6964 H         1 UNK         0.0828 
    110 H110       21.3031  -32.1067  -40.3862 H         1 UNK         0.2931 
    111 H111       19.7865  -34.2985  -39.1665 H         1 UNK         0.0412 
    112 H112       19.8799  -34.6966  -36.7905 H         1 UNK         0.3472 
    113 H113       21.4213  -34.5365  -35.9926 H         1 UNK         0.3472 
    114 H114       18.7765  -32.5310  -37.7673 H         1 UNK         0.0970 
    115 H115       19.8505  -31.3361  -38.4279 H         1 UNK         0.0970 
    116 H116       19.2821  -29.8916  -40.0051 H         1 UNK         0.0612 
    117 H117       17.5597  -29.6892  -40.1331 H         1 UNK         0.0612 
@<TRIPOS>BOND
     1    1    2 1    
     2    1   62 1    
     3    1   63 1    
     4    1   64 1    
     5    2    3 2    
     6    2    4 am   BACKBONE|DICT|INTERRES
     7    4    5 1    
     8    4   65 1    
     9    5    6 1    
    10    5   25 1    
    11    5   66 1    
    12    6    7 1    
    13    6   67 1    
    14    6   68 1    
    15    7    8 1    
    16    8    9 1    
    17    8   69 1    
    18    8   70 1    
    19    9   10 ar   
    20    9   14 ar   
    21   10   11 ar   
    22   10   71 1    
    23   11   12 ar   
    24   11   61 1    
    25   12   13 ar   
    26   12   72 1    
    27   13   14 ar   
    28   13   15 1    
    29   14   73 1    
    30   15   16 1    
    31   15   74 1    
    32   15   75 1    
    33   16   17 1    
    34   17   18 1    
    35   17   76 1    
    36   17   77 1    
    37   18   19 1    
    38   18   27 1    
    39   18   78 1    
    40   19   20 am   BACKBONE|DICT|INTERRES
    41   19   79 1    
    42   20   21 2    
    43   20   22 1    
    44   22   23 1    
    45   22   24 1    
    46   22   80 1    
    47   23   81 1    
    48   23   82 1    
    49   23   83 1    
    50   24   25 am   BACKBONE|DICT|INTERRES
    51   24   84 1    
    52   25   26 2    
    53   27   28 2    
    54   27   29 am   BACKBONE|DICT|INTERRES
    55   29   30 1    
    56   29   85 1    
    57   30   31 1    
    58   30   32 1    
    59   30   86 1    
    60   31   87 1    
    61   31   88 1    
    62   31   89 1    
    63   32   33 2    
    64   32   34 am   BACKBONE|DICT|INTERRES
    65   34   35 1    
    66   34   90 1    
    67   35   36 1    
    68   35   37 1    
    69   35   91 1    
    70   36   92 1    
    71   36   93 1    
    72   36   94 1    
    73   37   38 2    
    74   37   39 am   BACKBONE|DICT|INTERRES
    75   39   40 1    
    76   39   95 1    
    77   40   41 1    
    78   40   42 1    
    79   40   96 1    
    80   41   97 1    
    81   41   98 1    
    82   41   99 1    
    83   42   43 2    
    84   42   44 am   BACKBONE|DICT|INTERRES
    85   44   45 1    
    86   44  100 1    
    87   45   46 1    
    88   45   47 1    
    89   45  101 1    
    90   46  102 1    
    91   46  103 1    
    92   46  104 1    
    93   47   48 2    
    94   47   49 am   BACKBONE|DICT|INTERRES
    95   49   50 1    
    96   49  105 1    
    97   50   51 1    
    98   50   52 1    
    99   50  106 1    
   100   51  107 1    
   101   51  108 1    
   102   51  109 1    
   103   52   53 2    
   104   52   54 am   BACKBONE|DICT|INTERRES
   105   54   55 1    
   106   54  110 1    
   107   55   56 1    
   108   55   59 1    
   109   55  111 1    
   110   56   57 am   BACKBONE|DICT|INTERRES
   111   56   58 2    
   112   57  112 1    
   113   57  113 1    
   114   59   60 1    
   115   59  114 1    
   116   59  115 1    
   117   60   61 1    
   118   61  116 1    
   119   61  117 1    
@<TRIPOS>SUBSTRUCTURE
     1 UNK         1 GROUP             0       ****    0 ROOT    
