@<TRIPOS>MOLECULE
3R8
117   119    1
SMALL
USER_CHARGES


@<TRIPOS>ATOM
      1 CA         17.5770  -22.8405  -42.1518 C.3       0 UNK        -0.2013 
      2 C          16.6781  -23.5752  -43.1353 C.2       0 UNK         0.4866 
      3 O          15.5573  -23.1305  -43.3868 O.2       0 UNK        -0.5176 
      4 N          17.1642  -24.6920  -43.6861 N.am      1 UNK        -0.4884 
      5 CA         16.4799  -25.5226  -44.6835 C.3       1 UNK         0.0853 
      6 C6         16.0254  -26.9086  -44.1247 C.3       10 UNK        -0.0849 
      7 S7         15.2346  -26.8368  -42.4747 S.3       10 UNK        -0.2776 
      8 C8         15.9876  -28.2464  -41.5779 C.3       10 UNK         0.0316 
      9 C9         17.5080  -28.3493  -41.7002 C.ar      10 UNK        -0.0863 
     10 C10        18.0965  -29.5899  -41.9670 C.ar      10 UNK        -0.1009 
     11 C11        19.4809  -29.7161  -42.1210 C.ar      10 UNK        -0.0712 
     12 C12        20.2805  -28.5747  -41.9916 C.ar      10 UNK        -0.0894 
     13 C13        19.7072  -27.3237  -41.7571 C.ar      10 UNK        -0.0745 
     14 C14        18.3251  -27.2210  -41.5789 C.ar      10 UNK        -0.0972 
     15 C15        20.5730  -26.0751  -41.7399 C.3       10 UNK         0.0209 
     16 S16        20.5349  -25.2434  -43.3622 S.3       10 UNK        -0.2568 
     17 C17        21.8808  -26.0694  -44.2810 C.3       10 UNK        -0.0983 
     18 CA         21.4307  -27.2788  -45.1444 C.3       3 UNK         0.0876 
     19 N          20.3464  -26.9310  -46.0663 N.am      3 UNK        -0.4424 
     20 C          19.6074  -27.8057  -46.7607 C.2       2 UNK         0.4918 
     21 O          19.7767  -29.0260  -46.7334 O.2       2 UNK        -0.4875 
     22 CA         18.4231  -27.2098  -47.5485 C.3       2 UNK         0.0481 
     23 CB         17.8154  -28.2077  -48.5514 C.3       2 UNK        -0.1831 
     24 N          17.3856  -26.7842  -46.6062 N.am      2 UNK        -0.4498 
     25 C          17.4289  -25.6479  -45.8962 C.2       1 UNK         0.5027 
     26 O          18.2316  -24.7425  -46.1438 O.2       1 UNK        -0.4969 
     27 C          22.6435  -27.8982  -45.8712 C.2       3 UNK         0.5005 
     28 O          22.8506  -27.6557  -47.0640 O.2       3 UNK        -0.5279 
     29 N          23.4470  -28.6508  -45.1144 N.am      4 UNK        -0.4463 
     30 CA         24.7069  -29.2541  -45.5456 C.3       4 UNK         0.0283 
     31 CB         24.4715  -30.6606  -46.1260 C.3       4 UNK        -0.1875 
     32 C          25.6410  -29.2659  -44.3347 C.2       4 UNK         0.4949 
     33 O          26.6858  -28.6155  -44.3580 O.2       4 UNK        -0.5039 
     34 N          25.1836  -29.9234  -43.2624 N.am      5 UNK        -0.4663 
     35 CA         25.6205  -29.6587  -41.8925 C.3       5 UNK         0.0242 
     36 CB         25.4987  -30.9578  -41.0800 C.3       5 UNK        -0.1982 
     37 C          24.7321  -28.5521  -41.2937 C.2       5 UNK         0.5017 
     38 O          23.7675  -28.1261  -41.9351 O.2       5 UNK        -0.5012 
     39 N          25.0489  -28.1225  -40.0654 N.am      6 UNK        -0.4439 
     40 CA         24.2563  -27.1453  -39.3075 C.3       6 UNK         0.0297 
     41 CB         25.0624  -26.6741  -38.0863 C.3       6 UNK        -0.2006 
     42 C          22.8762  -27.6756  -38.8681 C.2       6 UNK         0.4892 
     43 O          21.9573  -26.8774  -38.6846 O.2       6 UNK        -0.5089 
     44 N          22.7612  -28.9989  -38.7114 N.am      7 UNK        -0.4243 
     45 CA         21.5548  -29.7443  -38.3693 C.3       7 UNK         0.0196 
     46 CB         21.1860  -29.5251  -36.8886 C.3       7 UNK        -0.2007 
     47 C          21.8264  -31.2274  -38.6505 C.2       7 UNK         0.5020 
     48 O          22.9891  -31.6149  -38.7995 O.2       7 UNK        -0.5147 
     49 N          20.7555  -32.0309  -38.7049 N.am      8 UNK        -0.4734 
     50 CA         20.7076  -33.4875  -38.9285 C.3       8 UNK         0.0238 
     51 CB         21.4773  -34.2589  -37.8376 C.3       8 UNK        -0.1912 
     52 C          21.1366  -33.9376  -40.3377 C.2       8 UNK         0.5038 
     53 O          20.3947  -34.6861  -40.9744 O.2       8 UNK        -0.5046 
     54 N          22.2923  -33.4515  -40.8062 N.am      9 UNK        -0.4200 
     55 CA         22.8510  -33.6463  -42.1566 C.3       9 UNK         0.0839 
     56 C          23.2171  -35.1206  -42.5098 C.2       9 UNK         0.5513 
     57 N          23.4166  -35.9992  -41.5346 N.am      9 UNK        -0.7519 
     58 O          23.3561  -35.4699  -43.6793 O.2       9 UNK        -0.4960 
     59 C59        22.0061  -32.9467  -43.2612 C.3       10 UNK        -0.0876 
     60 S60        21.7952  -31.1537  -42.9722 S.3       10 UNK        -0.2414 
     61 C61        20.0490  -31.1012  -42.4328 C.3       10 UNK         0.0169 
     62 H62        18.5104  -23.3735  -41.9737 H         1 UNK         0.0903 
     63 H63        17.8199  -21.8494  -42.5336 H         1 UNK         0.0903 
     64 H64        17.0687  -22.7231  -41.1952 H         1 UNK         0.0903 
     65 H65        18.1243  -24.9579  -43.5052 H         1 UNK         0.3096 
     66 H66        15.5938  -25.0007  -45.0511 H         1 UNK         0.1121 
     67 H67        15.3069  -27.3676  -44.8059 H         1 UNK         0.0849 
     68 H68        16.8716  -27.5947  -44.0822 H         1 UNK         0.0849 
     69 H69        15.7270  -28.1684  -40.5217 H         1 UNK         0.0865 
     70 H70        15.5166  -29.1616  -41.9402 H         1 UNK         0.0865 
     71 H71        17.4714  -30.4669  -42.0682 H         1 UNK         0.1346 
     72 H72        21.3507  -28.6409  -42.1040 H         1 UNK         0.1412 
     73 H73        17.8794  -26.2550  -41.3866 H         1 UNK         0.1426 
     74 H74        21.5999  -26.3135  -41.4594 H         1 UNK         0.0716 
     75 H75        20.2035  -25.3866  -40.9786 H         1 UNK         0.0716 
     76 H76        22.6524  -26.3660  -43.5696 H         1 UNK         0.0695 
     77 H77        22.3442  -25.3128  -44.9171 H         1 UNK         0.0695 
     78 H78        21.0331  -28.0491  -44.4839 H         1 UNK         0.0983 
     79 H79        20.0997  -25.9506  -46.1156 H         1 UNK         0.3095 
     80 H80        18.7879  -26.3494  -48.1137 H         1 UNK         0.0454 
     81 H81        17.4113  -29.0909  -48.0551 H         1 UNK         0.0851 
     82 H82        18.5680  -28.5498  -49.2629 H         1 UNK         0.0851 
     83 H83        17.0110  -27.7498  -49.1272 H         1 UNK         0.0851 
     84 H84        16.7107  -27.4893  -46.3477 H         1 UNK         0.2976 
     85 H85        23.2616  -28.7039  -44.1184 H         1 UNK         0.3116 
     86 H86        25.1690  -28.6298  -46.3137 H         1 UNK         0.0646 
     87 H87        23.9666  -31.3189  -45.4189 H         1 UNK         0.0847 
     88 H88        25.4162  -31.1330  -46.3980 H         1 UNK         0.0847 
     89 H89        23.8609  -30.6149  -47.0278 H         1 UNK         0.0847 
     90 H90        24.3035  -30.4133  -43.3453 H         1 UNK         0.3040 
     91 H91        26.6596  -29.3216  -41.8833 H         1 UNK         0.1015 
     92 H92        24.4577  -31.2596  -40.9718 H         1 UNK         0.0786 
     93 H93        25.9083  -30.8414  -40.0762 H         1 UNK         0.0786 
     94 H94        26.0398  -31.7768  -41.5542 H         1 UNK         0.0786 
     95 H95        25.8589  -28.5107  -39.6029 H         1 UNK         0.3172 
     96 H96        24.0821  -26.2814  -39.9529 H         1 UNK         0.0595 
     97 H97        25.2842  -27.4968  -37.4052 H         1 UNK         0.0839 
     98 H98        24.5079  -25.9243  -37.5199 H         1 UNK         0.0839 
     99 H99        26.0068  -26.2181  -38.3840 H         1 UNK         0.0839 
    100 H100       23.5584  -29.5943  -38.9007 H         1 UNK         0.2998 
    101 H101       20.7396  -29.4081  -39.0140 H         1 UNK         0.0822 
    102 H102       20.9676  -28.4778  -36.6803 H         1 UNK         0.0787 
    103 H103       20.2985  -30.0960  -36.6133 H         1 UNK         0.0787 
    104 H104       21.9937  -29.8362  -36.2248 H         1 UNK         0.0787 
    105 H105       19.8495  -31.5969  -38.5882 H         1 UNK         0.3055 
    106 H106       19.6555  -33.7619  -38.8305 H         1 UNK         0.1106 
    107 H107       22.5485  -34.0580  -37.8670 H         1 UNK         0.0828 
    108 H108       21.1166  -34.0010  -36.8420 H         1 UNK         0.0828 
    109 H109       21.3481  -35.3352  -37.9591 H         1 UNK         0.0828 
    110 H110       22.8090  -32.8308  -40.1886 H         1 UNK         0.2931 
    111 H111       23.8168  -33.1433  -42.1399 H         1 UNK         0.0412 
    112 H112       23.6634  -36.9487  -41.7666 H         1 UNK         0.3472 
    113 H113       23.3177  -35.7226  -40.5711 H         1 UNK         0.3472 
    114 H114       21.0322  -33.4285  -43.3601 H         1 UNK         0.0970 
    115 H115       22.4884  -33.0564  -44.2338 H         1 UNK         0.0970 
    116 H116       19.9312  -31.7182  -41.5443 H         1 UNK         0.0612 
    117 H117       19.4420  -31.5599  -43.2148 H         1 UNK         0.0612 
@<TRIPOS>BOND
     1    1    2 1    
     2    1   62 1    
     3    1   63 1    
     4    1   64 1    
     5    2    3 2    
     6    2    4 am   BACKBONE|DICT|INTERRES
     7    4    5 1    
     8    4   65 1    
     9    5    6 1    
    10    5   25 1    
    11    5   66 1    
    12    6    7 1    
    13    6   67 1    
    14    6   68 1    
    15    7    8 1    
    16    8    9 1    
    17    8   69 1    
    18    8   70 1    
    19    9   10 ar   
    20    9   14 ar   
    21   10   11 ar   
    22   10   71 1    
    23   11   12 ar   
    24   11   61 1    
    25   12   13 ar   
    26   12   72 1    
    27   13   14 ar   
    28   13   15 1    
    29   14   73 1    
    30   15   16 1    
    31   15   74 1    
    32   15   75 1    
    33   16   17 1    
    34   17   18 1    
    35   17   76 1    
    36   17   77 1    
    37   18   19 1    
    38   18   27 1    
    39   18   78 1    
    40   19   20 am   BACKBONE|DICT|INTERRES
    41   19   79 1    
    42   20   21 2    
    43   20   22 1    
    44   22   23 1    
    45   22   24 1    
    46   22   80 1    
    47   23   81 1    
    48   23   82 1    
    49   23   83 1    
    50   24   25 am   BACKBONE|DICT|INTERRES
    51   24   84 1    
    52   25   26 2    
    53   27   28 2    
    54   27   29 am   BACKBONE|DICT|INTERRES
    55   29   30 1    
    56   29   85 1    
    57   30   31 1    
    58   30   32 1    
    59   30   86 1    
    60   31   87 1    
    61   31   88 1    
    62   31   89 1    
    63   32   33 2    
    64   32   34 am   BACKBONE|DICT|INTERRES
    65   34   35 1    
    66   34   90 1    
    67   35   36 1    
    68   35   37 1    
    69   35   91 1    
    70   36   92 1    
    71   36   93 1    
    72   36   94 1    
    73   37   38 2    
    74   37   39 am   BACKBONE|DICT|INTERRES
    75   39   40 1    
    76   39   95 1    
    77   40   41 1    
    78   40   42 1    
    79   40   96 1    
    80   41   97 1    
    81   41   98 1    
    82   41   99 1    
    83   42   43 2    
    84   42   44 am   BACKBONE|DICT|INTERRES
    85   44   45 1    
    86   44  100 1    
    87   45   46 1    
    88   45   47 1    
    89   45  101 1    
    90   46  102 1    
    91   46  103 1    
    92   46  104 1    
    93   47   48 2    
    94   47   49 am   BACKBONE|DICT|INTERRES
    95   49   50 1    
    96   49  105 1    
    97   50   51 1    
    98   50   52 1    
    99   50  106 1    
   100   51  107 1    
   101   51  108 1    
   102   51  109 1    
   103   52   53 2    
   104   52   54 am   BACKBONE|DICT|INTERRES
   105   54   55 1    
   106   54  110 1    
   107   55   56 1    
   108   55   59 1    
   109   55  111 1    
   110   56   57 am   BACKBONE|DICT|INTERRES
   111   56   58 2    
   112   57  112 1    
   113   57  113 1    
   114   59   60 1    
   115   59  114 1    
   116   59  115 1    
   117   60   61 1    
   118   61  116 1    
   119   61  117 1    
@<TRIPOS>SUBSTRUCTURE
     1 UNK         1 GROUP             0       ****    0 ROOT    
