@<TRIPOS>MOLECULE
3R8
117   119    1
SMALL
USER_CHARGES


@<TRIPOS>ATOM
      1 CA         16.7394  -23.5612  -46.4811 C.3       0 UNK        -0.2013 
      2 C          17.4739  -24.8739  -46.2556 C.2       0 UNK         0.4866 
      3 O          17.6933  -25.2568  -45.1059 O.2       0 UNK        -0.5176 
      4 N          17.8576  -25.5590  -47.3449 N.am      1 UNK        -0.4884 
      5 CA         18.5806  -26.8384  -47.3628 C.3       1 UNK         0.0853 
      6 C6         17.6725  -28.0159  -46.9112 C.3       10 UNK        -0.0849 
      7 S7         18.3827  -29.6530  -47.3027 S.3       10 UNK        -0.2776 
      8 C8         17.5207  -30.7358  -46.1166 C.3       10 UNK         0.0316 
      9 C9         17.9079  -30.4242  -44.6786 C.ar      10 UNK        -0.0863 
     10 C10        19.1414  -30.8421  -44.1735 C.ar      10 UNK        -0.1009 
     11 C11        19.5121  -30.5303  -42.8621 C.ar      10 UNK        -0.0712 
     12 C12        18.6403  -29.7910  -42.0561 C.ar      10 UNK        -0.0894 
     13 C13        17.4078  -29.3585  -42.5543 C.ar      10 UNK        -0.0745 
     14 C14        17.0393  -29.7005  -43.8583 C.ar      10 UNK        -0.0972 
     15 C15        16.4687  -28.5166  -41.7006 C.3       10 UNK         0.0209 
     16 S16        16.1498  -26.8864  -42.4581 S.3       10 UNK        -0.2568 
     17 C17        17.3192  -25.7459  -41.6386 C.3       10 UNK        -0.0983 
     18 CA         18.7949  -26.2088  -41.5601 C.3       3 UNK         0.0876 
     19 N          19.3894  -26.4771  -42.8750 N.am      3 UNK        -0.4424 
     20 C          20.6044  -27.0265  -43.0458 C.2       2 UNK         0.4918 
     21 O          21.3035  -27.4237  -42.1092 O.2       2 UNK        -0.4875 
     22 CA         21.1343  -27.1470  -44.4844 C.3       2 UNK         0.0481 
     23 CB         22.1682  -28.2737  -44.6643 C.3       2 UNK        -0.1831 
     24 N          20.0343  -27.3256  -45.4277 N.am      2 UNK        -0.4498 
     25 C          19.9225  -26.7001  -46.6053 C.2       1 UNK         0.5027 
     26 O          20.8062  -25.9898  -47.0903 O.2       1 UNK        -0.4969 
     27 C          19.6412  -25.1749  -40.7885 C.2       3 UNK         0.5005 
     28 O          20.1914  -24.2551  -41.3998 O.2       3 UNK        -0.5279 
     29 N          19.7722  -25.3771  -39.4696 N.am      4 UNK        -0.4463 
     30 CA         20.6333  -24.6574  -38.5159 C.3       4 UNK         0.0283 
     31 CB         20.3220  -23.1480  -38.4744 C.3       4 UNK        -0.1875 
     32 C          22.1430  -24.9135  -38.7026 C.2       4 UNK         0.4949 
     33 O          22.8628  -24.9526  -37.7047 O.2       4 UNK        -0.5039 
     34 N          22.5984  -25.1118  -39.9477 N.am      5 UNK        -0.4663 
     35 CA         23.9649  -25.5169  -40.2884 C.3       5 UNK         0.0242 
     36 CB         24.1995  -25.3448  -41.7983 C.3       5 UNK        -0.1982 
     37 C          24.2731  -26.9570  -39.8445 C.2       5 UNK         0.5017 
     38 O          25.3676  -27.2032  -39.3371 O.2       5 UNK        -0.5012 
     39 N          23.2931  -27.8605  -40.0190 N.am      6 UNK        -0.4439 
     40 CA         23.2959  -29.2673  -39.5945 C.3       6 UNK         0.0297 
     41 CB         23.2581  -29.3687  -38.0550 C.3       6 UNK        -0.2006 
     42 C          24.4462  -30.0781  -40.2253 C.2       6 UNK         0.4892 
     43 O          25.1768  -30.7733  -39.5172 O.2       6 UNK        -0.5089 
     44 N          24.6017  -29.9343  -41.5497 N.am      7 UNK        -0.4243 
     45 CA         25.7201  -30.4662  -42.3368 C.3       7 UNK         0.0196 
     46 CB         25.6107  -29.9473  -43.7802 C.3       7 UNK        -0.2007 
     47 C          25.8532  -32.0004  -42.3272 C.2       7 UNK         0.5020 
     48 O          26.9768  -32.5034  -42.3125 O.2       7 UNK        -0.5147 
     49 N          24.7170  -32.7070  -42.3348 N.am      8 UNK        -0.4734 
     50 CA         24.6132  -34.1698  -42.2924 C.3       8 UNK         0.0238 
     51 CB         25.2041  -34.8293  -43.5574 C.3       8 UNK        -0.1912 
     52 C          23.1462  -34.5712  -42.1155 C.2       8 UNK         0.5038 
     53 O          22.8323  -35.3618  -41.2258 O.2       8 UNK        -0.5046 
     54 N          22.2831  -33.9824  -42.9551 N.am      9 UNK        -0.4200 
     55 CA         20.8145  -34.1096  -42.9401 C.3       9 UNK         0.0839 
     56 C          20.2726  -35.4986  -43.3944 C.2       9 UNK         0.5513 
     57 N          21.0749  -36.3463  -44.0270 N.am      9 UNK        -0.7519 
     58 O          19.0988  -35.8040  -43.1996 O.2       9 UNK        -0.4960 
     59 C59        20.1568  -33.6219  -41.6126 C.3       10 UNK        -0.0876 
     60 S60        20.7970  -32.0573  -40.9103 S.3       10 UNK        -0.2414 
     61 C61        20.8820  -30.9307  -42.3379 C.3       10 UNK         0.0169 
     62 H62        16.5982  -23.3475  -47.5403 H         1 UNK         0.0903 
     63 H63        15.7584  -23.5964  -46.0082 H         1 UNK         0.0903 
     64 H64        17.3006  -22.7381  -46.0399 H         1 UNK         0.0903 
     65 H65        17.6748  -25.1623  -48.2568 H         1 UNK         0.3096 
     66 H66        18.8483  -27.0147  -48.4063 H         1 UNK         0.1121 
     67 H67        17.4303  -27.9323  -45.8524 H         1 UNK         0.0849 
     68 H68        16.7147  -27.9543  -47.4302 H         1 UNK         0.0849 
     69 H69        16.4427  -30.6432  -46.2587 H         1 UNK         0.0865 
     70 H70        17.7679  -31.7746  -46.3407 H         1 UNK         0.0865 
     71 H71        19.8193  -31.3889  -44.8141 H         1 UNK         0.1346 
     72 H72        18.9376  -29.5390  -41.0478 H         1 UNK         0.1412 
     73 H73        16.0845  -29.3693  -44.2442 H         1 UNK         0.1426 
     74 H74        16.8449  -28.3943  -40.6842 H         1 UNK         0.0716 
     75 H75        15.5192  -29.0458  -41.6093 H         1 UNK         0.0716 
     76 H76        16.9304  -25.5587  -40.6357 H         1 UNK         0.0695 
     77 H77        17.2577  -24.7914  -42.1655 H         1 UNK         0.0695 
     78 H78        18.8359  -27.1406  -40.9967 H         1 UNK         0.0983 
     79 H79        18.8724  -26.1284  -43.6769 H         1 UNK         0.3095 
     80 H80        21.6363  -26.1978  -44.6815 H         1 UNK         0.0454 
     81 H81        21.7241  -29.2549  -44.5057 H         1 UNK         0.0851 
     82 H82        22.9987  -28.1651  -43.9667 H         1 UNK         0.0851 
     83 H83        22.5909  -28.2608  -45.6688 H         1 UNK         0.0851 
     84 H84        19.2640  -27.8975  -45.1064 H         1 UNK         0.2976 
     85 H85        19.2899  -26.1712  -39.0704 H         1 UNK         0.3116 
     86 H86        20.3754  -25.0641  -37.5366 H         1 UNK         0.0646 
     87 H87        20.6082  -22.6426  -39.3970 H         1 UNK         0.0847 
     88 H88        20.8676  -22.6641  -37.6633 H         1 UNK         0.0847 
     89 H89        19.2611  -22.9649  -38.3052 H         1 UNK         0.0847 
     90 H90        21.9370  -25.0053  -40.7099 H         1 UNK         0.3040 
     91 H91        24.6538  -24.8545  -39.7592 H         1 UNK         0.1015 
     92 H92        24.0444  -24.3110  -42.1075 H         1 UNK         0.0786 
     93 H93        23.5353  -25.9738  -42.3904 H         1 UNK         0.0786 
     94 H94        25.2229  -25.6121  -42.0653 H         1 UNK         0.0786 
     95 H95        22.4690  -27.5598  -40.5339 H         1 UNK         0.3172 
     96 H96        22.3680  -29.6997  -39.9646 H         1 UNK         0.0595 
     97 H97        24.1718  -28.9849  -37.6001 H         1 UNK         0.0839 
     98 H98        23.1463  -30.4056  -37.7356 H         1 UNK         0.0839 
     99 H99        22.4182  -28.8105  -37.6416 H         1 UNK         0.0839 
    100 H100       23.9618  -29.3208  -42.0317 H         1 UNK         0.2998 
    101 H101       26.6371  -30.0630  -41.9015 H         1 UNK         0.0822 
    102 H102       26.4445  -30.3038  -44.3869 H         1 UNK         0.0787 
    103 H103       24.6916  -30.2823  -44.2626 H         1 UNK         0.0787 
    104 H104       25.6322  -28.8578  -43.8144 H         1 UNK         0.0787 
    105 H105       23.8450  -32.2009  -42.2661 H         1 UNK         0.3055 
    106 H106       25.1627  -34.5266  -41.4184 H         1 UNK         0.1106 
    107 H107       25.0226  -35.9051  -43.5582 H         1 UNK         0.0828 
    108 H108       26.2837  -34.6939  -43.6159 H         1 UNK         0.0828 
    109 H109       24.7691  -34.4229  -44.4708 H         1 UNK         0.0828 
    110 H110       22.6579  -33.4086  -43.6957 H         1 UNK         0.2931 
    111 H111       20.4736  -33.4367  -43.7256 H         1 UNK         0.0412 
    112 H112       20.7132  -37.2385  -44.3263 H         1 UNK         0.3472 
    113 H113       22.0374  -36.1073  -44.2023 H         1 UNK         0.3472 
    114 H114       19.0818  -33.4990  -41.7571 H         1 UNK         0.0970 
    115 H115       20.2653  -34.3873  -40.8423 H         1 UNK         0.0970 
    116 H116       21.4050  -30.0280  -42.0286 H         1 UNK         0.0612 
    117 H117       21.4955  -31.3649  -43.1260 H         1 UNK         0.0612 
@<TRIPOS>BOND
     1    1    2 1    
     2    1   62 1    
     3    1   63 1    
     4    1   64 1    
     5    2    3 2    
     6    2    4 am   BACKBONE|DICT|INTERRES
     7    4    5 1    
     8    4   65 1    
     9    5    6 1    
    10    5   25 1    
    11    5   66 1    
    12    6    7 1    
    13    6   67 1    
    14    6   68 1    
    15    7    8 1    
    16    8    9 1    
    17    8   69 1    
    18    8   70 1    
    19    9   10 ar   
    20    9   14 ar   
    21   10   11 ar   
    22   10   71 1    
    23   11   12 ar   
    24   11   61 1    
    25   12   13 ar   
    26   12   72 1    
    27   13   14 ar   
    28   13   15 1    
    29   14   73 1    
    30   15   16 1    
    31   15   74 1    
    32   15   75 1    
    33   16   17 1    
    34   17   18 1    
    35   17   76 1    
    36   17   77 1    
    37   18   19 1    
    38   18   27 1    
    39   18   78 1    
    40   19   20 am   BACKBONE|DICT|INTERRES
    41   19   79 1    
    42   20   21 2    
    43   20   22 1    
    44   22   23 1    
    45   22   24 1    
    46   22   80 1    
    47   23   81 1    
    48   23   82 1    
    49   23   83 1    
    50   24   25 am   BACKBONE|DICT|INTERRES
    51   24   84 1    
    52   25   26 2    
    53   27   28 2    
    54   27   29 am   BACKBONE|DICT|INTERRES
    55   29   30 1    
    56   29   85 1    
    57   30   31 1    
    58   30   32 1    
    59   30   86 1    
    60   31   87 1    
    61   31   88 1    
    62   31   89 1    
    63   32   33 2    
    64   32   34 am   BACKBONE|DICT|INTERRES
    65   34   35 1    
    66   34   90 1    
    67   35   36 1    
    68   35   37 1    
    69   35   91 1    
    70   36   92 1    
    71   36   93 1    
    72   36   94 1    
    73   37   38 2    
    74   37   39 am   BACKBONE|DICT|INTERRES
    75   39   40 1    
    76   39   95 1    
    77   40   41 1    
    78   40   42 1    
    79   40   96 1    
    80   41   97 1    
    81   41   98 1    
    82   41   99 1    
    83   42   43 2    
    84   42   44 am   BACKBONE|DICT|INTERRES
    85   44   45 1    
    86   44  100 1    
    87   45   46 1    
    88   45   47 1    
    89   45  101 1    
    90   46  102 1    
    91   46  103 1    
    92   46  104 1    
    93   47   48 2    
    94   47   49 am   BACKBONE|DICT|INTERRES
    95   49   50 1    
    96   49  105 1    
    97   50   51 1    
    98   50   52 1    
    99   50  106 1    
   100   51  107 1    
   101   51  108 1    
   102   51  109 1    
   103   52   53 2    
   104   52   54 am   BACKBONE|DICT|INTERRES
   105   54   55 1    
   106   54  110 1    
   107   55   56 1    
   108   55   59 1    
   109   55  111 1    
   110   56   57 am   BACKBONE|DICT|INTERRES
   111   56   58 2    
   112   57  112 1    
   113   57  113 1    
   114   59   60 1    
   115   59  114 1    
   116   59  115 1    
   117   60   61 1    
   118   61  116 1    
   119   61  117 1    
@<TRIPOS>SUBSTRUCTURE
     1 UNK         1 GROUP             0       ****    0 ROOT    
