@<TRIPOS>MOLECULE
3R8
117   119    1
SMALL
USER_CHARGES


@<TRIPOS>ATOM
      1 CA         15.4550  -23.2647  -41.5531 C.3       0 UNK        -0.2013 
      2 C          15.9189  -23.7382  -42.9225 C.2       0 UNK         0.4866 
      3 O          15.2737  -23.4356  -43.9269 O.2       0 UNK        -0.5176 
      4 N          17.0329  -24.4738  -42.9707 N.am      1 UNK        -0.4884 
      5 CA         17.6282  -25.0296  -44.1846 C.3       1 UNK         0.0853 
      6 C6         16.9619  -26.3529  -44.6642 C.3       10 UNK        -0.0849 
      7 S7         16.5063  -27.5260  -43.3347 S.3       10 UNK        -0.2776 
      8 C8         15.8464  -28.9458  -44.2667 C.3       10 UNK         0.0316 
      9 C9         16.9572  -29.8807  -44.7217 C.ar      10 UNK        -0.0863 
     10 C10        17.3493  -30.9621  -43.9247 C.ar      10 UNK        -0.1009 
     11 C11        18.3947  -31.8011  -44.3264 C.ar      10 UNK        -0.0712 
     12 C12        19.0428  -31.5561  -45.5413 C.ar      10 UNK        -0.0894 
     13 C13        18.6522  -30.4832  -46.3473 C.ar      10 UNK        -0.0745 
     14 C14        17.5994  -29.6610  -45.9408 C.ar      10 UNK        -0.0972 
     15 C15        19.3636  -30.1940  -47.6568 C.3       10 UNK         0.0209 
     16 S16        20.3219  -28.6511  -47.5545 S.3       10 UNK        -0.2568 
     17 C17        21.7922  -29.1755  -46.6014 C.3       10 UNK        -0.0983 
     18 CA         22.1749  -28.2837  -45.3822 C.3       3 UNK         0.0876 
     19 N          21.6382  -26.9216  -45.4299 N.am      3 UNK        -0.4424 
     20 C          22.1278  -25.8979  -44.7204 C.2       2 UNK         0.4918 
     21 O          23.1012  -25.9903  -43.9735 O.2       2 UNK        -0.4875 
     22 CA         21.3941  -24.5547  -44.8407 C.3       2 UNK         0.0481 
     23 CB         21.9233  -23.7620  -46.0459 C.3       2 UNK        -0.1831 
     24 N          19.9356  -24.6823  -44.9349 N.am      2 UNK        -0.4498 
     25 C          19.1450  -25.1454  -43.9549 C.2       1 UNK         0.5027 
     26 O          19.5720  -25.6150  -42.8964 O.2       1 UNK        -0.4969 
     27 C          21.9482  -28.9595  -44.0135 C.2       3 UNK         0.5005 
     28 O          22.8340  -29.6921  -43.5739 O.2       3 UNK        -0.5279 
     29 N          20.8416  -28.6455  -43.3187 N.am      4 UNK        -0.4463 
     30 CA         20.6183  -29.0709  -41.9317 C.3       4 UNK         0.0283 
     31 CB         19.1700  -28.8239  -41.4974 C.3       4 UNK        -0.1875 
     32 C          21.5790  -28.3936  -40.9506 C.2       4 UNK         0.4949 
     33 O          22.0980  -29.0665  -40.0634 O.2       4 UNK        -0.5039 
     34 N          21.8279  -27.0900  -41.1380 N.am      5 UNK        -0.4663 
     35 CA         22.7965  -26.3281  -40.3440 C.3       5 UNK         0.0242 
     36 CB         22.6788  -24.8321  -40.6770 C.3       5 UNK        -0.1982 
     37 C          24.2416  -26.8279  -40.5287 C.2       5 UNK         0.5017 
     38 O          24.9978  -26.8584  -39.5574 O.2       5 UNK        -0.5012 
     39 N          24.5866  -27.2235  -41.7615 N.am      6 UNK        -0.4439 
     40 CA         25.8847  -27.7877  -42.1246 C.3       6 UNK         0.0297 
     41 CB         26.0753  -27.7054  -43.6484 C.3       6 UNK        -0.2006 
     42 C          26.0771  -29.2305  -41.6251 C.2       6 UNK         0.4892 
     43 O          27.0731  -29.5031  -40.9536 O.2       6 UNK        -0.5089 
     44 N          25.1561  -30.1348  -41.9898 N.am      7 UNK        -0.4243 
     45 CA         25.3018  -31.5788  -41.7719 C.3       7 UNK         0.0196 
     46 CB         24.5705  -32.3324  -42.8957 C.3       7 UNK        -0.2007 
     47 C          24.8021  -32.0656  -40.4026 C.2       7 UNK         0.5020 
     48 O          25.1313  -33.1904  -40.0253 O.2       7 UNK        -0.5147 
     49 N          23.9990  -31.2504  -39.7024 N.am      8 UNK        -0.4734 
     50 CA         23.3038  -31.5574  -38.4417 C.3       8 UNK         0.0238 
     51 CB         24.3015  -31.8657  -37.3036 C.3       8 UNK        -0.1912 
     52 C          22.2067  -32.6340  -38.5882 C.2       8 UNK         0.5038 
     53 O          21.8327  -33.2576  -37.5927 O.2       8 UNK        -0.5046 
     54 N          21.7076  -32.8340  -39.8157 N.am      9 UNK        -0.4200 
     55 CA         20.6010  -33.7429  -40.1419 C.3       9 UNK         0.0839 
     56 C          19.2146  -33.2059  -39.6857 C.2       9 UNK         0.5513 
     57 N          18.2189  -34.0772  -39.5919 N.am      9 UNK        -0.7519 
     58 O          19.0233  -32.0173  -39.4370 O.2       9 UNK        -0.4960 
     59 C59        20.6246  -34.1580  -41.6389 C.3       10 UNK        -0.0876 
     60 S60        20.5079  -32.7629  -42.8115 S.3       10 UNK        -0.2414 
     61 C61        18.8187  -32.9753  -43.4544 C.3       10 UNK         0.0169 
     62 H62        14.4542  -23.6426  -41.3455 H         1 UNK         0.0903 
     63 H63        16.1174  -23.6062  -40.7578 H         1 UNK         0.0903 
     64 H64        15.4218  -22.1759  -41.5232 H         1 UNK         0.0903 
     65 H65        17.5483  -24.6919  -42.1271 H         1 UNK         0.3096 
     66 H66        17.4923  -24.2925  -44.9798 H         1 UNK         0.1121 
     67 H67        16.0433  -26.1065  -45.1989 H         1 UNK         0.0849 
     68 H68        17.5982  -26.8568  -45.3924 H         1 UNK         0.0849 
     69 H69        15.1477  -29.4884  -43.6280 H         1 UNK         0.0865 
     70 H70        15.2641  -28.5950  -45.1202 H         1 UNK         0.0865 
     71 H71        16.8509  -31.1391  -42.9813 H         1 UNK         0.1346 
     72 H72        19.8570  -32.1972  -45.8501 H         1 UNK         0.1412 
     73 H73        17.2969  -28.8351  -46.5695 H         1 UNK         0.1426 
     74 H74        18.6226  -30.0968  -48.4516 H         1 UNK         0.0716 
     75 H75        20.0175  -31.0182  -47.9464 H         1 UNK         0.0716 
     76 H76        21.6877  -30.2223  -46.3091 H         1 UNK         0.0695 
     77 H77        22.6222  -29.1714  -47.3097 H         1 UNK         0.0695 
     78 H78        23.2596  -28.1682  -45.4428 H         1 UNK         0.0983 
     79 H79        20.8445  -26.7781  -46.0380 H         1 UNK         0.3095 
     80 H80        21.6162  -23.9812  -43.9382 H         1 UNK         0.0454 
     81 H81        23.0056  -23.6380  -45.9857 H         1 UNK         0.0851 
     82 H82        21.7057  -24.2633  -46.9898 H         1 UNK         0.0851 
     83 H83        21.4884  -22.7632  -46.0870 H         1 UNK         0.0851 
     84 H84        19.5090  -24.3148  -45.7738 H         1 UNK         0.2976 
     85 H85        20.1661  -28.0121  -43.7214 H         1 UNK         0.3116 
     86 H86        20.8025  -30.1429  -41.8731 H         1 UNK         0.0646 
     87 H87        19.0059  -29.1774  -40.4785 H         1 UNK         0.0847 
     88 H88        18.4731  -29.3613  -42.1333 H         1 UNK         0.0847 
     89 H89        18.9087  -27.7664  -41.5214 H         1 UNK         0.0847 
     90 H90        21.3324  -26.5975  -41.8718 H         1 UNK         0.3040 
     91 H91        22.5382  -26.4623  -39.2911 H         1 UNK         0.1015 
     92 H92        21.6662  -24.4659  -40.5060 H         1 UNK         0.0786 
     93 H93        22.9387  -24.6235  -41.7146 H         1 UNK         0.0786 
     94 H94        23.3480  -24.2414  -40.0501 H         1 UNK         0.0786 
     95 H95        23.9157  -27.0835  -42.5106 H         1 UNK         0.3172 
     96 H96        26.6588  -27.1706  -41.6631 H         1 UNK         0.0595 
     97 H97        27.0566  -28.0828  -43.9391 H         1 UNK         0.0839 
     98 H98        26.0060  -26.6763  -44.0016 H         1 UNK         0.0839 
     99 H99        25.3295  -28.2925  -44.1842 H         1 UNK         0.0839 
    100 H100       24.3482  -29.8425  -42.5386 H         1 UNK         0.2998 
    101 H101       26.3608  -31.8389  -41.8369 H         1 UNK         0.0822 
    102 H102       24.9277  -32.0259  -43.8789 H         1 UNK         0.0787 
    103 H103       24.7282  -33.4086  -42.8138 H         1 UNK         0.0787 
    104 H104       23.4947  -32.1599  -42.8624 H         1 UNK         0.0787 
    105 H105       23.7480  -30.3555  -40.1106 H         1 UNK         0.3055 
    106 H106       22.7755  -30.6466  -38.1577 H         1 UNK         0.1106 
    107 H107       24.8010  -32.8241  -37.4460 H         1 UNK         0.0828 
    108 H108       25.0675  -31.0941  -37.2275 H         1 UNK         0.0828 
    109 H109       23.7921  -31.9095  -36.3402 H         1 UNK         0.0828 
    110 H110       22.0371  -32.2506  -40.5698 H         1 UNK         0.2931 
    111 H111       20.7734  -34.6549  -39.5666 H         1 UNK         0.0412 
    112 H112       18.3589  -35.0567  -39.7855 H         1 UNK         0.3472 
    113 H113       17.3099  -33.7500  -39.3037 H         1 UNK         0.3472 
    114 H114       21.5587  -34.6814  -41.8485 H         1 UNK         0.0970 
    115 H115       19.8386  -34.8853  -41.8495 H         1 UNK         0.0970 
    116 H116       18.7676  -33.8961  -44.0368 H         1 UNK         0.0612 
    117 H117       18.1305  -33.0960  -42.6164 H         1 UNK         0.0612 
@<TRIPOS>BOND
     1    1    2 1    
     2    1   62 1    
     3    1   63 1    
     4    1   64 1    
     5    2    3 2    
     6    2    4 am   BACKBONE|DICT|INTERRES
     7    4    5 1    
     8    4   65 1    
     9    5    6 1    
    10    5   25 1    
    11    5   66 1    
    12    6    7 1    
    13    6   67 1    
    14    6   68 1    
    15    7    8 1    
    16    8    9 1    
    17    8   69 1    
    18    8   70 1    
    19    9   10 ar   
    20    9   14 ar   
    21   10   11 ar   
    22   10   71 1    
    23   11   12 ar   
    24   11   61 1    
    25   12   13 ar   
    26   12   72 1    
    27   13   14 ar   
    28   13   15 1    
    29   14   73 1    
    30   15   16 1    
    31   15   74 1    
    32   15   75 1    
    33   16   17 1    
    34   17   18 1    
    35   17   76 1    
    36   17   77 1    
    37   18   19 1    
    38   18   27 1    
    39   18   78 1    
    40   19   20 am   BACKBONE|DICT|INTERRES
    41   19   79 1    
    42   20   21 2    
    43   20   22 1    
    44   22   23 1    
    45   22   24 1    
    46   22   80 1    
    47   23   81 1    
    48   23   82 1    
    49   23   83 1    
    50   24   25 am   BACKBONE|DICT|INTERRES
    51   24   84 1    
    52   25   26 2    
    53   27   28 2    
    54   27   29 am   BACKBONE|DICT|INTERRES
    55   29   30 1    
    56   29   85 1    
    57   30   31 1    
    58   30   32 1    
    59   30   86 1    
    60   31   87 1    
    61   31   88 1    
    62   31   89 1    
    63   32   33 2    
    64   32   34 am   BACKBONE|DICT|INTERRES
    65   34   35 1    
    66   34   90 1    
    67   35   36 1    
    68   35   37 1    
    69   35   91 1    
    70   36   92 1    
    71   36   93 1    
    72   36   94 1    
    73   37   38 2    
    74   37   39 am   BACKBONE|DICT|INTERRES
    75   39   40 1    
    76   39   95 1    
    77   40   41 1    
    78   40   42 1    
    79   40   96 1    
    80   41   97 1    
    81   41   98 1    
    82   41   99 1    
    83   42   43 2    
    84   42   44 am   BACKBONE|DICT|INTERRES
    85   44   45 1    
    86   44  100 1    
    87   45   46 1    
    88   45   47 1    
    89   45  101 1    
    90   46  102 1    
    91   46  103 1    
    92   46  104 1    
    93   47   48 2    
    94   47   49 am   BACKBONE|DICT|INTERRES
    95   49   50 1    
    96   49  105 1    
    97   50   51 1    
    98   50   52 1    
    99   50  106 1    
   100   51  107 1    
   101   51  108 1    
   102   51  109 1    
   103   52   53 2    
   104   52   54 am   BACKBONE|DICT|INTERRES
   105   54   55 1    
   106   54  110 1    
   107   55   56 1    
   108   55   59 1    
   109   55  111 1    
   110   56   57 am   BACKBONE|DICT|INTERRES
   111   56   58 2    
   112   57  112 1    
   113   57  113 1    
   114   59   60 1    
   115   59  114 1    
   116   59  115 1    
   117   60   61 1    
   118   61  116 1    
   119   61  117 1    
@<TRIPOS>SUBSTRUCTURE
     1 UNK         1 GROUP             0       ****    0 ROOT    
