@<TRIPOS>MOLECULE
3R8
117   119    1
SMALL
USER_CHARGES


@<TRIPOS>ATOM
      1 CA         18.3449  -23.2913  -48.8162 C.3       0 UNK        -0.2013 
      2 C          18.6938  -24.7582  -48.6141 C.2       0 UNK         0.4866 
      3 O          19.6028  -25.2670  -49.2703 O.2       0 UNK        -0.5176 
      4 N          17.9777  -25.4429  -47.7115 N.am      1 UNK        -0.4884 
      5 CA         18.1842  -26.8610  -47.3830 C.3       1 UNK         0.0853 
      6 C6         16.9388  -27.4530  -46.6722 C.3       10 UNK        -0.0849 
      7 S7         16.7808  -29.2553  -46.9146 S.3       10 UNK        -0.2776 
      8 C8         15.4529  -29.6762  -45.7407 C.3       10 UNK         0.0316 
      9 C9         15.9140  -29.5807  -44.2929 C.ar      10 UNK        -0.0863 
     10 C10        16.6743  -30.6082  -43.7249 C.ar      10 UNK        -0.1009 
     11 C11        17.0945  -30.5268  -42.3934 C.ar      10 UNK        -0.0712 
     12 C12        16.7329  -29.4172  -41.6236 C.ar      10 UNK        -0.0894 
     13 C13        16.0103  -28.3654  -42.1937 C.ar      10 UNK        -0.0745 
     14 C14        15.5860  -28.4620  -43.5217 C.ar      10 UNK        -0.0972 
     15 C15        15.7185  -27.1041  -41.3959 C.3       10 UNK         0.0209 
     16 S16        16.9324  -25.7958  -41.7738 S.3       10 UNK        -0.2568 
     17 C17        18.3661  -26.2857  -40.7543 C.3       10 UNK        -0.0983 
     18 CA         19.4188  -27.1307  -41.5203 C.3       3 UNK         0.0876 
     19 N          19.9166  -26.4421  -42.7165 N.am      3 UNK        -0.4424 
     20 C          20.7001  -26.9856  -43.6581 C.2       2 UNK         0.4918 
     21 O          21.1157  -28.1442  -43.6334 O.2       2 UNK        -0.4875 
     22 CA         21.0250  -26.0728  -44.8527 C.3       2 UNK         0.0481 
     23 CB         22.3751  -26.4148  -45.5196 C.3       2 UNK        -0.1831 
     24 N          19.9195  -26.0755  -45.8190 N.am      2 UNK        -0.4498 
     25 C          19.4736  -27.1039  -46.5629 C.2       1 UNK         0.5027 
     26 O          20.0290  -28.2004  -46.6347 O.2       1 UNK        -0.4969 
     27 C          20.5487  -27.5921  -40.5719 C.2       3 UNK         0.5005 
     28 O          21.6871  -27.1381  -40.6985 O.2       3 UNK        -0.5279 
     29 N          20.1899  -28.4662  -39.6183 N.am      4 UNK        -0.4463 
     30 CA         21.0422  -29.2909  -38.7450 C.3       4 UNK         0.0283 
     31 CB         20.1294  -30.1811  -37.8823 C.3       4 UNK        -0.1875 
     32 C          22.1182  -28.5984  -37.8783 C.2       4 UNK         0.4949 
     33 O          22.8243  -29.2906  -37.1436 O.2       4 UNK        -0.5039 
     34 N          22.2681  -27.2735  -37.9860 N.am      5 UNK        -0.4663 
     35 CA         23.4815  -26.5573  -37.5836 C.3       5 UNK         0.0242 
     36 CB         23.1926  -25.0483  -37.5484 C.3       5 UNK        -0.1982 
     37 C          24.6584  -26.8663  -38.5331 C.2       5 UNK         0.5017 
     38 O          25.8063  -26.8823  -38.0873 O.2       5 UNK        -0.5012 
     39 N          24.3475  -27.1274  -39.8109 N.am      6 UNK        -0.4439 
     40 CA         25.2612  -27.6519  -40.8211 C.3       6 UNK         0.0297 
     41 CB         24.8145  -27.1405  -42.2019 C.3       6 UNK        -0.2006 
     42 C          25.2458  -29.1887  -40.7975 C.2       6 UNK         0.4892 
     43 O          24.2611  -29.7974  -40.3727 O.2       6 UNK        -0.5089 
     44 N          26.3264  -29.7924  -41.3071 N.am      7 UNK        -0.4243 
     45 CA         26.5120  -31.2462  -41.3927 C.3       7 UNK         0.0196 
     46 CB         27.9992  -31.5400  -41.6532 C.3       7 UNK        -0.2007 
     47 C          25.6328  -31.9440  -42.4503 C.2       7 UNK         0.5020 
     48 O          25.5829  -33.1741  -42.4646 O.2       7 UNK        -0.5147 
     49 N          24.9643  -31.1690  -43.3173 N.am      8 UNK        -0.4734 
     50 CA         24.1362  -31.6384  -44.4357 C.3       8 UNK         0.0238 
     51 CB         23.6145  -30.4216  -45.2173 C.3       8 UNK        -0.1912 
     52 C          22.9696  -32.5652  -44.0422 C.2       8 UNK         0.5038 
     53 O          22.5850  -33.4121  -44.8500 O.2       8 UNK        -0.5046 
     54 N          22.4470  -32.4078  -42.8195 N.am      9 UNK        -0.4200 
     55 CA         21.4195  -33.2848  -42.2325 C.3       9 UNK         0.0839 
     56 C          21.9709  -34.6361  -41.6884 C.2       9 UNK         0.5513 
     57 N          23.2770  -34.8778  -41.6684 N.am      9 UNK        -0.7519 
     58 O          21.1906  -35.4932  -41.2819 O.2       9 UNK        -0.4960 
     59 C59        20.5752  -32.5489  -41.1593 C.3       10 UNK        -0.0876 
     60 S60        19.7216  -31.0898  -41.8420 S.3       10 UNK        -0.2414 
     61 C61        17.9798  -31.6104  -41.7982 C.3       10 UNK         0.0169 
     62 H62        18.0680  -23.1115  -49.8548 H         1 UNK         0.0903 
     63 H63        17.5134  -22.9778  -48.1854 H         1 UNK         0.0903 
     64 H64        19.2049  -22.6652  -48.5800 H         1 UNK         0.0903 
     65 H65        17.2347  -24.9748  -47.2108 H         1 UNK         0.3096 
     66 H66        18.3152  -27.3872  -48.3320 H         1 UNK         0.1121 
     67 H67        16.0275  -27.0048  -47.0720 H         1 UNK         0.0849 
     68 H68        16.9488  -27.2141  -45.6075 H         1 UNK         0.0849 
     69 H69        14.5914  -29.0301  -45.9175 H         1 UNK         0.0865 
     70 H70        15.1134  -30.6929  -45.9441 H         1 UNK         0.0865 
     71 H71        16.9545  -31.4621  -44.3267 H         1 UNK         0.1346 
     72 H72        17.0616  -29.3496  -40.5962 H         1 UNK         0.1412 
     73 H73        15.0202  -27.6516  -43.9612 H         1 UNK         0.1426 
     74 H74        15.7048  -27.3108  -40.3248 H         1 UNK         0.0716 
     75 H75        14.7211  -26.7392  -41.6460 H         1 UNK         0.0716 
     76 H76        18.8271  -25.3722  -40.3735 H         1 UNK         0.0695 
     77 H77        17.9950  -26.8168  -39.8764 H         1 UNK         0.0695 
     78 H78        18.9440  -28.0396  -41.8871 H         1 UNK         0.0983 
     79 H79        19.6163  -25.4851  -42.8242 H         1 UNK         0.3095 
     80 H80        21.1039  -25.0519  -44.4755 H         1 UNK         0.0454 
     81 H81        23.1929  -26.3125  -44.8058 H         1 UNK         0.0851 
     82 H82        22.4061  -27.4379  -45.8947 H         1 UNK         0.0851 
     83 H83        22.5855  -25.7463  -46.3540 H         1 UNK         0.0851 
     84 H84        19.3814  -25.2217  -45.8629 H         1 UNK         0.2976 
     85 H85        19.2129  -28.7139  -39.5821 H         1 UNK         0.3116 
     86 H86        21.6009  -29.9470  -39.4147 H         1 UNK         0.0646 
     87 H87        20.7107  -30.8719  -37.2699 H         1 UNK         0.0847 
     88 H88        19.4666  -30.7893  -38.4984 H         1 UNK         0.0847 
     89 H89        19.5132  -29.5872  -37.2064 H         1 UNK         0.0847 
     90 H90        21.6815  -26.8114  -38.6693 H         1 UNK         0.3040 
     91 H91        23.7661  -26.8806  -36.5796 H         1 UNK         0.1015 
     92 H92        22.3949  -24.8138  -36.8433 H         1 UNK         0.0786 
     93 H93        22.8976  -24.6702  -38.5282 H         1 UNK         0.0786 
     94 H94        24.0762  -24.4903  -37.2352 H         1 UNK         0.0786 
     95 H95        23.3616  -27.1399  -40.0741 H         1 UNK         0.3172 
     96 H96        26.2746  -27.2979  -40.6205 H         1 UNK         0.0595 
     97 H97        24.7818  -26.0512  -42.2294 H         1 UNK         0.0839 
     98 H98        23.8217  -27.5092  -42.4662 H         1 UNK         0.0839 
     99 H99        25.5017  -27.4623  -42.9852 H         1 UNK         0.0839 
    100 H100       27.0851  -29.2211  -41.6520 H         1 UNK         0.2998 
    101 H101       26.2447  -31.6776  -40.4254 H         1 UNK         0.0822 
    102 H102       28.6304  -31.1238  -40.8677 H         1 UNK         0.0787 
    103 H103       28.1879  -32.6143  -41.6799 H         1 UNK         0.0787 
    104 H104       28.3311  -31.1277  -42.6069 H         1 UNK         0.0787 
    105 H105       25.0585  -30.1696  -43.2158 H         1 UNK         0.3055 
    106 H106       24.7862  -32.2161  -45.0966 H         1 UNK         0.1106 
    107 H107       22.9920  -29.7808  -44.5921 H         1 UNK         0.0828 
    108 H108       24.4319  -29.8173  -45.6105 H         1 UNK         0.0828 
    109 H109       23.0057  -30.7325  -46.0677 H         1 UNK         0.0828 
    110 H110       22.8218  -31.6859  -42.2213 H         1 UNK         0.2931 
    111 H111       20.7312  -33.5609  -43.0340 H         1 UNK         0.0412 
    112 H112       23.6045  -35.7629  -41.3155 H         1 UNK         0.3472 
    113 H113       23.9478  -34.1965  -42.0085 H         1 UNK         0.3472 
    114 H114       21.2105  -32.2246  -40.3336 H         1 UNK         0.0970 
    115 H115       19.8331  -33.2194  -40.7216 H         1 UNK         0.0970 
    116 H116       17.6833  -31.8119  -40.7677 H         1 UNK         0.0612 
    117 H117       17.8657  -32.5453  -42.3492 H         1 UNK         0.0612 
@<TRIPOS>BOND
     1    1    2 1    
     2    1   62 1    
     3    1   63 1    
     4    1   64 1    
     5    2    3 2    
     6    2    4 am   BACKBONE|DICT|INTERRES
     7    4    5 1    
     8    4   65 1    
     9    5    6 1    
    10    5   25 1    
    11    5   66 1    
    12    6    7 1    
    13    6   67 1    
    14    6   68 1    
    15    7    8 1    
    16    8    9 1    
    17    8   69 1    
    18    8   70 1    
    19    9   10 ar   
    20    9   14 ar   
    21   10   11 ar   
    22   10   71 1    
    23   11   12 ar   
    24   11   61 1    
    25   12   13 ar   
    26   12   72 1    
    27   13   14 ar   
    28   13   15 1    
    29   14   73 1    
    30   15   16 1    
    31   15   74 1    
    32   15   75 1    
    33   16   17 1    
    34   17   18 1    
    35   17   76 1    
    36   17   77 1    
    37   18   19 1    
    38   18   27 1    
    39   18   78 1    
    40   19   20 am   BACKBONE|DICT|INTERRES
    41   19   79 1    
    42   20   21 2    
    43   20   22 1    
    44   22   23 1    
    45   22   24 1    
    46   22   80 1    
    47   23   81 1    
    48   23   82 1    
    49   23   83 1    
    50   24   25 am   BACKBONE|DICT|INTERRES
    51   24   84 1    
    52   25   26 2    
    53   27   28 2    
    54   27   29 am   BACKBONE|DICT|INTERRES
    55   29   30 1    
    56   29   85 1    
    57   30   31 1    
    58   30   32 1    
    59   30   86 1    
    60   31   87 1    
    61   31   88 1    
    62   31   89 1    
    63   32   33 2    
    64   32   34 am   BACKBONE|DICT|INTERRES
    65   34   35 1    
    66   34   90 1    
    67   35   36 1    
    68   35   37 1    
    69   35   91 1    
    70   36   92 1    
    71   36   93 1    
    72   36   94 1    
    73   37   38 2    
    74   37   39 am   BACKBONE|DICT|INTERRES
    75   39   40 1    
    76   39   95 1    
    77   40   41 1    
    78   40   42 1    
    79   40   96 1    
    80   41   97 1    
    81   41   98 1    
    82   41   99 1    
    83   42   43 2    
    84   42   44 am   BACKBONE|DICT|INTERRES
    85   44   45 1    
    86   44  100 1    
    87   45   46 1    
    88   45   47 1    
    89   45  101 1    
    90   46  102 1    
    91   46  103 1    
    92   46  104 1    
    93   47   48 2    
    94   47   49 am   BACKBONE|DICT|INTERRES
    95   49   50 1    
    96   49  105 1    
    97   50   51 1    
    98   50   52 1    
    99   50  106 1    
   100   51  107 1    
   101   51  108 1    
   102   51  109 1    
   103   52   53 2    
   104   52   54 am   BACKBONE|DICT|INTERRES
   105   54   55 1    
   106   54  110 1    
   107   55   56 1    
   108   55   59 1    
   109   55  111 1    
   110   56   57 am   BACKBONE|DICT|INTERRES
   111   56   58 2    
   112   57  112 1    
   113   57  113 1    
   114   59   60 1    
   115   59  114 1    
   116   59  115 1    
   117   60   61 1    
   118   61  116 1    
   119   61  117 1    
@<TRIPOS>SUBSTRUCTURE
     1 UNK         1 GROUP             0       ****    0 ROOT    
