@<TRIPOS>MOLECULE
3R8
117   119    1
SMALL
USER_CHARGES


@<TRIPOS>ATOM
      1 CA         15.7155  -26.1447  -39.7853 C.3       0 UNK        -0.2013 
      2 C          15.9828  -25.7708  -41.2357 C.2       0 UNK         0.4866 
      3 O          15.8520  -24.6018  -41.6009 O.2       0 UNK        -0.5176 
      4 N          16.3491  -26.7554  -42.0661 N.am      1 UNK        -0.4884 
      5 CA         16.7374  -26.5632  -43.4677 C.3       1 UNK         0.0853 
      6 C6         16.6214  -27.8902  -44.2585 C.3       10 UNK        -0.0849 
      7 S7         16.2940  -27.6116  -46.0314 S.3       10 UNK        -0.2776 
      8 C8         16.0085  -29.3162  -46.6101 C.3       10 UNK         0.0316 
      9 C9         17.2525  -30.1760  -46.4451 C.ar      10 UNK        -0.0863 
     10 C10        17.3000  -31.1771  -45.4687 C.ar      10 UNK        -0.1009 
     11 C11        18.4623  -31.9328  -45.2880 C.ar      10 UNK        -0.0712 
     12 C12        19.5767  -31.6868  -46.0939 C.ar      10 UNK        -0.0894 
     13 C13        19.5440  -30.6790  -47.0614 C.ar      10 UNK        -0.0745 
     14 C14        18.3726  -29.9412  -47.2477 C.ar      10 UNK        -0.0972 
     15 C15        20.7949  -30.3465  -47.8603 C.3       10 UNK         0.0209 
     16 S16        21.5102  -28.7445  -47.3617 S.3       10 UNK        -0.2568 
     17 C17        21.8169  -28.9986  -45.5778 C.3       10 UNK        -0.0983 
     18 CA         22.0558  -27.6707  -44.8210 C.3       3 UNK         0.0876 
     19 N          20.9413  -26.7327  -44.9864 N.am      3 UNK        -0.4424 
     20 C          21.0146  -25.4131  -44.7734 C.2       2 UNK         0.4918 
     21 O          22.0413  -24.8364  -44.4134 O.2       2 UNK        -0.4875 
     22 CA         19.7203  -24.5987  -44.9677 C.3       2 UNK         0.0481 
     23 CB         19.6736  -24.0130  -46.3878 C.3       2 UNK        -0.1831 
     24 N          18.4705  -25.3279  -44.7058 N.am      2 UNK        -0.4498 
     25 C          18.1557  -25.9567  -43.5640 C.2       1 UNK         0.5027 
     26 O          18.9454  -26.0897  -42.6263 O.2       1 UNK        -0.4969 
     27 C          22.4030  -27.9522  -43.3418 C.2       3 UNK         0.5005 
     28 O          23.4674  -28.5211  -43.0935 O.2       3 UNK        -0.5279 
     29 N          21.5497  -27.5459  -42.3829 N.am      4 UNK        -0.4463 
     30 CA         21.7215  -27.7838  -40.9411 C.3       4 UNK         0.0283 
     31 CB         20.5100  -27.2408  -40.1679 C.3       4 UNK        -0.1875 
     32 C          23.0280  -27.2318  -40.3420 C.2       4 UNK         0.4949 
     33 O          23.5011  -27.7622  -39.3374 O.2       4 UNK        -0.5039 
     34 N          23.5990  -26.1992  -40.9769 N.am      5 UNK        -0.4663 
     35 CA         24.9102  -25.6401  -40.6436 C.3       5 UNK         0.0242 
     36 CB         25.0554  -24.2708  -41.3271 C.3       5 UNK        -0.1982 
     37 C          26.0857  -26.5602  -41.0282 C.2       5 UNK         0.5017 
     38 O          27.1536  -26.4384  -40.4268 O.2       5 UNK        -0.5012 
     39 N          25.8833  -27.4448  -42.0154 N.am      6 UNK        -0.4439 
     40 CA         26.8718  -28.4167  -42.4833 C.3       6 UNK         0.0297 
     41 CB         26.7927  -28.5413  -44.0145 C.3       6 UNK        -0.2006 
     42 C          26.6617  -29.7825  -41.8145 C.2       6 UNK         0.4892 
     43 O          27.6381  -30.3863  -41.3679 O.2       6 UNK        -0.5089 
     44 N          25.4054  -30.2407  -41.7438 N.am      7 UNK        -0.4243 
     45 CA         25.0109  -31.4940  -41.1075 C.3       7 UNK         0.0196 
     46 CB         25.1034  -32.6537  -42.1160 C.3       7 UNK        -0.2007 
     47 C          23.5881  -31.3283  -40.5725 C.2       7 UNK         0.5020 
     48 O          22.6652  -31.1365  -41.3644 O.2       7 UNK        -0.5147 
     49 N          23.4298  -31.3982  -39.2454 N.am      8 UNK        -0.4734 
     50 CA         22.1685  -31.1920  -38.5257 C.3       8 UNK         0.0238 
     51 CB         22.4865  -30.8391  -37.0606 C.3       8 UNK        -0.1912 
     52 C          21.2036  -32.3882  -38.6523 C.2       8 UNK         0.5038 
     53 O          20.9149  -33.0588  -37.6587 O.2       8 UNK        -0.5046 
     54 N          20.7378  -32.6403  -39.8792 N.am      9 UNK        -0.4200 
     55 CA         19.7070  -33.6271  -40.2252 C.3       9 UNK         0.0839 
     56 C          18.3117  -33.3136  -39.6119 C.2       9 UNK         0.5513 
     57 N          17.4647  -34.3235  -39.4634 N.am      9 UNK        -0.7519 
     58 O          17.9794  -32.1728  -39.2947 O.2       9 UNK        -0.4960 
     59 C59        19.6383  -33.8506  -41.7600 C.3       10 UNK        -0.0876 
     60 S60        19.3626  -32.3226  -42.7233 S.3       10 UNK        -0.2414 
     61 C61        18.5397  -32.9903  -44.1997 C.3       10 UNK         0.0169 
     62 H62        14.6940  -25.8819  -39.5116 H         1 UNK         0.0903 
     63 H63        15.8507  -27.2114  -39.6069 H         1 UNK         0.0903 
     64 H64        16.3951  -25.6028  -39.1281 H         1 UNK         0.0903 
     65 H65        16.4753  -27.6881  -41.7000 H         1 UNK         0.3096 
     66 H66        16.0390  -25.8392  -43.8950 H         1 UNK         0.1121 
     67 H67        15.7890  -28.4831  -43.8754 H         1 UNK         0.0849 
     68 H68        17.5119  -28.5106  -44.1343 H         1 UNK         0.0849 
     69 H69        15.1610  -29.7455  -46.0733 H         1 UNK         0.0865 
     70 H70        15.7231  -29.2922  -47.6628 H         1 UNK         0.0865 
     71 H71        16.4426  -31.3534  -44.8335 H         1 UNK         0.1346 
     72 H72        20.4845  -32.2529  -45.9349 H         1 UNK         0.1412 
     73 H73        18.3486  -29.1509  -47.9860 H         1 UNK         0.1426 
     74 H74        21.5503  -31.1254  -47.7443 H         1 UNK         0.0716 
     75 H75        20.5484  -30.3117  -48.9224 H         1 UNK         0.0716 
     76 H76        20.9731  -29.5218  -45.1273 H         1 UNK         0.0695 
     77 H77        22.6783  -29.6623  -45.4794 H         1 UNK         0.0695 
     78 H78        22.9436  -27.2040  -45.2541 H         1 UNK         0.0983 
     79 H79        20.0659  -27.1267  -45.2982 H         1 UNK         0.3095 
     80 H80        19.7574  -23.7679  -44.2604 H         1 UNK         0.0454 
     81 H81        19.5930  -24.7950  -47.1441 H         1 UNK         0.0851 
     82 H82        18.8290  -23.3353  -46.5122 H         1 UNK         0.0851 
     83 H83        20.5774  -23.4419  -46.6055 H         1 UNK         0.0851 
     84 H84        17.7790  -25.3084  -45.4428 H         1 UNK         0.2976 
     85 H85        20.6999  -27.0598  -42.6548 H         1 UNK         0.3116 
     86 H86        21.7378  -28.8626  -40.8030 H         1 UNK         0.0646 
     87 H87        20.4017  -26.1629  -40.2944 H         1 UNK         0.0847 
     88 H88        19.5844  -27.7132  -40.4970 H         1 UNK         0.0847 
     89 H89        20.6076  -27.4357  -39.0990 H         1 UNK         0.0847 
     90 H90        23.1307  -25.8206  -41.7886 H         1 UNK         0.3040 
     91 H91        24.9542  -25.4915  -39.5621 H         1 UNK         0.1015 
     92 H92        24.9997  -24.3536  -42.4135 H         1 UNK         0.0786 
     93 H93        26.0149  -23.8120  -41.0834 H         1 UNK         0.0786 
     94 H94        24.2766  -23.5804  -41.0025 H         1 UNK         0.0786 
     95 H95        24.9496  -27.5374  -42.4061 H         1 UNK         0.3172 
     96 H96        27.8772  -28.0712  -42.2332 H         1 UNK         0.0595 
     97 H97        27.5398  -29.2441  -44.3856 H         1 UNK         0.0839 
     98 H98        26.9808  -27.5833  -44.4993 H         1 UNK         0.0839 
     99 H99        25.8178  -28.8987  -44.3479 H         1 UNK         0.0839 
    100 H100       24.6448  -29.6905  -42.1404 H         1 UNK         0.2998 
    101 H101       25.6790  -31.7048  -40.2694 H         1 UNK         0.0822 
    102 H102       24.7776  -33.5911  -41.6634 H         1 UNK         0.0787 
    103 H103       24.4763  -32.4766  -42.9909 H         1 UNK         0.0787 
    104 H104       26.1270  -32.7978  -42.4621 H         1 UNK         0.0787 
    105 H105       24.2402  -31.5863  -38.6725 H         1 UNK         0.3055 
    106 H106       21.6587  -30.3301  -38.9609 H         1 UNK         0.1106 
    107 H107       23.0935  -29.9357  -36.9951 H         1 UNK         0.0828 
    108 H108       21.5717  -30.6522  -36.4964 H         1 UNK         0.0828 
    109 H109       23.0228  -31.6438  -36.5560 H         1 UNK         0.0828 
    110 H110       21.0725  -32.0586  -40.6417 H         1 UNK         0.2931 
    111 H111       20.0330  -34.5695  -39.7802 H         1 UNK         0.0412 
    112 H112       16.5510  -34.1429  -39.0772 H         1 UNK         0.3472 
    113 H113       17.7222  -35.2645  -39.7186 H         1 UNK         0.3472 
    114 H114       20.5753  -34.2922  -42.1029 H         1 UNK         0.0970 
    115 H115       18.8652  -34.5816  -42.0041 H         1 UNK         0.0970 
    116 H116       19.0932  -33.8560  -44.5673 H         1 UNK         0.0612 
    117 H117       17.5430  -33.3446  -43.9322 H         1 UNK         0.0612 
@<TRIPOS>BOND
     1    1    2 1    
     2    1   62 1    
     3    1   63 1    
     4    1   64 1    
     5    2    3 2    
     6    2    4 am   BACKBONE|DICT|INTERRES
     7    4    5 1    
     8    4   65 1    
     9    5    6 1    
    10    5   25 1    
    11    5   66 1    
    12    6    7 1    
    13    6   67 1    
    14    6   68 1    
    15    7    8 1    
    16    8    9 1    
    17    8   69 1    
    18    8   70 1    
    19    9   10 ar   
    20    9   14 ar   
    21   10   11 ar   
    22   10   71 1    
    23   11   12 ar   
    24   11   61 1    
    25   12   13 ar   
    26   12   72 1    
    27   13   14 ar   
    28   13   15 1    
    29   14   73 1    
    30   15   16 1    
    31   15   74 1    
    32   15   75 1    
    33   16   17 1    
    34   17   18 1    
    35   17   76 1    
    36   17   77 1    
    37   18   19 1    
    38   18   27 1    
    39   18   78 1    
    40   19   20 am   BACKBONE|DICT|INTERRES
    41   19   79 1    
    42   20   21 2    
    43   20   22 1    
    44   22   23 1    
    45   22   24 1    
    46   22   80 1    
    47   23   81 1    
    48   23   82 1    
    49   23   83 1    
    50   24   25 am   BACKBONE|DICT|INTERRES
    51   24   84 1    
    52   25   26 2    
    53   27   28 2    
    54   27   29 am   BACKBONE|DICT|INTERRES
    55   29   30 1    
    56   29   85 1    
    57   30   31 1    
    58   30   32 1    
    59   30   86 1    
    60   31   87 1    
    61   31   88 1    
    62   31   89 1    
    63   32   33 2    
    64   32   34 am   BACKBONE|DICT|INTERRES
    65   34   35 1    
    66   34   90 1    
    67   35   36 1    
    68   35   37 1    
    69   35   91 1    
    70   36   92 1    
    71   36   93 1    
    72   36   94 1    
    73   37   38 2    
    74   37   39 am   BACKBONE|DICT|INTERRES
    75   39   40 1    
    76   39   95 1    
    77   40   41 1    
    78   40   42 1    
    79   40   96 1    
    80   41   97 1    
    81   41   98 1    
    82   41   99 1    
    83   42   43 2    
    84   42   44 am   BACKBONE|DICT|INTERRES
    85   44   45 1    
    86   44  100 1    
    87   45   46 1    
    88   45   47 1    
    89   45  101 1    
    90   46  102 1    
    91   46  103 1    
    92   46  104 1    
    93   47   48 2    
    94   47   49 am   BACKBONE|DICT|INTERRES
    95   49   50 1    
    96   49  105 1    
    97   50   51 1    
    98   50   52 1    
    99   50  106 1    
   100   51  107 1    
   101   51  108 1    
   102   51  109 1    
   103   52   53 2    
   104   52   54 am   BACKBONE|DICT|INTERRES
   105   54   55 1    
   106   54  110 1    
   107   55   56 1    
   108   55   59 1    
   109   55  111 1    
   110   56   57 am   BACKBONE|DICT|INTERRES
   111   56   58 2    
   112   57  112 1    
   113   57  113 1    
   114   59   60 1    
   115   59  114 1    
   116   59  115 1    
   117   60   61 1    
   118   61  116 1    
   119   61  117 1    
@<TRIPOS>SUBSTRUCTURE
     1 UNK         1 GROUP             0       ****    0 ROOT    
