@<TRIPOS>MOLECULE
3R8
117   119    1
SMALL
USER_CHARGES


@<TRIPOS>ATOM
      1 CA         18.3172  -21.5562  -48.4935 C.3       0 UNK        -0.2013 
      2 C          19.0146  -22.3860  -47.4259 C.2       0 UNK         0.4866 
      3 O          19.8241  -21.8505  -46.6688 O.2       0 UNK        -0.5176 
      4 N          18.7114  -23.6901  -47.3658 N.am      1 UNK        -0.4884 
      5 CA         19.2531  -24.6364  -46.3833 C.3       1 UNK         0.0853 
      6 C6         18.9508  -26.0995  -46.8045 C.3       10 UNK        -0.0849 
      7 S7         19.5998  -27.3751  -45.6678 S.3       10 UNK        -0.2776 
      8 C8         18.7526  -28.8589  -46.2996 C.3       10 UNK         0.0316 
      9 C9         18.3716  -29.7837  -45.1561 C.ar      10 UNK        -0.0863 
     10 C10        19.2104  -30.8383  -44.7850 C.ar      10 UNK        -0.1009 
     11 C11        18.8636  -31.6740  -43.7196 C.ar      10 UNK        -0.0712 
     12 C12        17.6894  -31.4262  -43.0018 C.ar      10 UNK        -0.0894 
     13 C13        16.8428  -30.3725  -43.3601 C.ar      10 UNK        -0.0745 
     14 C14        17.1760  -29.5763  -44.4620 C.ar      10 UNK        -0.0972 
     15 C15        15.5657  -30.1226  -42.5611 C.3       10 UNK         0.0209 
     16 S16        15.2479  -28.3598  -42.2027 S.3       10 UNK        -0.2568 
     17 C17        16.6775  -27.8986  -41.1607 C.3       10 UNK        -0.0983 
     18 CA         17.8251  -27.2267  -41.9669 C.3       3 UNK         0.0876 
     19 N          17.3869  -26.1230  -42.8304 N.am      3 UNK        -0.4424 
     20 C          16.9043  -24.9314  -42.4498 C.2       2 UNK         0.4918 
     21 O          16.6595  -24.6348  -41.2797 O.2       2 UNK        -0.4875 
     22 CA         16.6899  -23.8809  -43.5662 C.3       2 UNK         0.0481 
     23 CB         16.9968  -22.4513  -43.0733 C.3       2 UNK        -0.1831 
     24 N          17.4225  -24.1512  -44.8165 N.am      2 UNK        -0.4498 
     25 C          18.7486  -24.3201  -44.9597 C.2       1 UNK         0.5027 
     26 O          19.5501  -24.2733  -44.0258 O.2       1 UNK        -0.4969 
     27 C          19.0520  -26.8597  -41.0984 C.2       3 UNK         0.5005 
     28 O          19.2898  -27.5004  -40.0729 O.2       3 UNK        -0.5279 
     29 N          19.8425  -25.8656  -41.5376 N.am      4 UNK        -0.4463 
     30 CA         21.0694  -25.4116  -40.8747 C.3       4 UNK         0.0283 
     31 CB         21.3746  -23.9696  -41.3130 C.3       4 UNK        -0.1875 
     32 C          22.2804  -26.3273  -41.1356 C.2       4 UNK         0.4949 
     33 O          23.3347  -26.1015  -40.5415 O.2       4 UNK        -0.5039 
     34 N          22.1188  -27.3318  -42.0116 N.am      5 UNK        -0.4663 
     35 CA         23.1171  -28.3504  -42.3506 C.3       5 UNK         0.0242 
     36 CB         22.5388  -29.2784  -43.4321 C.3       5 UNK        -0.1982 
     37 C          23.6087  -29.1560  -41.1343 C.2       5 UNK         0.5017 
     38 O          24.8082  -29.4170  -41.0377 O.2       5 UNK        -0.5012 
     39 N          22.6837  -29.4865  -40.2182 N.am      6 UNK        -0.4439 
     40 CA         22.9060  -30.1055  -38.9058 C.3       6 UNK         0.0297 
     41 CB         23.4393  -29.0458  -37.9158 C.3       6 UNK        -0.2006 
     42 C          23.7757  -31.3764  -38.9797 C.2       6 UNK         0.4892 
     43 O          23.2863  -32.4163  -39.4176 O.2       6 UNK        -0.5089 
     44 N          25.0505  -31.2702  -38.5802 N.am      7 UNK        -0.4243 
     45 CA         26.0450  -32.3460  -38.6193 C.3       7 UNK         0.0196 
     46 CB         27.3180  -31.8750  -37.8973 C.3       7 UNK        -0.2007 
     47 C          26.3851  -32.8496  -40.0358 C.2       7 UNK         0.5020 
     48 O          26.8842  -33.9678  -40.1628 O.2       7 UNK        -0.5147 
     49 N          26.1170  -32.0406  -41.0717 N.am      8 UNK        -0.4734 
     50 CA         26.3085  -32.4151  -42.4757 C.3       8 UNK         0.0238 
     51 CB         26.4496  -31.1452  -43.3313 C.3       8 UNK        -0.1912 
     52 C          25.1946  -33.3254  -43.0277 C.2       8 UNK         0.5038 
     53 O          25.3859  -33.8968  -44.1025 O.2       8 UNK        -0.5046 
     54 N          24.0636  -33.4483  -42.3163 N.am      9 UNK        -0.4200 
     55 CA         22.9661  -34.3654  -42.6598 C.3       9 UNK         0.0839 
     56 C          23.3869  -35.8554  -42.5371 C.2       9 UNK         0.5513 
     57 N          22.9262  -36.7064  -43.4436 N.am      9 UNK        -0.7519 
     58 O          24.0838  -36.2524  -41.6057 O.2       9 UNK        -0.4960 
     59 C59        21.6974  -34.0963  -41.8121 C.3       10 UNK        -0.0876 
     60 S60        20.9825  -32.4445  -42.1102 S.3       10 UNK        -0.2414 
     61 C61        19.7360  -32.8660  -43.3625 C.3       10 UNK         0.0169 
     62 H62        17.6359  -22.1552  -49.0974 H         1 UNK         0.0903 
     63 H63        17.7431  -20.7547  -48.0294 H         1 UNK         0.0903 
     64 H64        19.0534  -21.1064  -49.1593 H         1 UNK         0.0903 
     65 H65        18.0495  -24.0697  -48.0285 H         1 UNK         0.3096 
     66 H66        20.3386  -24.5114  -46.3683 H         1 UNK         0.1121 
     67 H67        17.8732  -26.2408  -46.9069 H         1 UNK         0.0849 
     68 H68        19.3738  -26.2902  -47.7923 H         1 UNK         0.0849 
     69 H69        19.4044  -29.3706  -47.0095 H         1 UNK         0.0865 
     70 H70        17.8549  -28.5846  -46.8555 H         1 UNK         0.0865 
     71 H71        20.1298  -31.0129  -45.3273 H         1 UNK         0.1346 
     72 H72        17.4313  -32.0652  -42.1681 H         1 UNK         0.1412 
     73 H73        16.5218  -28.7667  -44.7558 H         1 UNK         0.1426 
     74 H74        15.5878  -30.6682  -41.6164 H         1 UNK         0.0716 
     75 H75        14.7217  -30.5199  -43.1261 H         1 UNK         0.0716 
     76 H76        17.0389  -28.7924  -40.6489 H         1 UNK         0.0695 
     77 H77        16.3207  -27.2260  -40.3791 H         1 UNK         0.0695 
     78 H78        18.2220  -27.9792  -42.6456 H         1 UNK         0.0983 
     79 H79        17.5449  -26.2624  -43.8174 H         1 UNK         0.3095 
     80 H80        15.6300  -23.9243  -43.8201 H         1 UNK         0.0454 
     81 H81        16.8265  -21.7152  -43.8589 H         1 UNK         0.0851 
     82 H82        18.0306  -22.3525  -42.7405 H         1 UNK         0.0851 
     83 H83        16.3576  -22.1777  -42.2331 H         1 UNK         0.0851 
     84 H84        16.8519  -24.2128  -45.6484 H         1 UNK         0.2976 
     85 H85        19.5999  -25.3833  -42.3997 H         1 UNK         0.3116 
     86 H86        20.8957  -25.4052  -39.7965 H         1 UNK         0.0646 
     87 H87        22.2200  -23.5628  -40.7566 H         1 UNK         0.0847 
     88 H88        20.5243  -23.3103  -41.1373 H         1 UNK         0.0847 
     89 H89        21.6285  -23.9151  -42.3722 H         1 UNK         0.0847 
     90 H90        21.2236  -27.4077  -42.4707 H         1 UNK         0.3040 
     91 H91        23.9860  -27.8359  -42.7666 H         1 UNK         0.1015 
     92 H92        22.3642  -28.7394  -44.3636 H         1 UNK         0.0786 
     93 H93        21.5897  -29.7159  -43.1216 H         1 UNK         0.0786 
     94 H94        23.2167  -30.1022  -43.6572 H         1 UNK         0.0786 
     95 H95        21.7252  -29.2410  -40.4241 H         1 UNK         0.3172 
     96 H96        21.9275  -30.4281  -38.5467 H         1 UNK         0.0595 
     97 H97        24.3722  -28.5936  -38.2547 H         1 UNK         0.0839 
     98 H98        23.6128  -29.4760  -36.9283 H         1 UNK         0.0839 
     99 H99        22.7180  -28.2383  -37.7881 H         1 UNK         0.0839 
    100 H100       25.3752  -30.3650  -38.2730 H         1 UNK         0.2998 
    101 H101       25.6326  -33.1945  -38.0691 H         1 UNK         0.0822 
    102 H102       27.7650  -31.0113  -38.3914 H         1 UNK         0.0787 
    103 H103       27.1109  -31.6019  -36.8623 H         1 UNK         0.0787 
    104 H104       28.0708  -32.6644  -37.8771 H         1 UNK         0.0787 
    105 H105       25.7039  -31.1274  -40.8950 H         1 UNK         0.3055 
    106 H106       27.2429  -32.9754  -42.5574 H         1 UNK         0.1106 
    107 H107       26.6841  -31.3968  -44.3665 H         1 UNK         0.0828 
    108 H108       25.5318  -30.5590  -43.3419 H         1 UNK         0.0828 
    109 H109       27.2521  -30.5051  -42.9645 H         1 UNK         0.0828 
    110 H110       23.9823  -32.9726  -41.4260 H         1 UNK         0.2931 
    111 H111       22.7112  -34.1776  -43.7052 H         1 UNK         0.0412 
    112 H112       22.3473  -36.3928  -44.2075 H         1 UNK         0.3472 
    113 H113       23.1738  -37.6813  -43.3717 H         1 UNK         0.3472 
    114 H114       20.9334  -34.8498  -42.0127 H         1 UNK         0.0970 
    115 H115       21.9229  -34.1900  -40.7488 H         1 UNK         0.0970 
    116 H116       20.2378  -33.2452  -44.2541 H         1 UNK         0.0612 
    117 H117       19.1084  -33.6785  -42.9929 H         1 UNK         0.0612 
@<TRIPOS>BOND
     1    1    2 1    
     2    1   62 1    
     3    1   63 1    
     4    1   64 1    
     5    2    3 2    
     6    2    4 am   BACKBONE|DICT|INTERRES
     7    4    5 1    
     8    4   65 1    
     9    5    6 1    
    10    5   25 1    
    11    5   66 1    
    12    6    7 1    
    13    6   67 1    
    14    6   68 1    
    15    7    8 1    
    16    8    9 1    
    17    8   69 1    
    18    8   70 1    
    19    9   10 ar   
    20    9   14 ar   
    21   10   11 ar   
    22   10   71 1    
    23   11   12 ar   
    24   11   61 1    
    25   12   13 ar   
    26   12   72 1    
    27   13   14 ar   
    28   13   15 1    
    29   14   73 1    
    30   15   16 1    
    31   15   74 1    
    32   15   75 1    
    33   16   17 1    
    34   17   18 1    
    35   17   76 1    
    36   17   77 1    
    37   18   19 1    
    38   18   27 1    
    39   18   78 1    
    40   19   20 am   BACKBONE|DICT|INTERRES
    41   19   79 1    
    42   20   21 2    
    43   20   22 1    
    44   22   23 1    
    45   22   24 1    
    46   22   80 1    
    47   23   81 1    
    48   23   82 1    
    49   23   83 1    
    50   24   25 am   BACKBONE|DICT|INTERRES
    51   24   84 1    
    52   25   26 2    
    53   27   28 2    
    54   27   29 am   BACKBONE|DICT|INTERRES
    55   29   30 1    
    56   29   85 1    
    57   30   31 1    
    58   30   32 1    
    59   30   86 1    
    60   31   87 1    
    61   31   88 1    
    62   31   89 1    
    63   32   33 2    
    64   32   34 am   BACKBONE|DICT|INTERRES
    65   34   35 1    
    66   34   90 1    
    67   35   36 1    
    68   35   37 1    
    69   35   91 1    
    70   36   92 1    
    71   36   93 1    
    72   36   94 1    
    73   37   38 2    
    74   37   39 am   BACKBONE|DICT|INTERRES
    75   39   40 1    
    76   39   95 1    
    77   40   41 1    
    78   40   42 1    
    79   40   96 1    
    80   41   97 1    
    81   41   98 1    
    82   41   99 1    
    83   42   43 2    
    84   42   44 am   BACKBONE|DICT|INTERRES
    85   44   45 1    
    86   44  100 1    
    87   45   46 1    
    88   45   47 1    
    89   45  101 1    
    90   46  102 1    
    91   46  103 1    
    92   46  104 1    
    93   47   48 2    
    94   47   49 am   BACKBONE|DICT|INTERRES
    95   49   50 1    
    96   49  105 1    
    97   50   51 1    
    98   50   52 1    
    99   50  106 1    
   100   51  107 1    
   101   51  108 1    
   102   51  109 1    
   103   52   53 2    
   104   52   54 am   BACKBONE|DICT|INTERRES
   105   54   55 1    
   106   54  110 1    
   107   55   56 1    
   108   55   59 1    
   109   55  111 1    
   110   56   57 am   BACKBONE|DICT|INTERRES
   111   56   58 2    
   112   57  112 1    
   113   57  113 1    
   114   59   60 1    
   115   59  114 1    
   116   59  115 1    
   117   60   61 1    
   118   61  116 1    
   119   61  117 1    
@<TRIPOS>SUBSTRUCTURE
     1 UNK         1 GROUP             0       ****    0 ROOT    
