@<TRIPOS>MOLECULE
3R8
117   119    1
SMALL
USER_CHARGES


@<TRIPOS>ATOM
      1 CA         16.2581  -22.5604  -42.6573 C.3       0 UNK        -0.2013 
      2 C          16.7729  -23.8412  -43.2977 C.2       0 UNK         0.4866 
      3 O          16.7149  -24.8984  -42.6690 O.2       0 UNK        -0.5176 
      4 N          17.2645  -23.7460  -44.5428 N.am      1 UNK        -0.4884 
      5 CA         17.8676  -24.8234  -45.3431 C.3       1 UNK         0.0853 
      6 C6         16.9274  -26.0551  -45.4943 C.3       10 UNK        -0.0849 
      7 S7         17.2134  -27.0148  -47.0207 S.3       10 UNK        -0.2776 
      8 C8         16.0541  -28.4009  -46.7913 C.3       10 UNK         0.0316 
      9 C9         16.5623  -29.4294  -45.7880 C.ar      10 UNK        -0.0863 
     10 C10        17.3648  -30.4927  -46.2139 C.ar      10 UNK        -0.1009 
     11 C11        17.7823  -31.4765  -45.3110 C.ar      10 UNK        -0.0712 
     12 C12        17.4021  -31.3821  -43.9681 C.ar      10 UNK        -0.0894 
     13 C13        16.6267  -30.3075  -43.5230 C.ar      10 UNK        -0.0745 
     14 C14        16.1973  -29.3440  -44.4410 C.ar      10 UNK        -0.0972 
     15 C15        16.2342  -30.1927  -42.0545 C.3       10 UNK         0.0209 
     16 S16        17.6627  -29.9078  -40.9539 S.3       10 UNK        -0.2568 
     17 C17        18.4058  -28.3912  -41.6464 C.3       10 UNK        -0.0983 
     18 CA         19.8459  -28.6611  -42.1623 C.3       3 UNK         0.0876 
     19 N          20.2365  -27.6836  -43.1728 N.am      3 UNK        -0.4424 
     20 C          20.9182  -27.9529  -44.2920 C.2       2 UNK         0.4918 
     21 O          21.2853  -29.0800  -44.6180 O.2       2 UNK        -0.4875 
     22 CA         21.1989  -26.7531  -45.2180 C.3       2 UNK         0.0481 
     23 CB         21.9463  -27.1572  -46.5024 C.3       2 UNK        -0.1831 
     24 N          19.9471  -26.0916  -45.5881 N.am      2 UNK        -0.4498 
     25 C          19.2712  -25.2220  -44.8285 C.2       1 UNK         0.5027 
     26 O          19.7122  -24.7853  -43.7613 O.2       1 UNK        -0.4969 
     27 C          20.9403  -28.6818  -41.0769 C.2       3 UNK         0.5005 
     28 O          22.0608  -29.1136  -41.3606 O.2       3 UNK        -0.5279 
     29 N          20.6371  -28.1921  -39.8646 N.am      4 UNK        -0.4463 
     30 CA         21.5629  -28.0659  -38.7290 C.3       4 UNK         0.0283 
     31 CB         20.8247  -27.4418  -37.5352 C.3       4 UNK        -0.1875 
     32 C          22.8399  -27.2652  -39.0477 C.2       4 UNK         0.4949 
     33 O          23.9036  -27.5856  -38.5185 O.2       4 UNK        -0.5039 
     34 N          22.7210  -26.2896  -39.9598 N.am      5 UNK        -0.4663 
     35 CA         23.8211  -25.5004  -40.5218 C.3       5 UNK         0.0242 
     36 CB         23.2299  -24.3923  -41.4091 C.3       5 UNK        -0.1982 
     37 C          24.8534  -26.3246  -41.3174 C.2       5 UNK         0.5017 
     38 O          25.9875  -25.8689  -41.4647 O.2       5 UNK        -0.5012 
     39 N          24.4587  -27.5115  -41.7993 N.am      6 UNK        -0.4439 
     40 CA         25.3117  -28.4718  -42.4999 C.3       6 UNK         0.0297 
     41 CB         24.7212  -28.7441  -43.8942 C.3       6 UNK        -0.2006 
     42 C          25.4653  -29.7606  -41.6726 C.2       6 UNK         0.4892 
     43 O          25.5407  -30.8461  -42.2496 O.2       6 UNK        -0.5089 
     44 N          25.4981  -29.6212  -40.3370 N.am      7 UNK        -0.4243 
     45 CA         25.6547  -30.6878  -39.3391 C.3       7 UNK         0.0196 
     46 CB         27.0703  -31.2998  -39.4128 C.3       7 UNK        -0.2007 
     47 C          24.5349  -31.7441  -39.4140 C.2       7 UNK         0.5020 
     48 O          24.8124  -32.9439  -39.3892 O.2       7 UNK        -0.5147 
     49 N          23.2895  -31.2575  -39.5092 N.am      8 UNK        -0.4734 
     50 CA         22.0440  -32.0159  -39.6786 C.3       8 UNK         0.0238 
     51 CB         21.7922  -32.9779  -38.4969 C.3       8 UNK        -0.1912 
     52 C          21.9743  -32.6969  -41.0574 C.2       8 UNK         0.5038 
     53 O          21.6629  -33.8862  -41.1445 O.2       8 UNK        -0.5046 
     54 N          22.2438  -31.9085  -42.1075 N.am      9 UNK        -0.4200 
     55 CA         22.1868  -32.3073  -43.5214 C.3       9 UNK         0.0839 
     56 C          23.2478  -33.3829  -43.9019 C.2       9 UNK         0.5513 
     57 N          24.4906  -33.2320  -43.4619 N.am      9 UNK        -0.7519 
     58 O          22.9601  -34.3579  -44.5923 O.2       9 UNK        -0.4960 
     59 C59        20.7317  -32.6507  -43.9541 C.3       10 UNK        -0.0876 
     60 S60        20.4008  -32.3291  -45.7181 S.3       10 UNK        -0.2414 
     61 C61        18.6119  -32.6573  -45.7990 C.3       10 UNK         0.0169 
     62 H62        16.8187  -22.3458  -41.7478 H         1 UNK         0.0903 
     63 H63        16.3514  -21.7029  -43.3233 H         1 UNK         0.0903 
     64 H64        15.2070  -22.6703  -42.3917 H         1 UNK         0.0903 
     65 H65        17.2959  -22.8336  -44.9773 H         1 UNK         0.3096 
     66 H66        18.0189  -24.3852  -46.3314 H         1 UNK         0.1121 
     67 H67        15.8867  -25.7276  -45.5181 H         1 UNK         0.0849 
     68 H68        17.0144  -26.7100  -44.6266 H         1 UNK         0.0849 
     69 H69        15.0794  -28.0176  -46.4850 H         1 UNK         0.0865 
     70 H70        15.8936  -28.8831  -47.7568 H         1 UNK         0.0865 
     71 H71        17.6504  -30.5654  -47.2546 H         1 UNK         0.1346 
     72 H72        17.7113  -32.1418  -43.2637 H         1 UNK         0.1412 
     73 H73        15.5742  -28.5258  -44.1065 H         1 UNK         0.1426 
     74 H74        15.5139  -29.3863  -41.9075 H         1 UNK         0.0716 
     75 H75        15.7308  -31.1103  -41.7471 H         1 UNK         0.0716 
     76 H76        18.3544  -27.5811  -40.9178 H         1 UNK         0.0695 
     77 H77        17.7813  -28.0488  -42.4722 H         1 UNK         0.0695 
     78 H78        19.8519  -29.6505  -42.6257 H         1 UNK         0.0983 
     79 H79        19.9828  -26.7176  -42.9996 H         1 UNK         0.3095 
     80 H80        21.8324  -26.0538  -44.6684 H         1 UNK         0.0454 
     81 H81        22.1660  -26.2891  -47.1239 H         1 UNK         0.0851 
     82 H82        21.3676  -27.8618  -47.1013 H         1 UNK         0.0851 
     83 H83        22.8977  -27.6357  -46.2687 H         1 UNK         0.0851 
     84 H84        19.4815  -26.4509  -46.4122 H         1 UNK         0.2976 
     85 H85        19.6893  -27.8804  -39.7051 H         1 UNK         0.3116 
     86 H86        21.8699  -29.0722  -38.4414 H         1 UNK         0.0646 
     87 H87        19.9739  -28.0514  -37.2301 H         1 UNK         0.0847 
     88 H88        21.4841  -27.3562  -36.6702 H         1 UNK         0.0847 
     89 H89        20.4571  -26.4406  -37.7638 H         1 UNK         0.0847 
     90 H90        21.8003  -26.1030  -40.3292 H         1 UNK         0.3040 
     91 H91        24.3542  -25.0334  -39.6906 H         1 UNK         0.1015 
     92 H92        22.6607  -24.8030  -42.2446 H         1 UNK         0.0786 
     93 H93        24.0177  -23.7650  -41.8291 H         1 UNK         0.0786 
     94 H94        22.5681  -23.7382  -40.8410 H         1 UNK         0.0786 
     95 H95        23.5176  -27.8391  -41.5967 H         1 UNK         0.3172 
     96 H96        26.3163  -28.0667  -42.6343 H         1 UNK         0.0595 
     97 H97        23.7588  -29.2498  -43.8243 H         1 UNK         0.0839 
     98 H98        25.3812  -29.3819  -44.4834 H         1 UNK         0.0839 
     99 H99        24.5795  -27.8197  -44.4532 H         1 UNK         0.0839 
    100 H100       25.3767  -28.6899  -39.9585 H         1 UNK         0.2998 
    101 H101       25.5544  -30.2099  -38.3631 H         1 UNK         0.0822 
    102 H102       27.2316  -32.0096  -38.6006 H         1 UNK         0.0787 
    103 H103       27.2322  -31.8356  -40.3488 H         1 UNK         0.0787 
    104 H104       27.8394  -30.5321  -39.3284 H         1 UNK         0.0787 
    105 H105       23.1971  -30.2545  -39.5991 H         1 UNK         0.3055 
    106 H106       21.2326  -31.2873  -39.6660 H         1 UNK         0.1106 
    107 H107       20.8003  -33.4257  -38.5677 H         1 UNK         0.0828 
    108 H108       22.5117  -33.7965  -38.4727 H         1 UNK         0.0828 
    109 H109       21.8438  -32.4558  -37.5416 H         1 UNK         0.0828 
    110 H110       22.4798  -30.9368  -41.9332 H         1 UNK         0.2931 
    111 H111       22.4855  -31.4129  -44.0679 H         1 UNK         0.0412 
    112 H112       25.1835  -33.9239  -43.6974 H         1 UNK         0.3472 
    113 H113       24.7624  -32.4093  -42.9279 H         1 UNK         0.3472 
    114 H114       20.0376  -32.0326  -43.3864 H         1 UNK         0.0970 
    115 H115       20.4809  -33.6852  -43.7127 H         1 UNK         0.0970 
    116 H116       18.3493  -32.8859  -46.8330 H         1 UNK         0.0612 
    117 H117       18.3753  -33.5538  -45.2238 H         1 UNK         0.0612 
@<TRIPOS>BOND
     1    1    2 1    
     2    1   62 1    
     3    1   63 1    
     4    1   64 1    
     5    2    3 2    
     6    2    4 am   BACKBONE|DICT|INTERRES
     7    4    5 1    
     8    4   65 1    
     9    5    6 1    
    10    5   25 1    
    11    5   66 1    
    12    6    7 1    
    13    6   67 1    
    14    6   68 1    
    15    7    8 1    
    16    8    9 1    
    17    8   69 1    
    18    8   70 1    
    19    9   10 ar   
    20    9   14 ar   
    21   10   11 ar   
    22   10   71 1    
    23   11   12 ar   
    24   11   61 1    
    25   12   13 ar   
    26   12   72 1    
    27   13   14 ar   
    28   13   15 1    
    29   14   73 1    
    30   15   16 1    
    31   15   74 1    
    32   15   75 1    
    33   16   17 1    
    34   17   18 1    
    35   17   76 1    
    36   17   77 1    
    37   18   19 1    
    38   18   27 1    
    39   18   78 1    
    40   19   20 am   BACKBONE|DICT|INTERRES
    41   19   79 1    
    42   20   21 2    
    43   20   22 1    
    44   22   23 1    
    45   22   24 1    
    46   22   80 1    
    47   23   81 1    
    48   23   82 1    
    49   23   83 1    
    50   24   25 am   BACKBONE|DICT|INTERRES
    51   24   84 1    
    52   25   26 2    
    53   27   28 2    
    54   27   29 am   BACKBONE|DICT|INTERRES
    55   29   30 1    
    56   29   85 1    
    57   30   31 1    
    58   30   32 1    
    59   30   86 1    
    60   31   87 1    
    61   31   88 1    
    62   31   89 1    
    63   32   33 2    
    64   32   34 am   BACKBONE|DICT|INTERRES
    65   34   35 1    
    66   34   90 1    
    67   35   36 1    
    68   35   37 1    
    69   35   91 1    
    70   36   92 1    
    71   36   93 1    
    72   36   94 1    
    73   37   38 2    
    74   37   39 am   BACKBONE|DICT|INTERRES
    75   39   40 1    
    76   39   95 1    
    77   40   41 1    
    78   40   42 1    
    79   40   96 1    
    80   41   97 1    
    81   41   98 1    
    82   41   99 1    
    83   42   43 2    
    84   42   44 am   BACKBONE|DICT|INTERRES
    85   44   45 1    
    86   44  100 1    
    87   45   46 1    
    88   45   47 1    
    89   45  101 1    
    90   46  102 1    
    91   46  103 1    
    92   46  104 1    
    93   47   48 2    
    94   47   49 am   BACKBONE|DICT|INTERRES
    95   49   50 1    
    96   49  105 1    
    97   50   51 1    
    98   50   52 1    
    99   50  106 1    
   100   51  107 1    
   101   51  108 1    
   102   51  109 1    
   103   52   53 2    
   104   52   54 am   BACKBONE|DICT|INTERRES
   105   54   55 1    
   106   54  110 1    
   107   55   56 1    
   108   55   59 1    
   109   55  111 1    
   110   56   57 am   BACKBONE|DICT|INTERRES
   111   56   58 2    
   112   57  112 1    
   113   57  113 1    
   114   59   60 1    
   115   59  114 1    
   116   59  115 1    
   117   60   61 1    
   118   61  116 1    
   119   61  117 1    
@<TRIPOS>SUBSTRUCTURE
     1 UNK         1 GROUP             0       ****    0 ROOT    
