@<TRIPOS>MOLECULE
3R8
117   119    1
SMALL
USER_CHARGES


@<TRIPOS>ATOM
      1 CA         21.0539  -29.4427  -47.3851 C.3       0 UNK        -0.2013 
      2 C          20.2050  -28.6076  -46.4409 C.2       0 UNK         0.4866 
      3 O          20.3950  -28.6673  -45.2256 O.2       0 UNK        -0.5176 
      4 N          19.2837  -27.7956  -46.9794 N.am      1 UNK        -0.4884 
      5 CA         18.3264  -26.9807  -46.2138 C.3       1 UNK         0.0853 
      6 C6         17.0226  -26.6730  -47.0025 C.3       10 UNK        -0.0849 
      7 S7         15.8709  -28.0465  -47.4125 S.3       10 UNK        -0.2776 
      8 C8         16.5381  -29.6248  -46.7589 C.3       10 UNK         0.0316 
      9 C9         16.5815  -29.8029  -45.2375 C.ar      10 UNK        -0.0863 
     10 C10        17.1711  -30.9668  -44.7345 C.ar      10 UNK        -0.1009 
     11 C11        17.3340  -31.1623  -43.3566 C.ar      10 UNK        -0.0712 
     12 C12        16.8855  -30.1751  -42.4755 C.ar      10 UNK        -0.0894 
     13 C13        16.2809  -29.0130  -42.9582 C.ar      10 UNK        -0.0745 
     14 C14        16.0976  -28.8486  -44.3337 C.ar      10 UNK        -0.0972 
     15 C15        15.8588  -27.9098  -42.0032 C.3       10 UNK         0.0209 
     16 S16        17.0385  -26.5234  -42.0568 S.3       10 UNK        -0.2568 
     17 C17        18.3817  -27.0719  -40.9444 C.3       10 UNK        -0.0983 
     18 CA         19.6067  -27.7169  -41.6666 C.3       3 UNK         0.0876 
     19 N          20.1088  -26.9394  -42.8003 N.am      3 UNK        -0.4424 
     20 C          20.5919  -25.6851  -42.7812 C.2       2 UNK         0.4918 
     21 O          20.8082  -25.0524  -41.7472 O.2       2 UNK        -0.4875 
     22 CA         20.8546  -25.0084  -44.1474 C.3       2 UNK         0.0481 
     23 CB         22.3583  -24.8396  -44.4121 C.3       2 UNK        -0.1831 
     24 N          20.2472  -25.7770  -45.2373 N.am      2 UNK        -0.4498 
     25 C          18.9459  -25.7212  -45.5534 C.2       1 UNK         0.5027 
     26 O          18.2307  -24.7590  -45.2698 O.2       1 UNK        -0.4969 
     27 C          20.7770  -28.0731  -40.7285 C.2       3 UNK         0.5005 
     28 O          21.6987  -28.7733  -41.1564 O.2       3 UNK        -0.5279 
     29 N          20.7547  -27.5718  -39.4846 N.am      4 UNK        -0.4463 
     30 CA         21.8079  -27.7392  -38.4780 C.3       4 UNK         0.0283 
     31 CB         21.3844  -27.0499  -37.1722 C.3       4 UNK        -0.1875 
     32 C          23.1843  -27.2240  -38.9339 C.2       4 UNK         0.4949 
     33 O          24.1955  -27.8385  -38.5974 O.2       4 UNK        -0.5039 
     34 N          23.2006  -26.1529  -39.7410 N.am      5 UNK        -0.4663 
     35 CA         24.4149  -25.5860  -40.3372 C.3       5 UNK         0.0242 
     36 CB         24.1221  -24.1624  -40.8346 C.3       5 UNK        -0.1982 
     37 C          25.0259  -26.4566  -41.4535 C.2       5 UNK         0.5017 
     38 O          26.1925  -26.2543  -41.7896 O.2       5 UNK        -0.5012 
     39 N          24.2605  -27.4271  -41.9751 N.am      6 UNK        -0.4439 
     40 CA         24.7318  -28.4788  -42.8810 C.3       6 UNK         0.0297 
     41 CB         23.7005  -28.6828  -44.0092 C.3       6 UNK        -0.2006 
     42 C          25.0262  -29.7907  -42.1231 C.2       6 UNK         0.4892 
     43 O          25.0616  -30.8471  -42.7531 O.2       6 UNK        -0.5089 
     44 N          25.2193  -29.7094  -40.7946 N.am      7 UNK        -0.4243 
     45 CA         25.4294  -30.8148  -39.8505 C.3       7 UNK         0.0196 
     46 CB         26.7514  -31.5580  -40.1402 C.3       7 UNK        -0.2007 
     47 C          24.2050  -31.7448  -39.7927 C.2       7 UNK         0.5020 
     48 O          24.3313  -32.9551  -39.9868 O.2       7 UNK        -0.5147 
     49 N          23.0296  -31.1344  -39.5731 N.am      8 UNK        -0.4734 
     50 CA         21.6917  -31.7468  -39.5997 C.3       8 UNK         0.0238 
     51 CB         21.5051  -32.7137  -38.4114 C.3       8 UNK        -0.1912 
     52 C          21.3888  -32.3938  -40.9655 C.2       8 UNK         0.5038 
     53 O          20.8725  -33.5102  -41.0186 O.2       8 UNK        -0.5046 
     54 N          21.7758  -31.6738  -42.0269 N.am      9 UNK        -0.4200 
     55 CA         21.8038  -32.0705  -43.4430 C.3       9 UNK         0.0839 
     56 C          22.5937  -33.3693  -43.7975 C.2       9 UNK         0.5513 
     57 N          23.4344  -33.9019  -42.9180 N.am      9 UNK        -0.7519 
     58 O          22.4817  -33.8803  -44.9092 O.2       9 UNK        -0.4960 
     59 C59        20.4305  -31.9117  -44.1529 C.3       10 UNK        -0.0876 
     60 S60        19.2057  -33.2388  -43.8716 S.3       10 UNK        -0.2414 
     61 C61        17.9934  -32.4165  -42.7802 C.3       10 UNK         0.0169 
     62 H62        20.9285  -29.1356  -48.4231 H         1 UNK         0.0903 
     63 H63        22.1082  -29.3448  -47.1274 H         1 UNK         0.0903 
     64 H64        20.7793  -30.4937  -47.3046 H         1 UNK         0.0903 
     65 H65        19.1897  -27.7482  -47.9847 H         1 UNK         0.3096 
     66 H66        18.0465  -27.5671  -45.3436 H         1 UNK         0.1121 
     67 H67        17.2736  -26.1593  -47.9319 H         1 UNK         0.0849 
     68 H68        16.4036  -25.9663  -46.4469 H         1 UNK         0.0849 
     69 H69        15.9139  -30.4236  -47.1616 H         1 UNK         0.0865 
     70 H70        17.5294  -29.7950  -47.1772 H         1 UNK         0.0865 
     71 H71        17.5254  -31.7149  -45.4296 H         1 UNK         0.1346 
     72 H72        17.0200  -30.3048  -41.4102 H         1 UNK         0.1412 
     73 H73        15.6313  -27.9411  -44.6899 H         1 UNK         0.1426 
     74 H74        15.7586  -28.2822  -40.9826 H         1 UNK         0.0716 
     75 H75        14.8727  -27.5429  -42.2917 H         1 UNK         0.0716 
     76 H76        17.9698  -27.7625  -40.2066 H         1 UNK         0.0695 
     77 H77        18.6855  -26.1816  -40.3914 H         1 UNK         0.0695 
     78 H78        19.2745  -28.6651  -42.0911 H         1 UNK         0.0983 
     79 H79        20.0727  -27.4287  -43.6883 H         1 UNK         0.3095 
     80 H80        20.4066  -24.0132  -44.1198 H         1 UNK         0.0454 
     81 H81        22.9147  -25.7520  -44.2091 H         1 UNK         0.0851 
     82 H82        22.7741  -24.0590  -43.7764 H         1 UNK         0.0851 
     83 H83        22.5544  -24.5449  -45.4431 H         1 UNK         0.0851 
     84 H84        20.7374  -26.6186  -45.5150 H         1 UNK         0.2976 
     85 H85        19.9733  -26.9881  -39.2222 H         1 UNK         0.3116 
     86 H86        21.9043  -28.8072  -38.2768 H         1 UNK         0.0646 
     87 H87        21.2391  -25.9774  -37.3080 H         1 UNK         0.0847 
     88 H88        22.1433  -27.1796  -36.3991 H         1 UNK         0.0847 
     89 H89        20.4562  -27.4690  -36.7832 H         1 UNK         0.0847 
     90 H90        22.3210  -25.7259  -40.0048 H         1 UNK         0.3040 
     91 H91        25.1720  -25.5136  -39.5527 H         1 UNK         0.1015 
     92 H92        23.3170  -24.1486  -41.5663 H         1 UNK         0.0786 
     93 H93        25.0013  -23.7193  -41.3046 H         1 UNK         0.0786 
     94 H94        23.8332  -23.5091  -40.0112 H         1 UNK         0.0786 
     95 H95        23.3228  -27.5574  -41.6099 H         1 UNK         0.3172 
     96 H96        25.6717  -28.1790  -43.3484 H         1 UNK         0.0595 
     97 H97        22.7039  -28.8922  -43.6206 H         1 UNK         0.0839 
     98 H98        23.9784  -29.5112  -44.6617 H         1 UNK         0.0839 
     99 H99        23.6334  -27.8054  -44.6484 H         1 UNK         0.0839 
    100 H100       25.1407  -28.7965  -40.3638 H         1 UNK         0.2998 
    101 H101       25.5191  -30.3633  -38.8610 H         1 UNK         0.0822 
    102 H102       27.5973  -30.8708  -40.1554 H         1 UNK         0.0787 
    103 H103       26.9531  -32.3042  -39.3707 H         1 UNK         0.0787 
    104 H104       26.7262  -32.0806  -41.0969 H         1 UNK         0.0787 
    105 H105       23.0431  -30.1268  -39.4924 H         1 UNK         0.3055 
    106 H106       20.9690  -30.9383  -39.4810 H         1 UNK         0.1106 
    107 H107       20.4799  -33.0834  -38.3669 H         1 UNK         0.0828 
    108 H108       22.1593  -33.5828  -38.4883 H         1 UNK         0.0828 
    109 H109       21.7124  -32.2203  -37.4620 H         1 UNK         0.0828 
    110 H110       22.1592  -30.7562  -41.8356 H         1 UNK         0.2931 
    111 H111       22.4304  -31.2980  -43.8869 H         1 UNK         0.0412 
    112 H112       23.9514  -34.7291  -43.1688 H         1 UNK         0.3472 
    113 H113       23.5708  -33.4776  -42.0094 H         1 UNK         0.3472 
    114 H114       19.9988  -30.9474  -43.8839 H         1 UNK         0.0970 
    115 H115       20.5910  -31.8542  -45.2300 H         1 UNK         0.0970 
    116 H116       17.2110  -33.1350  -42.5338 H         1 UNK         0.0612 
    117 H117       18.4949  -32.1731  -41.8428 H         1 UNK         0.0612 
@<TRIPOS>BOND
     1    1    2 1    
     2    1   62 1    
     3    1   63 1    
     4    1   64 1    
     5    2    3 2    
     6    2    4 am   BACKBONE|DICT|INTERRES
     7    4    5 1    
     8    4   65 1    
     9    5    6 1    
    10    5   25 1    
    11    5   66 1    
    12    6    7 1    
    13    6   67 1    
    14    6   68 1    
    15    7    8 1    
    16    8    9 1    
    17    8   69 1    
    18    8   70 1    
    19    9   10 ar   
    20    9   14 ar   
    21   10   11 ar   
    22   10   71 1    
    23   11   12 ar   
    24   11   61 1    
    25   12   13 ar   
    26   12   72 1    
    27   13   14 ar   
    28   13   15 1    
    29   14   73 1    
    30   15   16 1    
    31   15   74 1    
    32   15   75 1    
    33   16   17 1    
    34   17   18 1    
    35   17   76 1    
    36   17   77 1    
    37   18   19 1    
    38   18   27 1    
    39   18   78 1    
    40   19   20 am   BACKBONE|DICT|INTERRES
    41   19   79 1    
    42   20   21 2    
    43   20   22 1    
    44   22   23 1    
    45   22   24 1    
    46   22   80 1    
    47   23   81 1    
    48   23   82 1    
    49   23   83 1    
    50   24   25 am   BACKBONE|DICT|INTERRES
    51   24   84 1    
    52   25   26 2    
    53   27   28 2    
    54   27   29 am   BACKBONE|DICT|INTERRES
    55   29   30 1    
    56   29   85 1    
    57   30   31 1    
    58   30   32 1    
    59   30   86 1    
    60   31   87 1    
    61   31   88 1    
    62   31   89 1    
    63   32   33 2    
    64   32   34 am   BACKBONE|DICT|INTERRES
    65   34   35 1    
    66   34   90 1    
    67   35   36 1    
    68   35   37 1    
    69   35   91 1    
    70   36   92 1    
    71   36   93 1    
    72   36   94 1    
    73   37   38 2    
    74   37   39 am   BACKBONE|DICT|INTERRES
    75   39   40 1    
    76   39   95 1    
    77   40   41 1    
    78   40   42 1    
    79   40   96 1    
    80   41   97 1    
    81   41   98 1    
    82   41   99 1    
    83   42   43 2    
    84   42   44 am   BACKBONE|DICT|INTERRES
    85   44   45 1    
    86   44  100 1    
    87   45   46 1    
    88   45   47 1    
    89   45  101 1    
    90   46  102 1    
    91   46  103 1    
    92   46  104 1    
    93   47   48 2    
    94   47   49 am   BACKBONE|DICT|INTERRES
    95   49   50 1    
    96   49  105 1    
    97   50   51 1    
    98   50   52 1    
    99   50  106 1    
   100   51  107 1    
   101   51  108 1    
   102   51  109 1    
   103   52   53 2    
   104   52   54 am   BACKBONE|DICT|INTERRES
   105   54   55 1    
   106   54  110 1    
   107   55   56 1    
   108   55   59 1    
   109   55  111 1    
   110   56   57 am   BACKBONE|DICT|INTERRES
   111   56   58 2    
   112   57  112 1    
   113   57  113 1    
   114   59   60 1    
   115   59  114 1    
   116   59  115 1    
   117   60   61 1    
   118   61  116 1    
   119   61  117 1    
@<TRIPOS>SUBSTRUCTURE
     1 UNK         1 GROUP             0       ****    0 ROOT    
