@<TRIPOS>MOLECULE
3R8
117   119    1
SMALL
USER_CHARGES


@<TRIPOS>ATOM
      1 CA         18.3929  -23.8812  -39.6769 C.3       0 UNK        -0.2013 
      2 C          18.2459  -24.0670  -41.1801 C.2       0 UNK         0.4866 
      3 O          17.9548  -23.1052  -41.8921 O.2       0 UNK        -0.5176 
      4 N          18.4321  -25.3013  -41.6625 N.am      1 UNK        -0.4884 
      5 CA         18.3629  -25.6784  -43.0797 C.3       1 UNK         0.0853 
      6 C6         18.2727  -27.2174  -43.2541 C.3       10 UNK        -0.0849 
      7 S7         16.9137  -27.9717  -42.2935 S.3       10 UNK        -0.2776 
      8 C8         16.1139  -29.0388  -43.5340 C.3       10 UNK         0.0316 
      9 C9         16.9740  -30.2474  -43.8770 C.ar      10 UNK        -0.0863 
     10 C10        16.9518  -31.3800  -43.0578 C.ar      10 UNK        -0.1009 
     11 C11        17.7207  -32.5021  -43.3787 C.ar      10 UNK        -0.0712 
     12 C12        18.5281  -32.4789  -44.5194 C.ar      10 UNK        -0.0894 
     13 C13        18.5770  -31.3483  -45.3385 C.ar      10 UNK        -0.0745 
     14 C14        17.7783  -30.2427  -45.0206 C.ar      10 UNK        -0.0972 
     15 C15        19.4632  -31.3736  -46.5818 C.3       10 UNK         0.0209 
     16 S16        20.1847  -29.7603  -47.0278 S.3       10 UNK        -0.2568 
     17 C17        21.4386  -29.5251  -45.7231 C.3       10 UNK        -0.0983 
     18 CA         22.2246  -28.2141  -45.9779 C.3       3 UNK         0.0876 
     19 N          21.3476  -27.0441  -45.8600 N.am      3 UNK        -0.4424 
     20 C          21.5991  -25.8190  -46.3397 C.2       2 UNK         0.4918 
     21 O          22.6287  -25.5216  -46.9474 O.2       2 UNK        -0.4875 
     22 CA         20.5031  -24.7469  -46.1543 C.3       2 UNK         0.0481 
     23 CB         19.8656  -24.3974  -47.5096 C.3       2 UNK        -0.1831 
     24 N          19.4395  -25.1374  -45.2192 N.am      2 UNK        -0.4498 
     25 C          19.5599  -25.1189  -43.8842 C.2       1 UNK         0.5027 
     26 O          20.5756  -24.7297  -43.3037 O.2       1 UNK        -0.4969 
     27 C          23.4884  -28.0956  -45.0965 C.2       3 UNK         0.5005 
     28 O          23.5573  -27.2336  -44.2172 O.2       3 UNK        -0.5279 
     29 N          24.4727  -28.9652  -45.3743 N.am      4 UNK        -0.4463 
     30 CA         25.8753  -28.9075  -44.9330 C.3       4 UNK         0.0283 
     31 CB         26.5915  -30.1948  -45.3744 C.3       4 UNK        -0.1875 
     32 C          26.1433  -28.6450  -43.4394 C.2       4 UNK         0.4949 
     33 O          27.1384  -27.9906  -43.1257 O.2       4 UNK        -0.5039 
     34 N          25.2718  -29.1431  -42.5547 N.am      5 UNK        -0.4663 
     35 CA         25.3353  -28.9020  -41.1094 C.3       5 UNK         0.0242 
     36 CB         25.8388  -30.1668  -40.3894 C.3       5 UNK        -0.1982 
     37 C          23.9899  -28.3904  -40.5683 C.2       5 UNK         0.5017 
     38 O          23.6770  -28.6188  -39.3985 O.2       5 UNK        -0.5012 
     39 N          23.2166  -27.7051  -41.4244 N.am      6 UNK        -0.4439 
     40 CA         21.9113  -27.1020  -41.1506 C.3       6 UNK         0.0297 
     41 CB         22.0800  -25.8248  -40.2966 C.3       6 UNK        -0.2006 
     42 C          20.9119  -28.1244  -40.5816 C.2       6 UNK         0.4892 
     43 O          20.6259  -29.1152  -41.2535 O.2       6 UNK        -0.5089 
     44 N          20.4230  -27.8896  -39.3564 N.am      7 UNK        -0.4243 
     45 CA         19.4809  -28.7520  -38.6367 C.3       7 UNK         0.0196 
     46 CB         19.0369  -28.0387  -37.3492 C.3       7 UNK        -0.2007 
     47 C          20.0124  -30.1646  -38.3194 C.2       7 UNK         0.5020 
     48 O          19.2047  -31.0512  -38.0431 O.2       7 UNK        -0.5147 
     49 N          21.3379  -30.3674  -38.3790 N.am      8 UNK        -0.4734 
     50 CA         21.9755  -31.6844  -38.2742 C.3       8 UNK         0.0238 
     51 CB         23.3709  -31.5309  -37.6457 C.3       8 UNK        -0.1912 
     52 C          22.0307  -32.4392  -39.6198 C.2       8 UNK         0.5038 
     53 O          22.5973  -33.5316  -39.6599 O.2       8 UNK        -0.5046 
     54 N          21.4441  -31.8680  -40.6829 N.am      9 UNK        -0.4200 
     55 CA         21.2236  -32.4665  -42.0123 C.3       9 UNK         0.0839 
     56 C          22.4806  -32.5586  -42.9240 C.2       9 UNK         0.5513 
     57 N          23.6512  -32.1048  -42.4967 N.am      9 UNK        -0.7519 
     58 O          22.3862  -33.0224  -44.0570 O.2       9 UNK        -0.4960 
     59 C59        20.4401  -33.8120  -41.9598 C.3       10 UNK        -0.0876 
     60 S60        18.8279  -33.6614  -41.1125 S.3       10 UNK        -0.2414 
     61 C61        17.6614  -33.7469  -42.5057 C.3       10 UNK         0.0169 
     62 H62        18.5785  -24.8250  -39.1643 H         1 UNK         0.0903 
     63 H63        19.2229  -23.2086  -39.4623 H         1 UNK         0.0903 
     64 H64        17.4846  -23.4450  -39.2620 H         1 UNK         0.0903 
     65 H65        18.6320  -26.0593  -41.0276 H         1 UNK         0.3096 
     66 H66        17.4552  -25.2313  -43.4920 H         1 UNK         0.1121 
     67 H67        19.2032  -27.7026  -42.9591 H         1 UNK         0.0849 
     68 H68        18.1335  -27.4616  -44.3073 H         1 UNK         0.0849 
     69 H69        15.8821  -28.4585  -44.4285 H         1 UNK         0.0865 
     70 H70        15.1544  -29.3766  -43.1392 H         1 UNK         0.0865 
     71 H71        16.3307  -31.3905  -42.1724 H         1 UNK         0.1346 
     72 H72        19.1193  -33.3471  -44.7753 H         1 UNK         0.1412 
     73 H73        17.7805  -29.3756  -45.6654 H         1 UNK         0.1426 
     74 H74        18.8631  -31.7266  -47.4212 H         1 UNK         0.0716 
     75 H75        20.2754  -32.0922  -46.4577 H         1 UNK         0.0716 
     76 H76        22.0972  -30.3956  -45.7304 H         1 UNK         0.0695 
     77 H77        20.9528  -29.5104  -44.7449 H         1 UNK         0.0695 
     78 H78        22.5850  -28.2343  -47.0095 H         1 UNK         0.0983 
     79 H79        20.4772  -27.1948  -45.3782 H         1 UNK         0.3095 
     80 H80        20.9907  -23.8481  -45.7711 H         1 UNK         0.0454 
     81 H81        19.1351  -23.5943  -47.4107 H         1 UNK         0.0851 
     82 H82        19.3637  -25.2574  -47.9549 H         1 UNK         0.0851 
     83 H83        20.6198  -24.0579  -48.2210 H         1 UNK         0.0851 
     84 H84        18.5742  -25.4552  -45.6331 H         1 UNK         0.2976 
     85 H85        24.2860  -29.6536  -46.0898 H         1 UNK         0.3116 
     86 H86        26.3268  -28.0748  -45.4759 H         1 UNK         0.0646 
     87 H87        27.6429  -30.1790  -45.0827 H         1 UNK         0.0847 
     88 H88        26.5636  -30.3172  -46.4572 H         1 UNK         0.0847 
     89 H89        26.1429  -31.0806  -44.9233 H         1 UNK         0.0847 
     90 H90        24.4729  -29.6594  -42.8977 H         1 UNK         0.3040 
     91 H91        26.0454  -28.1002  -40.8954 H         1 UNK         0.1015 
     92 H92        26.7855  -30.5091  -40.8078 H         1 UNK         0.0786 
     93 H93        25.1271  -30.9876  -40.4559 H         1 UNK         0.0786 
     94 H94        26.0118  -29.9683  -39.3310 H         1 UNK         0.0786 
     95 H95        23.5458  -27.5791  -42.3808 H         1 UNK         0.3172 
     96 H96        21.5146  -26.8075  -42.1209 H         1 UNK         0.0595 
     97 H97        22.5146  -26.0326  -39.3181 H         1 UNK         0.0839 
     98 H98        21.1267  -25.3179  -40.1454 H         1 UNK         0.0839 
     99 H99        22.7334  -25.1113  -40.7991 H         1 UNK         0.0839 
    100 H100       20.7594  -27.0778  -38.8593 H         1 UNK         0.2998 
    101 H101       18.6049  -28.8810  -39.2765 H         1 UNK         0.0822 
    102 H102       18.5654  -27.0802  -37.5667 H         1 UNK         0.0787 
    103 H103       18.3076  -28.6380  -36.8022 H         1 UNK         0.0787 
    104 H104       19.8778  -27.8576  -36.6784 H         1 UNK         0.0787 
    105 H105       21.9459  -29.5925  -38.6253 H         1 UNK         0.3055 
    106 H106       21.3848  -32.3096  -37.6008 H         1 UNK         0.1106 
    107 H107       23.8427  -32.5025  -37.4931 H         1 UNK         0.0828 
    108 H108       24.0367  -30.9430  -38.2732 H         1 UNK         0.0828 
    109 H109       23.3148  -31.0448  -36.6717 H         1 UNK         0.0828 
    110 H110       21.0567  -30.9354  -40.5812 H         1 UNK         0.2931 
    111 H111       20.5826  -31.7462  -42.5220 H         1 UNK         0.0412 
    112 H112       23.7439  -31.7862  -41.5473 H         1 UNK         0.3472 
    113 H113       24.4595  -32.2053  -43.0889 H         1 UNK         0.3472 
    114 H114       21.0247  -34.5764  -41.4467 H         1 UNK         0.0970 
    115 H115       20.2788  -34.2079  -42.9625 H         1 UNK         0.0970 
    116 H116       17.8607  -34.6422  -43.0967 H         1 UNK         0.0612 
    117 H117       16.6525  -33.8664  -42.1079 H         1 UNK         0.0612 
@<TRIPOS>BOND
     1    1    2 1    
     2    1   62 1    
     3    1   63 1    
     4    1   64 1    
     5    2    3 2    
     6    2    4 am   BACKBONE|DICT|INTERRES
     7    4    5 1    
     8    4   65 1    
     9    5    6 1    
    10    5   25 1    
    11    5   66 1    
    12    6    7 1    
    13    6   67 1    
    14    6   68 1    
    15    7    8 1    
    16    8    9 1    
    17    8   69 1    
    18    8   70 1    
    19    9   10 ar   
    20    9   14 ar   
    21   10   11 ar   
    22   10   71 1    
    23   11   12 ar   
    24   11   61 1    
    25   12   13 ar   
    26   12   72 1    
    27   13   14 ar   
    28   13   15 1    
    29   14   73 1    
    30   15   16 1    
    31   15   74 1    
    32   15   75 1    
    33   16   17 1    
    34   17   18 1    
    35   17   76 1    
    36   17   77 1    
    37   18   19 1    
    38   18   27 1    
    39   18   78 1    
    40   19   20 am   BACKBONE|DICT|INTERRES
    41   19   79 1    
    42   20   21 2    
    43   20   22 1    
    44   22   23 1    
    45   22   24 1    
    46   22   80 1    
    47   23   81 1    
    48   23   82 1    
    49   23   83 1    
    50   24   25 am   BACKBONE|DICT|INTERRES
    51   24   84 1    
    52   25   26 2    
    53   27   28 2    
    54   27   29 am   BACKBONE|DICT|INTERRES
    55   29   30 1    
    56   29   85 1    
    57   30   31 1    
    58   30   32 1    
    59   30   86 1    
    60   31   87 1    
    61   31   88 1    
    62   31   89 1    
    63   32   33 2    
    64   32   34 am   BACKBONE|DICT|INTERRES
    65   34   35 1    
    66   34   90 1    
    67   35   36 1    
    68   35   37 1    
    69   35   91 1    
    70   36   92 1    
    71   36   93 1    
    72   36   94 1    
    73   37   38 2    
    74   37   39 am   BACKBONE|DICT|INTERRES
    75   39   40 1    
    76   39   95 1    
    77   40   41 1    
    78   40   42 1    
    79   40   96 1    
    80   41   97 1    
    81   41   98 1    
    82   41   99 1    
    83   42   43 2    
    84   42   44 am   BACKBONE|DICT|INTERRES
    85   44   45 1    
    86   44  100 1    
    87   45   46 1    
    88   45   47 1    
    89   45  101 1    
    90   46  102 1    
    91   46  103 1    
    92   46  104 1    
    93   47   48 2    
    94   47   49 am   BACKBONE|DICT|INTERRES
    95   49   50 1    
    96   49  105 1    
    97   50   51 1    
    98   50   52 1    
    99   50  106 1    
   100   51  107 1    
   101   51  108 1    
   102   51  109 1    
   103   52   53 2    
   104   52   54 am   BACKBONE|DICT|INTERRES
   105   54   55 1    
   106   54  110 1    
   107   55   56 1    
   108   55   59 1    
   109   55  111 1    
   110   56   57 am   BACKBONE|DICT|INTERRES
   111   56   58 2    
   112   57  112 1    
   113   57  113 1    
   114   59   60 1    
   115   59  114 1    
   116   59  115 1    
   117   60   61 1    
   118   61  116 1    
   119   61  117 1    
@<TRIPOS>SUBSTRUCTURE
     1 UNK         1 GROUP             0       ****    0 ROOT    
