@<TRIPOS>MOLECULE
3R8
117   119    1
SMALL
USER_CHARGES


@<TRIPOS>ATOM
      1 CA         15.9462  -24.3687  -39.2018 C.3       0 UNK        -0.2013 
      2 C          16.7311  -24.1642  -40.4890 C.2       0 UNK         0.4866 
      3 O          17.4939  -23.2031  -40.5958 O.2       0 UNK        -0.5176 
      4 N          16.5415  -25.0555  -41.4692 N.am      1 UNK        -0.4884 
      5 CA         17.2760  -25.0866  -42.7385 C.3       1 UNK         0.0853 
      6 C6         16.5419  -25.9218  -43.8320 C.3       10 UNK        -0.0849 
      7 S7         15.6364  -27.4230  -43.2948 S.3       10 UNK        -0.2776 
      8 C8         16.9050  -28.5059  -42.5448 C.3       10 UNK         0.0316 
      9 C9         17.8785  -29.2152  -43.4916 C.ar      10 UNK        -0.0863 
     10 C10        18.8104  -30.0891  -42.9222 C.ar      10 UNK        -0.1009 
     11 C11        19.6891  -30.8334  -43.7149 C.ar      10 UNK        -0.0712 
     12 C12        19.6563  -30.6708  -45.1013 C.ar      10 UNK        -0.0894 
     13 C13        18.7509  -29.7846  -45.6922 C.ar      10 UNK        -0.0745 
     14 C14        17.8597  -29.0672  -44.8858 C.ar      10 UNK        -0.0972 
     15 C15        18.7051  -29.6352  -47.2069 C.3       10 UNK         0.0209 
     16 S16        19.5843  -28.1500  -47.7889 S.3       10 UNK        -0.2568 
     17 C17        21.3377  -28.6203  -47.5896 C.3       10 UNK        -0.0983 
     18 CA         22.2054  -27.4716  -47.0005 C.3       3 UNK         0.0876 
     19 N          21.8292  -27.1197  -45.6315 N.am      3 UNK        -0.4424 
     20 C          21.1100  -26.0533  -45.2820 C.2       2 UNK         0.4918 
     21 O          20.6393  -25.2341  -46.0765 O.2       2 UNK        -0.4875 
     22 CA         20.8812  -25.8552  -43.7819 C.3       2 UNK         0.0481 
     23 CB         21.9193  -24.8942  -43.1778 C.3       2 UNK        -0.1831 
     24 N          19.5376  -25.3196  -43.6216 N.am      2 UNK        -0.4498 
     25 C          18.7476  -25.5230  -42.5651 C.2       1 UNK         0.5027 
     26 O          19.1321  -26.0525  -41.5204 O.2       1 UNK        -0.4969 
     27 C          23.7164  -27.7629  -46.9669 C.2       3 UNK         0.5005 
     28 O          24.4904  -26.8599  -46.6414 O.2       3 UNK        -0.5279 
     29 N          24.1230  -29.0085  -47.2576 N.am      4 UNK        -0.4463 
     30 CA         25.5022  -29.4922  -47.1045 C.3       4 UNK         0.0283 
     31 CB         25.6476  -30.8422  -47.8254 C.3       4 UNK        -0.1875 
     32 C          25.9384  -29.6200  -45.6303 C.2       4 UNK         0.4949 
     33 O          27.1371  -29.6251  -45.3498 O.2       4 UNK        -0.5039 
     34 N          24.9593  -29.7091  -44.7249 N.am      5 UNK        -0.4663 
     35 CA         25.1040  -29.6746  -43.2754 C.3       5 UNK         0.0242 
     36 CB         25.0053  -31.1100  -42.7295 C.3       5 UNK        -0.1982 
     37 C          23.9910  -28.7845  -42.7027 C.2       5 UNK         0.5017 
     38 O          23.0301  -28.4729  -43.4147 O.2       5 UNK        -0.5012 
     39 N          24.1411  -28.4065  -41.4268 N.am      6 UNK        -0.4439 
     40 CA         23.1428  -27.6853  -40.6292 C.3       6 UNK         0.0297 
     41 CB         23.8303  -27.1387  -39.3652 C.3       6 UNK        -0.2006 
     42 C          21.9401  -28.5761  -40.2618 C.2       6 UNK         0.4892 
     43 O          21.9707  -29.7764  -40.5267 O.2       6 UNK        -0.5089 
     44 N          20.9229  -27.9764  -39.6262 N.am      7 UNK        -0.4243 
     45 CA         19.6052  -28.5499  -39.3075 C.3       7 UNK         0.0196 
     46 CB         18.8315  -27.5627  -38.4166 C.3       7 UNK        -0.2007 
     47 C          19.5741  -29.9577  -38.6782 C.2       7 UNK         0.5020 
     48 O          18.6103  -30.6888  -38.9054 O.2       7 UNK        -0.5147 
     49 N          20.6053  -30.3152  -37.9012 N.am      8 UNK        -0.4734 
     50 CA         20.7644  -31.6430  -37.2963 C.3       8 UNK         0.0238 
     51 CB         21.7542  -31.5392  -36.1239 C.3       8 UNK        -0.1912 
     52 C          21.2230  -32.7310  -38.2894 C.2       8 UNK         0.5038 
     53 O          21.0546  -33.9148  -37.9938 O.2       8 UNK        -0.5046 
     54 N          21.8083  -32.3193  -39.4218 N.am      9 UNK        -0.4200 
     55 CA         22.3652  -33.1566  -40.4972 C.3       9 UNK         0.0839 
     56 C          23.5796  -34.0415  -40.0831 C.2       9 UNK         0.5513 
     57 N          24.2805  -33.7309  -38.9991 N.am      9 UNK        -0.7519 
     58 O          23.9154  -35.0048  -40.7676 O.2       9 UNK        -0.4960 
     59 C59        21.2874  -33.9406  -41.3018 C.3       10 UNK        -0.0876 
     60 S60        19.8827  -32.9246  -41.8779 S.3       10 UNK        -0.2414 
     61 C61        20.6793  -31.8036  -43.0788 C.3       10 UNK         0.0169 
     62 H62        15.3265  -23.4963  -38.9965 H         1 UNK         0.0903 
     63 H63        15.2961  -25.2419  -39.2547 H         1 UNK         0.0903 
     64 H64        16.6303  -24.5065  -38.3649 H         1 UNK         0.0903 
     65 H65        15.9060  -25.8286  -41.3301 H         1 UNK         0.3096 
     66 H66        17.3225  -24.0559  -43.0989 H         1 UNK         0.1121 
     67 H67        15.7879  -25.2783  -44.2880 H         1 UNK         0.0849 
     68 H68        17.2036  -26.1842  -44.6588 H         1 UNK         0.0849 
     69 H69        17.4577  -27.9486  -41.7926 H         1 UNK         0.0865 
     70 H70        16.3693  -29.2789  -41.9919 H         1 UNK         0.0865 
     71 H71        18.8352  -30.2223  -41.8498 H         1 UNK         0.1346 
     72 H72        20.3317  -31.2420  -45.7229 H         1 UNK         0.1412 
     73 H73        17.1462  -28.4102  -45.3608 H         1 UNK         0.1426 
     74 H74        19.1194  -30.5177  -47.6971 H         1 UNK         0.0716 
     75 H75        17.6650  -29.5724  -47.5305 H         1 UNK         0.0716 
     76 H76        21.4072  -29.5103  -46.9646 H         1 UNK         0.0695 
     77 H77        21.6999  -28.9043  -48.5794 H         1 UNK         0.0695 
     78 H78        22.0935  -26.6004  -47.6500 H         1 UNK         0.0983 
     79 H79        22.2260  -27.6953  -44.8902 H         1 UNK         0.3095 
     80 H80        20.9428  -26.8250  -43.2829 H         1 UNK         0.0454 
     81 H81        21.8995  -23.9204  -43.6684 H         1 UNK         0.0851 
     82 H82        21.7429  -24.7362  -42.1139 H         1 UNK         0.0851 
     83 H83        22.9276  -25.2961  -43.2858 H         1 UNK         0.0851 
     84 H84        19.1674  -24.8927  -44.4622 H         1 UNK         0.2976 
     85 H85        23.4335  -29.6925  -47.5347 H         1 UNK         0.3116 
     86 H86        26.1716  -28.7745  -47.5838 H         1 UNK         0.0646 
     87 H87        26.6718  -31.2119  -47.7563 H         1 UNK         0.0847 
     88 H88        25.4085  -30.7558  -48.8854 H         1 UNK         0.0847 
     89 H89        24.9980  -31.6046  -47.3934 H         1 UNK         0.0847 
     90 H90        24.0032  -29.6293  -45.0423 H         1 UNK         0.3040 
     91 H91        26.0674  -29.2372  -43.0031 H         1 UNK         0.1015 
     92 H92        25.8149  -31.7326  -43.1108 H         1 UNK         0.0786 
     93 H93        24.0632  -31.5798  -43.0137 H         1 UNK         0.0786 
     94 H94        25.0678  -31.1292  -41.6407 H         1 UNK         0.0786 
     95 H95        24.9484  -28.7428  -40.9228 H         1 UNK         0.3172 
     96 H96        22.7703  -26.8470  -41.2194 H         1 UNK         0.0595 
     97 H97        23.1507  -26.5245  -38.7734 H         1 UNK         0.0839 
     98 H98        24.6837  -26.5095  -39.6194 H         1 UNK         0.0839 
     99 H99        24.1876  -27.9425  -38.7201 H         1 UNK         0.0839 
    100 H100       21.0017  -26.9829  -39.4643 H         1 UNK         0.2998 
    101 H101       19.0760  -28.6221  -40.2564 H         1 UNK         0.0822 
    102 H102       18.7066  -26.5962  -38.9052 H         1 UNK         0.0787 
    103 H103       17.8317  -27.9374  -38.1920 H         1 UNK         0.0787 
    104 H104       19.3396  -27.3962  -37.4660 H         1 UNK         0.0787 
    105 H105       21.3576  -29.6542  -37.7717 H         1 UNK         0.3055 
    106 H106       19.7973  -31.9606  -36.8993 H         1 UNK         0.1106 
    107 H107       21.8796  -32.5047  -35.6315 H         1 UNK         0.0828 
    108 H108       22.7407  -31.2116  -36.4541 H         1 UNK         0.0828 
    109 H109       21.4019  -30.8371  -35.3681 H         1 UNK         0.0828 
    110 H110       21.8554  -31.3197  -39.6101 H         1 UNK         0.2931 
    111 H111       22.8057  -32.4392  -41.1866 H         1 UNK         0.0412 
    112 H112       25.0710  -34.3007  -38.7412 H         1 UNK         0.3472 
    113 H113       24.0231  -32.9372  -38.4352 H         1 UNK         0.3472 
    114 H114       20.8854  -34.7508  -40.6913 H         1 UNK         0.0970 
    115 H115       21.7351  -34.4175  -42.1756 H         1 UNK         0.0970 
    116 H116       21.4563  -31.2207  -42.5872 H         1 UNK         0.0612 
    117 H117       21.1756  -32.4054  -43.8415 H         1 UNK         0.0612 
@<TRIPOS>BOND
     1    1    2 1    
     2    1   62 1    
     3    1   63 1    
     4    1   64 1    
     5    2    3 2    
     6    2    4 am   BACKBONE|DICT|INTERRES
     7    4    5 1    
     8    4   65 1    
     9    5    6 1    
    10    5   25 1    
    11    5   66 1    
    12    6    7 1    
    13    6   67 1    
    14    6   68 1    
    15    7    8 1    
    16    8    9 1    
    17    8   69 1    
    18    8   70 1    
    19    9   10 ar   
    20    9   14 ar   
    21   10   11 ar   
    22   10   71 1    
    23   11   12 ar   
    24   11   61 1    
    25   12   13 ar   
    26   12   72 1    
    27   13   14 ar   
    28   13   15 1    
    29   14   73 1    
    30   15   16 1    
    31   15   74 1    
    32   15   75 1    
    33   16   17 1    
    34   17   18 1    
    35   17   76 1    
    36   17   77 1    
    37   18   19 1    
    38   18   27 1    
    39   18   78 1    
    40   19   20 am   BACKBONE|DICT|INTERRES
    41   19   79 1    
    42   20   21 2    
    43   20   22 1    
    44   22   23 1    
    45   22   24 1    
    46   22   80 1    
    47   23   81 1    
    48   23   82 1    
    49   23   83 1    
    50   24   25 am   BACKBONE|DICT|INTERRES
    51   24   84 1    
    52   25   26 2    
    53   27   28 2    
    54   27   29 am   BACKBONE|DICT|INTERRES
    55   29   30 1    
    56   29   85 1    
    57   30   31 1    
    58   30   32 1    
    59   30   86 1    
    60   31   87 1    
    61   31   88 1    
    62   31   89 1    
    63   32   33 2    
    64   32   34 am   BACKBONE|DICT|INTERRES
    65   34   35 1    
    66   34   90 1    
    67   35   36 1    
    68   35   37 1    
    69   35   91 1    
    70   36   92 1    
    71   36   93 1    
    72   36   94 1    
    73   37   38 2    
    74   37   39 am   BACKBONE|DICT|INTERRES
    75   39   40 1    
    76   39   95 1    
    77   40   41 1    
    78   40   42 1    
    79   40   96 1    
    80   41   97 1    
    81   41   98 1    
    82   41   99 1    
    83   42   43 2    
    84   42   44 am   BACKBONE|DICT|INTERRES
    85   44   45 1    
    86   44  100 1    
    87   45   46 1    
    88   45   47 1    
    89   45  101 1    
    90   46  102 1    
    91   46  103 1    
    92   46  104 1    
    93   47   48 2    
    94   47   49 am   BACKBONE|DICT|INTERRES
    95   49   50 1    
    96   49  105 1    
    97   50   51 1    
    98   50   52 1    
    99   50  106 1    
   100   51  107 1    
   101   51  108 1    
   102   51  109 1    
   103   52   53 2    
   104   52   54 am   BACKBONE|DICT|INTERRES
   105   54   55 1    
   106   54  110 1    
   107   55   56 1    
   108   55   59 1    
   109   55  111 1    
   110   56   57 am   BACKBONE|DICT|INTERRES
   111   56   58 2    
   112   57  112 1    
   113   57  113 1    
   114   59   60 1    
   115   59  114 1    
   116   59  115 1    
   117   60   61 1    
   118   61  116 1    
   119   61  117 1    
@<TRIPOS>SUBSTRUCTURE
     1 UNK         1 GROUP             0       ****    0 ROOT    
