@<TRIPOS>MOLECULE
3R8
117   119    1
SMALL
USER_CHARGES


@<TRIPOS>ATOM
      1 CA         12.1564  -26.1778  -42.2368 C.3       0 UNK        -0.2013 
      2 C          13.5112  -25.7690  -42.7955 C.2       0 UNK         0.4866 
      3 O          13.8712  -24.5928  -42.7318 O.2       0 UNK        -0.5176 
      4 N          14.2606  -26.7281  -43.3515 N.am      1 UNK        -0.4884 
      5 CA         15.6213  -26.5399  -43.8629 C.3       1 UNK         0.0853 
      6 C6         16.0316  -27.6743  -44.8356 C.3       10 UNK        -0.0849 
      7 S7         15.8040  -29.3679  -44.1788 S.3       10 UNK        -0.2776 
      8 C8         16.2826  -30.3827  -45.6144 C.3       10 UNK         0.0316 
      9 C9         17.7812  -30.3188  -45.8669 C.ar      10 UNK        -0.0863 
     10 C10        18.6457  -31.2114  -45.2243 C.ar      10 UNK        -0.1009 
     11 C11        20.0265  -31.1298  -45.4296 C.ar      10 UNK        -0.0712 
     12 C12        20.5376  -30.1548  -46.2894 C.ar      10 UNK        -0.0894 
     13 C13        19.6850  -29.2413  -46.9147 C.ar      10 UNK        -0.0745 
     14 C14        18.3063  -29.3475  -46.7238 C.ar      10 UNK        -0.0972 
     15 C15        20.2515  -28.1080  -47.7561 C.3       10 UNK         0.0209 
     16 S16        20.3340  -26.5547  -46.8026 S.3       10 UNK        -0.2568 
     17 C17        21.6740  -26.9349  -45.6252 C.3       10 UNK        -0.0983 
     18 CA         21.7055  -25.9997  -44.3939 C.3       3 UNK         0.0876 
     19 N          20.4475  -26.0157  -43.6385 N.am      3 UNK        -0.4424 
     20 C          20.1036  -25.0946  -42.7291 C.2       2 UNK         0.4918 
     21 O          20.7820  -24.0967  -42.4801 O.2       2 UNK        -0.4875 
     22 CA         18.7695  -25.3196  -42.0019 C.3       2 UNK         0.0481 
     23 CB         18.3547  -24.1321  -41.1095 C.3       2 UNK        -0.1831 
     24 N          17.7115  -25.6150  -42.9691 N.am      2 UNK        -0.4498 
     25 C          16.6391  -26.3739  -42.7138 C.2       1 UNK         0.5027 
     26 O          16.4513  -26.9465  -41.6370 O.2       1 UNK        -0.4969 
     27 C          22.9101  -26.3755  -43.5070 C.2       3 UNK         0.5005 
     28 O          24.0044  -25.8570  -43.7332 O.2       3 UNK        -0.5279 
     29 N          22.6919  -27.2861  -42.5418 N.am      4 UNK        -0.4463 
     30 CA         23.6854  -27.8636  -41.6275 C.3       4 UNK         0.0283 
     31 CB         24.2240  -26.7949  -40.6538 C.3       4 UNK        -0.1875 
     32 C          24.8051  -28.6493  -42.3422 C.2       4 UNK         0.4949 
     33 O          25.9279  -28.7104  -41.8405 O.2       4 UNK        -0.5039 
     34 N          24.4797  -29.2452  -43.4994 N.am      5 UNK        -0.4663 
     35 CA         25.3977  -30.0457  -44.3158 C.3       5 UNK         0.0242 
     36 CB         24.7692  -30.3018  -45.6954 C.3       5 UNK        -0.1982 
     37 C          25.7817  -31.3653  -43.6280 C.2       5 UNK         0.5017 
     38 O          26.9652  -31.6964  -43.5534 O.2       5 UNK        -0.5012 
     39 N          24.7727  -32.0614  -43.0916 N.am      6 UNK        -0.4439 
     40 CA         24.9110  -33.2230  -42.2189 C.3       6 UNK         0.0297 
     41 CB         23.8402  -34.2694  -42.5803 C.3       6 UNK        -0.2006 
     42 C          24.8024  -32.7366  -40.7670 C.2       6 UNK         0.4892 
     43 O          23.7803  -32.9533  -40.1123 O.2       6 UNK        -0.5089 
     44 N          25.8508  -32.0322  -40.3215 N.am      7 UNK        -0.4243 
     45 CA         26.0820  -31.4467  -38.9946 C.3       7 UNK         0.0196 
     46 CB         26.1384  -32.5346  -37.9037 C.3       7 UNK        -0.2007 
     47 C          25.1189  -30.3151  -38.5930 C.2       7 UNK         0.5020 
     48 O          25.5886  -29.2531  -38.1849 O.2       7 UNK        -0.5147 
     49 N          23.8059  -30.5582  -38.6727 N.am      8 UNK        -0.4734 
     50 CA         22.7637  -29.6535  -38.1769 C.3       8 UNK         0.0238 
     51 CB         22.6343  -29.8036  -36.6457 C.3       8 UNK        -0.1912 
     52 C          21.4090  -29.8319  -38.8857 C.2       8 UNK         0.5038 
     53 O          20.4024  -29.3550  -38.3591 O.2       8 UNK        -0.5046 
     54 N          21.3813  -30.5124  -40.0415 N.am      9 UNK        -0.4200 
     55 CA         20.1643  -30.7304  -40.8401 C.3       9 UNK         0.0839 
     56 C          19.5165  -29.4167  -41.3631 C.2       9 UNK         0.5513 
     57 N          18.1979  -29.3124  -41.2783 N.am      9 UNK        -0.7519 
     58 O          20.1961  -28.5159  -41.8530 O.2       9 UNK        -0.4960 
     59 C59        20.3876  -31.7670  -41.9692 C.3       10 UNK        -0.0876 
     60 S60        21.6475  -31.2940  -43.2024 S.3       10 UNK        -0.2414 
     61 C61        20.9800  -32.0684  -44.7086 C.3       10 UNK         0.0169 
     62 H62        12.1078  -25.9549  -41.1713 H         1 UNK         0.0903 
     63 H63        11.3615  -25.6257  -42.7376 H         1 UNK         0.0903 
     64 H64        11.9653  -27.2426  -42.3694 H         1 UNK         0.0903 
     65 H65        13.9403  -27.6867  -43.3438 H         1 UNK         0.3096 
     66 H66        15.6260  -25.6061  -44.4304 H         1 UNK         0.1121 
     67 H67        17.0718  -27.5435  -45.1364 H         1 UNK         0.0849 
     68 H68        15.4453  -27.5888  -45.7519 H         1 UNK         0.0849 
     69 H69        15.9827  -31.4157  -45.4322 H         1 UNK         0.0865 
     70 H70        15.7296  -30.0584  -46.4973 H         1 UNK         0.0865 
     71 H71        18.2430  -31.9569  -44.5529 H         1 UNK         0.1346 
     72 H72        21.6059  -30.0799  -46.4374 H         1 UNK         0.1412 
     73 H73        17.6453  -28.6438  -47.2114 H         1 UNK         0.1426 
     74 H74        19.6223  -27.9529  -48.6338 H         1 UNK         0.0716 
     75 H75        21.2446  -28.3607  -48.1310 H         1 UNK         0.0716 
     76 H76        22.6174  -26.8819  -46.1727 H         1 UNK         0.0695 
     77 H77        21.5748  -27.9648  -45.2865 H         1 UNK         0.0695 
     78 H78        21.8715  -24.9801  -44.7494 H         1 UNK         0.0983 
     79 H79        19.8530  -26.8229  -43.7654 H         1 UNK         0.3095 
     80 H80        18.9211  -26.1864  -41.3562 H         1 UNK         0.0454 
     81 H81        19.1237  -23.9111  -40.3683 H         1 UNK         0.0851 
     82 H82        17.4360  -24.3465  -40.5634 H         1 UNK         0.0851 
     83 H83        18.1929  -23.2267  -41.6953 H         1 UNK         0.0851 
     84 H84        17.8214  -25.1936  -43.8823 H         1 UNK         0.2976 
     85 H85        21.7455  -27.6496  -42.4296 H         1 UNK         0.3116 
     86 H86        23.1467  -28.6007  -41.0351 H         1 UNK         0.0646 
     87 H87        24.8575  -27.2442  -39.8885 H         1 UNK         0.0847 
     88 H88        24.8243  -26.0441  -41.1681 H         1 UNK         0.0847 
     89 H89        23.4118  -26.2816  -40.1393 H         1 UNK         0.0847 
     90 H90        23.5304  -29.1526  -43.8301 H         1 UNK         0.3040 
     91 H91        26.3137  -29.4677  -44.4588 H         1 UNK         0.1015 
     92 H92        25.4493  -30.8687  -46.3327 H         1 UNK         0.0786 
     93 H93        24.5484  -29.3667  -46.2106 H         1 UNK         0.0786 
     94 H94        23.8428  -30.8715  -45.6219 H         1 UNK         0.0786 
     95 H95        23.8362  -31.6863  -43.1815 H         1 UNK         0.3172 
     96 H96        25.8902  -33.6882  -42.3510 H         1 UNK         0.0595 
     97 H97        22.8280  -33.8923  -42.4362 H         1 UNK         0.0839 
     98 H98        23.9440  -35.1587  -41.9576 H         1 UNK         0.0839 
     99 H99        23.9326  -34.5877  -43.6187 H         1 UNK         0.0839 
    100 H100       26.5922  -31.8608  -40.9888 H         1 UNK         0.2998 
    101 H101       27.0745  -30.9960  -39.0505 H         1 UNK         0.0822 
    102 H102       26.3910  -32.1009  -36.9351 H         1 UNK         0.0787 
    103 H103       25.1843  -33.0495  -37.7876 H         1 UNK         0.0787 
    104 H104       26.8973  -33.2835  -38.1304 H         1 UNK         0.0787 
    105 H105       23.5193  -31.4730  -39.0179 H         1 UNK         0.3055 
    106 H106       23.0667  -28.6260  -38.3902 H         1 UNK         0.1106 
    107 H107       23.5784  -29.5981  -36.1413 H         1 UNK         0.0828 
    108 H108       21.9014  -29.1066  -36.2373 H         1 UNK         0.0828 
    109 H109       22.3193  -30.8101  -36.3689 H         1 UNK         0.0828 
    110 H110       22.2383  -30.8720  -40.4322 H         1 UNK         0.2931 
    111 H111       19.4478  -31.1863  -40.1530 H         1 UNK         0.0412 
    112 H112       17.6463  -30.0554  -40.8810 H         1 UNK         0.3472 
    113 H113       17.7348  -28.4619  -41.5748 H         1 UNK         0.3472 
    114 H114       20.6895  -32.7204  -41.5327 H         1 UNK         0.0970 
    115 H115       19.4406  -31.9661  -42.4721 H         1 UNK         0.0970 
    116 H116       21.8096  -32.3253  -45.3687 H         1 UNK         0.0612 
    117 H117       20.4886  -33.0107  -44.4615 H         1 UNK         0.0612 
@<TRIPOS>BOND
     1    1    2 1    
     2    1   62 1    
     3    1   63 1    
     4    1   64 1    
     5    2    3 2    
     6    2    4 am   BACKBONE|DICT|INTERRES
     7    4    5 1    
     8    4   65 1    
     9    5    6 1    
    10    5   25 1    
    11    5   66 1    
    12    6    7 1    
    13    6   67 1    
    14    6   68 1    
    15    7    8 1    
    16    8    9 1    
    17    8   69 1    
    18    8   70 1    
    19    9   10 ar   
    20    9   14 ar   
    21   10   11 ar   
    22   10   71 1    
    23   11   12 ar   
    24   11   61 1    
    25   12   13 ar   
    26   12   72 1    
    27   13   14 ar   
    28   13   15 1    
    29   14   73 1    
    30   15   16 1    
    31   15   74 1    
    32   15   75 1    
    33   16   17 1    
    34   17   18 1    
    35   17   76 1    
    36   17   77 1    
    37   18   19 1    
    38   18   27 1    
    39   18   78 1    
    40   19   20 am   BACKBONE|DICT|INTERRES
    41   19   79 1    
    42   20   21 2    
    43   20   22 1    
    44   22   23 1    
    45   22   24 1    
    46   22   80 1    
    47   23   81 1    
    48   23   82 1    
    49   23   83 1    
    50   24   25 am   BACKBONE|DICT|INTERRES
    51   24   84 1    
    52   25   26 2    
    53   27   28 2    
    54   27   29 am   BACKBONE|DICT|INTERRES
    55   29   30 1    
    56   29   85 1    
    57   30   31 1    
    58   30   32 1    
    59   30   86 1    
    60   31   87 1    
    61   31   88 1    
    62   31   89 1    
    63   32   33 2    
    64   32   34 am   BACKBONE|DICT|INTERRES
    65   34   35 1    
    66   34   90 1    
    67   35   36 1    
    68   35   37 1    
    69   35   91 1    
    70   36   92 1    
    71   36   93 1    
    72   36   94 1    
    73   37   38 2    
    74   37   39 am   BACKBONE|DICT|INTERRES
    75   39   40 1    
    76   39   95 1    
    77   40   41 1    
    78   40   42 1    
    79   40   96 1    
    80   41   97 1    
    81   41   98 1    
    82   41   99 1    
    83   42   43 2    
    84   42   44 am   BACKBONE|DICT|INTERRES
    85   44   45 1    
    86   44  100 1    
    87   45   46 1    
    88   45   47 1    
    89   45  101 1    
    90   46  102 1    
    91   46  103 1    
    92   46  104 1    
    93   47   48 2    
    94   47   49 am   BACKBONE|DICT|INTERRES
    95   49   50 1    
    96   49  105 1    
    97   50   51 1    
    98   50   52 1    
    99   50  106 1    
   100   51  107 1    
   101   51  108 1    
   102   51  109 1    
   103   52   53 2    
   104   52   54 am   BACKBONE|DICT|INTERRES
   105   54   55 1    
   106   54  110 1    
   107   55   56 1    
   108   55   59 1    
   109   55  111 1    
   110   56   57 am   BACKBONE|DICT|INTERRES
   111   56   58 2    
   112   57  112 1    
   113   57  113 1    
   114   59   60 1    
   115   59  114 1    
   116   59  115 1    
   117   60   61 1    
   118   61  116 1    
   119   61  117 1    
@<TRIPOS>SUBSTRUCTURE
     1 UNK         1 GROUP             0       ****    0 ROOT    
