@<TRIPOS>MOLECULE
3R8
117   119    1
SMALL
USER_CHARGES


@<TRIPOS>ATOM
      1 CA         18.6785  -25.7519  -48.9257 C.3       0 UNK        -0.2013 
      2 C          18.1885  -25.7147  -47.4859 C.2       0 UNK         0.4866 
      3 O          17.8841  -24.6368  -46.9752 O.2       0 UNK        -0.5176 
      4 N          18.1202  -26.8845  -46.8330 N.am      1 UNK        -0.4884 
      5 CA         17.6539  -27.0918  -45.4503 C.3       1 UNK         0.0853 
      6 C6         16.1431  -26.7731  -45.2490 C.3       10 UNK        -0.0849 
      7 S7         15.0753  -27.7984  -46.3231 S.3       10 UNK        -0.2776 
      8 C8         14.4692  -29.0777  -45.1690 C.3       10 UNK         0.0316 
      9 C9         15.6091  -29.7871  -44.4507 C.ar      10 UNK        -0.0863 
     10 C10        16.5018  -30.5910  -45.1663 C.ar      10 UNK        -0.1009 
     11 C11        17.6039  -31.1676  -44.5289 C.ar      10 UNK        -0.0712 
     12 C12        17.7831  -30.9699  -43.1564 C.ar      10 UNK        -0.0894 
     13 C13        16.8776  -30.1988  -42.4219 C.ar      10 UNK        -0.0745 
     14 C14        15.7953  -29.6053  -43.0768 C.ar      10 UNK        -0.0972 
     15 C15        17.0541  -30.0113  -40.9208 C.3       10 UNK         0.0209 
     16 S16        18.0456  -28.5371  -40.5196 S.3       10 UNK        -0.2568 
     17 C17        19.7371  -29.2138  -40.6338 C.3       10 UNK        -0.0983 
     18 CA         20.8427  -28.1737  -40.9331 C.3       3 UNK         0.0876 
     19 N          20.5282  -27.3315  -42.0880 N.am      3 UNK        -0.4424 
     20 C          21.4328  -26.6257  -42.7756 C.2       2 UNK         0.4918 
     21 O          22.6438  -26.7004  -42.5633 O.2       2 UNK        -0.4875 
     22 CA         20.9031  -25.6897  -43.8815 C.3       2 UNK         0.0481 
     23 CB         22.0284  -25.1746  -44.7984 C.3       2 UNK        -0.1831 
     24 N          19.8671  -26.3137  -44.7103 N.am      2 UNK        -0.4498 
     25 C          18.5654  -26.4119  -44.4020 C.2       1 UNK         0.5027 
     26 O          18.0977  -26.0141  -43.3340 O.2       1 UNK        -0.4969 
     27 C          21.2108  -27.3155  -39.7051 C.2       3 UNK         0.5005 
     28 O          20.8134  -26.1499  -39.6205 O.2       3 UNK        -0.5279 
     29 N          22.0157  -27.8927  -38.8015 N.am      4 UNK        -0.4463 
     30 CA         22.6471  -27.2898  -37.6157 C.3       4 UNK         0.0283 
     31 CB         21.6200  -26.6621  -36.6528 C.3       4 UNK        -0.1875 
     32 C          23.7809  -26.3052  -37.9588 C.2       4 UNK         0.4949 
     33 O          24.8185  -26.3350  -37.2973 O.2       4 UNK        -0.5039 
     34 N          23.5962  -25.4913  -39.0072 N.am      5 UNK        -0.4663 
     35 CA         24.6429  -24.6807  -39.6391 C.3       5 UNK         0.0242 
     36 CB         23.9939  -23.6942  -40.6232 C.3       5 UNK        -0.1982 
     37 C          25.6946  -25.5483  -40.3568 C.2       5 UNK         0.5017 
     38 O          26.8714  -25.1866  -40.3814 O.2       5 UNK        -0.5012 
     39 N          25.2472  -26.6857  -40.8966 N.am      6 UNK        -0.4439 
     40 CA         26.0426  -27.7615  -41.4715 C.3       6 UNK         0.0297 
     41 CB         26.1355  -27.5669  -42.9953 C.3       6 UNK        -0.2006 
     42 C          25.3562  -29.0887  -41.1212 C.2       6 UNK         0.4892 
     43 O          24.2018  -29.0905  -40.6830 O.2       6 UNK        -0.5089 
     44 N          26.0517  -30.2074  -41.3559 N.am      7 UNK        -0.4243 
     45 CA         25.5536  -31.5720  -41.1365 C.3       7 UNK         0.0196 
     46 CB         26.7555  -32.5101  -40.9161 C.3       7 UNK        -0.2007 
     47 C          24.6217  -32.0616  -42.2681 C.2       7 UNK         0.5020 
     48 O          24.7371  -33.2058  -42.7130 O.2       7 UNK        -0.5147 
     49 N          23.7214  -31.1864  -42.7332 N.am      8 UNK        -0.4734 
     50 CA         22.7472  -31.4606  -43.7894 C.3       8 UNK         0.0238 
     51 CB         22.0794  -30.1413  -44.2157 C.3       8 UNK        -0.1912 
     52 C          21.7035  -32.4840  -43.3124 C.2       8 UNK         0.5038 
     53 O          21.1347  -32.3018  -42.2338 O.2       8 UNK        -0.5046 
     54 N          21.4741  -33.5258  -44.1242 N.am      9 UNK        -0.4200 
     55 CA         20.5911  -34.6722  -43.8338 C.3       9 UNK         0.0839 
     56 C          21.0613  -35.5578  -42.6354 C.2       9 UNK         0.5513 
     57 N          22.3041  -35.4542  -42.1767 N.am      9 UNK        -0.7519 
     58 O          20.3023  -36.3835  -42.1342 O.2       9 UNK        -0.4960 
     59 C59        19.0825  -34.2830  -43.7490 C.3       10 UNK        -0.0876 
     60 S60        18.3818  -33.7339  -45.3463 S.3       10 UNK        -0.2414 
     61 C61        18.6384  -31.9314  -45.3426 C.3       10 UNK         0.0169 
     62 H62        19.5760  -25.1432  -49.0325 H         1 UNK         0.0903 
     63 H63        18.9145  -26.7646  -49.2520 H         1 UNK         0.0903 
     64 H64        17.9141  -25.3517  -49.5913 H         1 UNK         0.0903 
     65 H65        18.3761  -27.7294  -47.3256 H         1 UNK         0.3096 
     66 H66        17.7868  -28.1554  -45.2548 H         1 UNK         0.1121 
     67 H67        15.9414  -25.7222  -45.4606 H         1 UNK         0.0849 
     68 H68        15.8434  -26.9266  -44.2110 H         1 UNK         0.0849 
     69 H69        13.7855  -28.6165  -44.4545 H         1 UNK         0.0865 
     70 H70        13.8816  -29.8099  -45.7247 H         1 UNK         0.0865 
     71 H71        16.3648  -30.7231  -46.2312 H         1 UNK         0.1346 
     72 H72        18.6362  -31.4061  -42.6599 H         1 UNK         0.1412 
     73 H73        15.1065  -28.9884  -42.5154 H         1 UNK         0.1426 
     74 H74        16.0761  -29.9095  -40.4481 H         1 UNK         0.0716 
     75 H75        17.5104  -30.8974  -40.4762 H         1 UNK         0.0716 
     76 H76        19.7588  -29.9594  -41.4259 H         1 UNK         0.0695 
     77 H77        19.9553  -29.7645  -39.7169 H         1 UNK         0.0695 
     78 H78        21.7363  -28.7414  -41.1961 H         1 UNK         0.0983 
     79 H79        19.5453  -27.1560  -42.2596 H         1 UNK         0.3095 
     80 H80        20.4703  -24.8232  -43.3774 H         1 UNK         0.0454 
     81 H81        21.6442  -24.4873  -45.5522 H         1 UNK         0.0851 
     82 H82        22.5351  -25.9918  -45.3131 H         1 UNK         0.0851 
     83 H83        22.7832  -24.6330  -44.2264 H         1 UNK         0.0851 
     84 H84        20.1676  -26.6864  -45.5994 H         1 UNK         0.2976 
     85 H85        22.3477  -28.8252  -39.0149 H         1 UNK         0.3116 
     86 H86        23.1132  -28.1235  -37.0877 H         1 UNK         0.0646 
     87 H87        20.8319  -27.3697  -36.3959 H         1 UNK         0.0847 
     88 H88        22.1005  -26.3594  -35.7216 H         1 UNK         0.0847 
     89 H89        21.1498  -25.7727  -37.0725 H         1 UNK         0.0847 
     90 H90        22.6842  -25.5113  -39.4543 H         1 UNK         0.3040 
     91 H91        25.1551  -24.1118  -38.8599 H         1 UNK         0.1015 
     92 H92        23.4563  -24.2121  -41.4189 H         1 UNK         0.0786 
     93 H93        24.7475  -23.0629  -41.0960 H         1 UNK         0.0786 
     94 H94        23.2895  -23.0340  -40.1168 H         1 UNK         0.0786 
     95 H95        24.2598  -26.9040  -40.8268 H         1 UNK         0.3172 
     96 H96        27.0421  -27.7624  -41.0317 H         1 UNK         0.0595 
     97 H97        25.1504  -27.5939  -43.4638 H         1 UNK         0.0839 
     98 H98        26.7408  -28.3458  -43.4599 H         1 UNK         0.0839 
     99 H99        26.5949  -26.6101  -43.2437 H         1 UNK         0.0839 
    100 H100       26.9776  -30.1275  -41.7517 H         1 UNK         0.2998 
    101 H101       24.9590  -31.5810  -40.2203 H         1 UNK         0.0822 
    102 H102       26.4255  -33.5212  -40.6733 H         1 UNK         0.0787 
    103 H103       27.3836  -32.5761  -41.8054 H         1 UNK         0.0787 
    104 H104       27.3783  -32.1700  -40.0884 H         1 UNK         0.0787 
    105 H105       23.6555  -30.2928  -42.2595 H         1 UNK         0.3055 
    106 H106       23.2915  -31.8660  -44.6453 H         1 UNK         0.1106 
    107 H107       21.4942  -30.2760  -45.1253 H         1 UNK         0.0828 
    108 H108       21.4046  -29.7624  -43.4483 H         1 UNK         0.0828 
    109 H109       22.8175  -29.3660  -44.4236 H         1 UNK         0.0828 
    110 H110       21.9970  -33.5972  -44.9850 H         1 UNK         0.2931 
    111 H111       20.6974  -35.3314  -44.6961 H         1 UNK         0.0412 
    112 H112       22.5957  -36.0434  -41.4128 H         1 UNK         0.3472 
    113 H113       22.9494  -34.7824  -42.5683 H         1 UNK         0.3472 
    114 H114       18.9084  -33.5450  -42.9698 H         1 UNK         0.0970 
    115 H115       18.4868  -35.1485  -43.4546 H         1 UNK         0.0970 
    116 H116       19.6354  -31.6947  -44.9840 H         1 UNK         0.0612 
    117 H117       18.6136  -31.5873  -46.3776 H         1 UNK         0.0612 
@<TRIPOS>BOND
     1    1    2 1    
     2    1   62 1    
     3    1   63 1    
     4    1   64 1    
     5    2    3 2    
     6    2    4 am   BACKBONE|DICT|INTERRES
     7    4    5 1    
     8    4   65 1    
     9    5    6 1    
    10    5   25 1    
    11    5   66 1    
    12    6    7 1    
    13    6   67 1    
    14    6   68 1    
    15    7    8 1    
    16    8    9 1    
    17    8   69 1    
    18    8   70 1    
    19    9   10 ar   
    20    9   14 ar   
    21   10   11 ar   
    22   10   71 1    
    23   11   12 ar   
    24   11   61 1    
    25   12   13 ar   
    26   12   72 1    
    27   13   14 ar   
    28   13   15 1    
    29   14   73 1    
    30   15   16 1    
    31   15   74 1    
    32   15   75 1    
    33   16   17 1    
    34   17   18 1    
    35   17   76 1    
    36   17   77 1    
    37   18   19 1    
    38   18   27 1    
    39   18   78 1    
    40   19   20 am   BACKBONE|DICT|INTERRES
    41   19   79 1    
    42   20   21 2    
    43   20   22 1    
    44   22   23 1    
    45   22   24 1    
    46   22   80 1    
    47   23   81 1    
    48   23   82 1    
    49   23   83 1    
    50   24   25 am   BACKBONE|DICT|INTERRES
    51   24   84 1    
    52   25   26 2    
    53   27   28 2    
    54   27   29 am   BACKBONE|DICT|INTERRES
    55   29   30 1    
    56   29   85 1    
    57   30   31 1    
    58   30   32 1    
    59   30   86 1    
    60   31   87 1    
    61   31   88 1    
    62   31   89 1    
    63   32   33 2    
    64   32   34 am   BACKBONE|DICT|INTERRES
    65   34   35 1    
    66   34   90 1    
    67   35   36 1    
    68   35   37 1    
    69   35   91 1    
    70   36   92 1    
    71   36   93 1    
    72   36   94 1    
    73   37   38 2    
    74   37   39 am   BACKBONE|DICT|INTERRES
    75   39   40 1    
    76   39   95 1    
    77   40   41 1    
    78   40   42 1    
    79   40   96 1    
    80   41   97 1    
    81   41   98 1    
    82   41   99 1    
    83   42   43 2    
    84   42   44 am   BACKBONE|DICT|INTERRES
    85   44   45 1    
    86   44  100 1    
    87   45   46 1    
    88   45   47 1    
    89   45  101 1    
    90   46  102 1    
    91   46  103 1    
    92   46  104 1    
    93   47   48 2    
    94   47   49 am   BACKBONE|DICT|INTERRES
    95   49   50 1    
    96   49  105 1    
    97   50   51 1    
    98   50   52 1    
    99   50  106 1    
   100   51  107 1    
   101   51  108 1    
   102   51  109 1    
   103   52   53 2    
   104   52   54 am   BACKBONE|DICT|INTERRES
   105   54   55 1    
   106   54  110 1    
   107   55   56 1    
   108   55   59 1    
   109   55  111 1    
   110   56   57 am   BACKBONE|DICT|INTERRES
   111   56   58 2    
   112   57  112 1    
   113   57  113 1    
   114   59   60 1    
   115   59  114 1    
   116   59  115 1    
   117   60   61 1    
   118   61  116 1    
   119   61  117 1    
@<TRIPOS>SUBSTRUCTURE
     1 UNK         1 GROUP             0       ****    0 ROOT    
