@<TRIPOS>MOLECULE
3R8
117   119    1
SMALL
USER_CHARGES


@<TRIPOS>ATOM
      1 CA         24.9060  -30.2681  -44.4307 C.3       0 UNK        -0.2013 
      2 C          23.3981  -30.3516  -44.2379 C.2       0 UNK         0.4866 
      3 O          22.8509  -31.4531  -44.1710 O.2       0 UNK        -0.5176 
      4 N          22.7324  -29.1958  -44.1535 N.am      1 UNK        -0.4884 
      5 CA         21.2784  -29.0542  -44.1109 C.3       1 UNK         0.0853 
      6 C6         20.7752  -28.2315  -45.3254 C.3       10 UNK        -0.0849 
      7 S7         20.7976  -29.2286  -46.8539 S.3       10 UNK        -0.2776 
      8 C8         19.0327  -29.2794  -47.3214 C.3       10 UNK         0.0316 
      9 C9         18.1077  -29.6422  -46.1641 C.ar      10 UNK        -0.0863 
     10 C10        18.3357  -30.7890  -45.3990 C.ar      10 UNK        -0.1009 
     11 C11        17.5037  -31.1027  -44.3215 C.ar      10 UNK        -0.0712 
     12 C12        16.4196  -30.2703  -44.0214 C.ar      10 UNK        -0.0894 
     13 C13        16.1622  -29.1358  -44.7998 C.ar      10 UNK        -0.0745 
     14 C14        17.0144  -28.8251  -45.8635 C.ar      10 UNK        -0.0972 
     15 C15        14.9291  -28.2793  -44.5384 C.3       10 UNK         0.0209 
     16 S16        15.1254  -27.1473  -43.1267 S.3       10 UNK        -0.2568 
     17 C17        16.3459  -25.9346  -43.7452 C.3       10 UNK        -0.0983 
     18 CA         17.4302  -25.6244  -42.6833 C.3       3 UNK         0.0876 
     19 N          18.1132  -26.8430  -42.2450 N.am      3 UNK        -0.4424 
     20 C          18.6200  -27.0444  -41.0242 C.2       2 UNK         0.4918 
     21 O          18.5192  -26.2426  -40.0961 O.2       2 UNK        -0.4875 
     22 CA         19.4010  -28.3510  -40.8120 C.3       2 UNK         0.0481 
     23 CB         18.5274  -29.3929  -40.0977 C.3       2 UNK        -0.1831 
     24 N          19.9493  -28.9275  -42.0481 N.am      2 UNK        -0.4498 
     25 C          20.8990  -28.3525  -42.8009 C.2       1 UNK         0.5027 
     26 O          21.4214  -27.2737  -42.5229 O.2       1 UNK        -0.4969 
     27 C          18.4228  -24.5383  -43.1673 C.2       3 UNK         0.5005 
     28 O          17.9772  -23.4682  -43.5860 O.2       3 UNK        -0.5279 
     29 N          19.7349  -24.8097  -43.1055 N.am      4 UNK        -0.4463 
     30 CA         20.8208  -23.8872  -43.4277 C.3       4 UNK         0.0283 
     31 CB         21.3045  -24.1410  -44.8708 C.3       4 UNK        -0.1875 
     32 C          21.9181  -24.0343  -42.3570 C.2       4 UNK         0.4949 
     33 O          21.5918  -24.1834  -41.1773 O.2       4 UNK        -0.5039 
     34 N          23.1909  -23.9724  -42.7658 N.am      5 UNK        -0.4663 
     35 CA         24.3510  -24.1946  -41.9016 C.3       5 UNK         0.0242 
     36 CB         25.5194  -23.3341  -42.4114 C.3       5 UNK        -0.1982 
     37 C          24.7487  -25.6803  -41.8927 C.2       5 UNK         0.5017 
     38 O          24.5729  -26.3602  -42.9075 O.2       5 UNK        -0.5012 
     39 N          25.3353  -26.1169  -40.7656 N.am      6 UNK        -0.4439 
     40 CA         25.8486  -27.4632  -40.4755 C.3       6 UNK         0.0297 
     41 CB         27.0450  -27.8060  -41.3895 C.3       6 UNK        -0.2006 
     42 C          24.7391  -28.5260  -40.5425 C.2       6 UNK         0.4892 
     43 O          24.6158  -29.2196  -41.5490 O.2       6 UNK        -0.5089 
     44 N          23.9361  -28.6179  -39.4749 N.am      7 UNK        -0.4243 
     45 CA         22.7438  -29.4663  -39.3596 C.3       7 UNK         0.0196 
     46 CB         21.9220  -28.9845  -38.1477 C.3       7 UNK        -0.2007 
     47 C          23.0275  -30.9838  -39.3080 C.2       7 UNK         0.5020 
     48 O          22.6964  -31.6377  -38.3177 O.2       7 UNK        -0.5147 
     49 N          23.6383  -31.5200  -40.3699 N.am      8 UNK        -0.4734 
     50 CA         23.9267  -32.9429  -40.5419 C.3       8 UNK         0.0238 
     51 CB         25.0666  -33.1308  -41.5582 C.3       8 UNK        -0.1912 
     52 C          22.6704  -33.7309  -40.9441 C.2       8 UNK         0.5038 
     53 O          22.2312  -34.5868  -40.1741 O.2       8 UNK        -0.5046 
     54 N          22.1216  -33.4297  -42.1321 N.am      9 UNK        -0.4200 
     55 CA         20.9917  -34.1331  -42.7668 C.3       9 UNK         0.0839 
     56 C          21.2704  -35.6458  -43.0414 C.2       9 UNK         0.5513 
     57 N          20.2582  -36.4324  -43.3847 N.am      9 UNK        -0.7519 
     58 O          22.4079  -36.1125  -43.0113 O.2       9 UNK        -0.4960 
     59 C59        19.6405  -33.8455  -42.0439 C.3       10 UNK        -0.0876 
     60 S60        19.1097  -32.1218  -42.3138 S.3       10 UNK        -0.2414 
     61 C61        17.7680  -32.3651  -43.5177 C.3       10 UNK         0.0169 
     62 H62        25.4243  -30.7736  -43.6176 H         1 UNK         0.0903 
     63 H63        25.1921  -30.7440  -45.3681 H         1 UNK         0.0903 
     64 H64        25.2519  -29.2343  -44.4525 H         1 UNK         0.0903 
     65 H65        23.2478  -28.3287  -44.0579 H         1 UNK         0.3096 
     66 H66        20.7987  -30.0353  -44.1206 H         1 UNK         0.1121 
     67 H67        21.4033  -27.3539  -45.4824 H         1 UNK         0.0849 
     68 H68        19.7704  -27.8410  -45.1570 H         1 UNK         0.0849 
     69 H69        18.8996  -30.0068  -48.1231 H         1 UNK         0.0865 
     70 H70        18.7624  -28.3091  -47.7410 H         1 UNK         0.0865 
     71 H71        19.1719  -31.4335  -45.6354 H         1 UNK         0.1346 
     72 H72        15.7612  -30.5168  -43.1995 H         1 UNK         0.1412 
     73 H73        16.8160  -27.9509  -46.4688 H         1 UNK         0.1426 
     74 H74        14.0775  -28.9322  -44.3422 H         1 UNK         0.0716 
     75 H75        14.6644  -27.7012  -45.4252 H         1 UNK         0.0716 
     76 H76        15.8013  -25.0279  -44.0151 H         1 UNK         0.0695 
     77 H77        16.8062  -26.2970  -44.6644 H         1 UNK         0.0695 
     78 H78        16.9185  -25.1903  -41.8211 H         1 UNK         0.0983 
     79 H79        18.2008  -27.5768  -42.9317 H         1 UNK         0.3095 
     80 H80        20.2351  -28.0991  -40.1597 H         1 UNK         0.0454 
     81 H81        17.6881  -29.7098  -40.7183 H         1 UNK         0.0851 
     82 H82        18.1145  -28.9895  -39.1721 H         1 UNK         0.0851 
     83 H83        19.1041  -30.2787  -39.8314 H         1 UNK         0.0851 
     84 H84        19.5680  -29.8224  -42.3315 H         1 UNK         0.2976 
     85 H85        20.0409  -25.6835  -42.6894 H         1 UNK         0.3116 
     86 H86        20.4610  -22.8587  -43.3589 H         1 UNK         0.0646 
     87 H87        22.0091  -23.3741  -45.1941 H         1 UNK         0.0847 
     88 H88        20.4726  -24.1205  -45.5751 H         1 UNK         0.0847 
     89 H89        21.7964  -25.1090  -44.9666 H         1 UNK         0.0847 
     90 H90        23.3781  -23.9113  -43.7559 H         1 UNK         0.3040 
     91 H91        24.1114  -23.8841  -40.8818 H         1 UNK         0.1015 
     92 H92        25.2611  -22.2749  -42.4121 H         1 UNK         0.0786 
     93 H93        25.8116  -23.6091  -43.4259 H         1 UNK         0.0786 
     94 H94        26.3990  -23.4515  -41.7768 H         1 UNK         0.0786 
     95 H95        25.4246  -25.4574  -40.0046 H         1 UNK         0.3172 
     96 H96        26.2193  -27.4448  -39.4493 H         1 UNK         0.0595 
     97 H97        26.7607  -27.8433  -42.4417 H         1 UNK         0.0839 
     98 H98        27.4596  -28.7820  -41.1346 H         1 UNK         0.0839 
     99 H99        27.8463  -27.0747  -41.2856 H         1 UNK         0.0839 
    100 H100       24.1311  -28.0232  -38.6826 H         1 UNK         0.2998 
    101 H101       22.1486  -29.3062  -40.2580 H         1 UNK         0.0822 
    102 H102       21.6636  -27.9288  -38.2330 H         1 UNK         0.0787 
    103 H103       20.9866  -29.5393  -38.0625 H         1 UNK         0.0787 
    104 H104       22.4669  -29.1197  -37.2125 H         1 UNK         0.0787 
    105 H105       23.9361  -30.8810  -41.1046 H         1 UNK         0.3055 
    106 H106       24.2715  -33.3406  -39.5843 H         1 UNK         0.1106 
    107 H107       25.3274  -34.1856  -41.6549 H         1 UNK         0.0828 
    108 H108       24.7958  -32.7745  -42.5514 H         1 UNK         0.0828 
    109 H109       25.9672  -32.6016  -41.2465 H         1 UNK         0.0828 
    110 H110       22.5464  -32.7093  -42.7085 H         1 UNK         0.2931 
    111 H111       20.9278  -33.7021  -43.7669 H         1 UNK         0.0412 
    112 H112       19.3182  -36.0795  -43.4646 H         1 UNK         0.3472 
    113 H113       20.4445  -37.4032  -43.5845 H         1 UNK         0.3472 
    114 H114       19.7261  -34.0256  -40.9716 H         1 UNK         0.0970 
    115 H115       18.8409  -34.5039  -42.3827 H         1 UNK         0.0970 
    116 H116       16.8675  -32.6874  -42.9928 H         1 UNK         0.0612 
    117 H117       18.0321  -33.1709  -44.2046 H         1 UNK         0.0612 
@<TRIPOS>BOND
     1    1    2 1    
     2    1   62 1    
     3    1   63 1    
     4    1   64 1    
     5    2    3 2    
     6    2    4 am   BACKBONE|DICT|INTERRES
     7    4    5 1    
     8    4   65 1    
     9    5    6 1    
    10    5   25 1    
    11    5   66 1    
    12    6    7 1    
    13    6   67 1    
    14    6   68 1    
    15    7    8 1    
    16    8    9 1    
    17    8   69 1    
    18    8   70 1    
    19    9   10 ar   
    20    9   14 ar   
    21   10   11 ar   
    22   10   71 1    
    23   11   12 ar   
    24   11   61 1    
    25   12   13 ar   
    26   12   72 1    
    27   13   14 ar   
    28   13   15 1    
    29   14   73 1    
    30   15   16 1    
    31   15   74 1    
    32   15   75 1    
    33   16   17 1    
    34   17   18 1    
    35   17   76 1    
    36   17   77 1    
    37   18   19 1    
    38   18   27 1    
    39   18   78 1    
    40   19   20 am   BACKBONE|DICT|INTERRES
    41   19   79 1    
    42   20   21 2    
    43   20   22 1    
    44   22   23 1    
    45   22   24 1    
    46   22   80 1    
    47   23   81 1    
    48   23   82 1    
    49   23   83 1    
    50   24   25 am   BACKBONE|DICT|INTERRES
    51   24   84 1    
    52   25   26 2    
    53   27   28 2    
    54   27   29 am   BACKBONE|DICT|INTERRES
    55   29   30 1    
    56   29   85 1    
    57   30   31 1    
    58   30   32 1    
    59   30   86 1    
    60   31   87 1    
    61   31   88 1    
    62   31   89 1    
    63   32   33 2    
    64   32   34 am   BACKBONE|DICT|INTERRES
    65   34   35 1    
    66   34   90 1    
    67   35   36 1    
    68   35   37 1    
    69   35   91 1    
    70   36   92 1    
    71   36   93 1    
    72   36   94 1    
    73   37   38 2    
    74   37   39 am   BACKBONE|DICT|INTERRES
    75   39   40 1    
    76   39   95 1    
    77   40   41 1    
    78   40   42 1    
    79   40   96 1    
    80   41   97 1    
    81   41   98 1    
    82   41   99 1    
    83   42   43 2    
    84   42   44 am   BACKBONE|DICT|INTERRES
    85   44   45 1    
    86   44  100 1    
    87   45   46 1    
    88   45   47 1    
    89   45  101 1    
    90   46  102 1    
    91   46  103 1    
    92   46  104 1    
    93   47   48 2    
    94   47   49 am   BACKBONE|DICT|INTERRES
    95   49   50 1    
    96   49  105 1    
    97   50   51 1    
    98   50   52 1    
    99   50  106 1    
   100   51  107 1    
   101   51  108 1    
   102   51  109 1    
   103   52   53 2    
   104   52   54 am   BACKBONE|DICT|INTERRES
   105   54   55 1    
   106   54  110 1    
   107   55   56 1    
   108   55   59 1    
   109   55  111 1    
   110   56   57 am   BACKBONE|DICT|INTERRES
   111   56   58 2    
   112   57  112 1    
   113   57  113 1    
   114   59   60 1    
   115   59  114 1    
   116   59  115 1    
   117   60   61 1    
   118   61  116 1    
   119   61  117 1    
@<TRIPOS>SUBSTRUCTURE
     1 UNK         1 GROUP             0       ****    0 ROOT    
