@<TRIPOS>MOLECULE
3R8
117   119    1
SMALL
USER_CHARGES


@<TRIPOS>ATOM
      1 CA         18.6333  -22.9924  -41.1812 C.3       0 UNK        -0.2013 
      2 C          19.4744  -24.2418  -40.9342 C.2       0 UNK         0.4866 
      3 O          20.3194  -24.2324  -40.0413 O.2       0 UNK        -0.5176 
      4 N          19.2785  -25.3365  -41.6807 N.am      1 UNK        -0.4884 
      5 CA         18.3839  -25.4810  -42.8338 C.3       1 UNK         0.0853 
      6 C6         18.0132  -26.9736  -43.0328 C.3       10 UNK        -0.0849 
      7 S7         16.4691  -27.2085  -43.9796 S.3       10 UNK        -0.2776 
      8 C8         16.1059  -28.9644  -43.6562 C.3       10 UNK         0.0316 
      9 C9         17.2644  -29.8778  -44.0355 C.ar      10 UNK        -0.0863 
     10 C10        17.8893  -30.6597  -43.0601 C.ar      10 UNK        -0.1009 
     11 C11        18.9456  -31.5095  -43.3997 C.ar      10 UNK        -0.0712 
     12 C12        19.3953  -31.5537  -44.7227 C.ar      10 UNK        -0.0894 
     13 C13        18.7877  -30.7673  -45.7071 C.ar      10 UNK        -0.0745 
     14 C14        17.7088  -29.9470  -45.3592 C.ar      10 UNK        -0.0972 
     15 C15        19.2847  -30.8302  -47.1472 C.3       10 UNK         0.0209 
     16 S16        19.6039  -29.1876  -47.8722 S.3       10 UNK        -0.2568 
     17 C17        20.9997  -28.5917  -46.8589 C.3       10 UNK        -0.0983 
     18 CA         21.2658  -27.0813  -47.0867 C.3       3 UNK         0.0876 
     19 N          20.0955  -26.2733  -46.7252 N.am      3 UNK        -0.4424 
     20 C          19.8329  -25.0342  -47.1599 C.2       2 UNK         0.4918 
     21 O          20.5140  -24.4447  -47.9986 O.2       2 UNK        -0.4875 
     22 CA         18.6312  -24.3107  -46.5191 C.3       2 UNK         0.0481 
     23 CB         17.4146  -24.3702  -47.4561 C.3       2 UNK        -0.1831 
     24 N          18.2424  -24.8203  -45.1962 N.am      2 UNK        -0.4498 
     25 C          19.0197  -24.8691  -44.1046 C.2       1 UNK         0.5027 
     26 O          20.1925  -24.4858  -44.0951 O.2       1 UNK        -0.4969 
     27 C          22.5631  -26.6228  -46.3730 C.2       3 UNK         0.5005 
     28 O          23.6160  -27.2091  -46.6292 O.2       3 UNK        -0.5279 
     29 N          22.4798  -25.5977  -45.5063 N.am      4 UNK        -0.4463 
     30 CA         23.5563  -25.0020  -44.7047 C.3       4 UNK         0.0283 
     31 CB         24.6709  -24.4107  -45.5946 C.3       4 UNK        -0.1875 
     32 C          24.0816  -25.9597  -43.6204 C.2       4 UNK         0.4949 
     33 O          25.2824  -25.9915  -43.3460 O.2       4 UNK        -0.5039 
     34 N          23.1613  -26.7160  -43.0150 N.am      5 UNK        -0.4663 
     35 CA         23.4057  -27.6709  -41.9413 C.3       5 UNK         0.0242 
     36 CB         23.9400  -28.9907  -42.5288 C.3       5 UNK        -0.1982 
     37 C          22.0935  -27.9014  -41.1846 C.2       5 UNK         0.5017 
     38 O          21.0194  -27.6020  -41.7135 O.2       5 UNK        -0.5012 
     39 N          22.2057  -28.4501  -39.9738 N.am      6 UNK        -0.4439 
     40 CA         21.1000  -28.9061  -39.1412 C.3       6 UNK         0.0297 
     41 CB         20.4991  -27.7307  -38.3507 C.3       6 UNK        -0.2006 
     42 C          21.6550  -29.9830  -38.2049 C.2       6 UNK         0.4892 
     43 O          22.8106  -29.8721  -37.7844 O.2       6 UNK        -0.5089 
     44 N          20.8310  -30.9965  -37.9053 N.am      7 UNK        -0.4243 
     45 CA         21.0857  -32.1681  -37.0513 C.3       7 UNK         0.0196 
     46 CB         21.3622  -31.7558  -35.5916 C.3       7 UNK        -0.2007 
     47 C          22.1751  -33.1202  -37.5799 C.2       7 UNK         0.5020 
     48 O          21.8938  -34.2984  -37.7989 O.2       7 UNK        -0.5147 
     49 N          23.3893  -32.5995  -37.7976 N.am      8 UNK        -0.4734 
     50 CA         24.5652  -33.3284  -38.2917 C.3       8 UNK         0.0238 
     51 CB         25.7950  -32.4101  -38.2072 C.3       8 UNK        -0.1912 
     52 C          24.4029  -33.8797  -39.7199 C.2       8 UNK         0.5038 
     53 O          25.0686  -34.8536  -40.0732 O.2       8 UNK        -0.5046 
     54 N          23.5114  -33.2578  -40.4987 N.am      9 UNK        -0.4200 
     55 CA         23.0437  -33.7186  -41.8115 C.3       9 UNK         0.0839 
     56 C          22.1361  -34.9848  -41.7741 C.2       9 UNK         0.5513 
     57 N          21.6595  -35.4414  -40.6209 N.am      9 UNK        -0.7519 
     58 O          21.8656  -35.5698  -42.8195 O.2       9 UNK        -0.4960 
     59 C59        22.3911  -32.5583  -42.6110 C.3       10 UNK        -0.0876 
     60 S60        21.1009  -31.6655  -41.6699 S.3       10 UNK        -0.2414 
     61 C61        19.5763  -32.3956  -42.3369 C.3       10 UNK         0.0169 
     62 H62        17.5756  -23.1968  -41.0184 H         1 UNK         0.0903 
     63 H63        18.9242  -22.1962  -40.4962 H         1 UNK         0.0903 
     64 H64        18.7717  -22.6198  -42.1954 H         1 UNK         0.0903 
     65 H65        19.8926  -26.1353  -41.5333 H         1 UNK         0.3096 
     66 H66        17.4654  -24.9293  -42.6259 H         1 UNK         0.1121 
     67 H67        17.8668  -27.4492  -42.0610 H         1 UNK         0.0849 
     68 H68        18.8266  -27.5262  -43.5087 H         1 UNK         0.0849 
     69 H69        15.8442  -29.0823  -42.6034 H         1 UNK         0.0865 
     70 H70        15.2216  -29.2547  -44.2250 H         1 UNK         0.0865 
     71 H71        17.5474  -30.6167  -42.0350 H         1 UNK         0.1346 
     72 H72        20.2144  -32.2076  -44.9867 H         1 UNK         0.1412 
     73 H73        17.2252  -29.3453  -46.1168 H         1 UNK         0.1426 
     74 H74        18.5337  -31.3394  -47.7524 H         1 UNK         0.0716 
     75 H75        20.1958  -31.4261  -47.2203 H         1 UNK         0.0716 
     76 H76        20.7952  -28.7882  -45.8046 H         1 UNK         0.0695 
     77 H77        21.8758  -29.1879  -47.1212 H         1 UNK         0.0695 
     78 H78        21.4510  -26.9364  -48.1535 H         1 UNK         0.0983 
     79 H79        19.4578  -26.6917  -46.0650 H         1 UNK         0.3095 
     80 H80        18.9148  -23.2640  -46.3931 H         1 UNK         0.0454 
     81 H81        17.6599  -23.9718  -48.4418 H         1 UNK         0.0851 
     82 H82        17.0634  -25.3933  -47.5969 H         1 UNK         0.0851 
     83 H83        16.5844  -23.7793  -47.0692 H         1 UNK         0.0851 
     84 H84        17.3078  -25.2020  -45.1220 H         1 UNK         0.2976 
     85 H85        21.5609  -25.2060  -45.3206 H         1 UNK         0.3116 
     86 H86        23.0980  -24.1699  -44.1680 H         1 UNK         0.0646 
     87 H87        25.3802  -23.8357  -44.9982 H         1 UNK         0.0847 
     88 H88        24.2625  -23.7378  -46.3484 H         1 UNK         0.0847 
     89 H89        25.2383  -25.1872  -46.1081 H         1 UNK         0.0847 
     90 H90        22.1834  -26.6016  -43.2528 H         1 UNK         0.3040 
     91 H91        24.1361  -27.2500  -41.2465 H         1 UNK         0.1015 
     92 H92        24.8894  -28.8430  -43.0435 H         1 UNK         0.0786 
     93 H93        23.2361  -29.4187  -43.2438 H         1 UNK         0.0786 
     94 H94        24.1089  -29.7329  -41.7476 H         1 UNK         0.0786 
     95 H95        23.1181  -28.6870  -39.6026 H         1 UNK         0.3172 
     96 H96        20.3300  -29.3489  -39.7769 H         1 UNK         0.0595 
     97 H97        19.6828  -28.0664  -37.7100 H         1 UNK         0.0839 
     98 H98        20.0949  -26.9685  -39.0170 H         1 UNK         0.0839 
     99 H99        21.2433  -27.2541  -37.7113 H         1 UNK         0.0839 
    100 H100       19.9172  -30.9872  -38.3378 H         1 UNK         0.2998 
    101 H101       20.1544  -32.7372  -37.0523 H         1 UNK         0.0822 
    102 H102       20.5424  -31.1622  -35.1871 H         1 UNK         0.0787 
    103 H103       21.4708  -32.6342  -34.9539 H         1 UNK         0.0787 
    104 H104       22.2772  -31.1710  -35.4935 H         1 UNK         0.0787 
    105 H105       23.4915  -31.5986  -37.6411 H         1 UNK         0.3055 
    106 H106       24.7258  -34.1854  -37.6339 H         1 UNK         0.1106 
    107 H107       25.6766  -31.5196  -38.8259 H         1 UNK         0.0828 
    108 H108       25.9778  -32.0851  -37.1828 H         1 UNK         0.0828 
    109 H109       26.6938  -32.9270  -38.5466 H         1 UNK         0.0828 
    110 H110       23.0038  -32.4774  -40.1095 H         1 UNK         0.2931 
    111 H111       23.9319  -34.0215  -42.3694 H         1 UNK         0.0412 
    112 H112       21.0792  -36.2651  -40.6235 H         1 UNK         0.3472 
    113 H113       21.8629  -34.9758  -39.7441 H         1 UNK         0.3472 
    114 H114       21.9953  -32.9092  -43.5651 H         1 UNK         0.0970 
    115 H115       23.1628  -31.8355  -42.8750 H         1 UNK         0.0970 
    116 H116       18.8786  -32.5434  -41.5112 H         1 UNK         0.0612 
    117 H117       19.7704  -33.3890  -42.7431 H         1 UNK         0.0612 
@<TRIPOS>BOND
     1    1    2 1    
     2    1   62 1    
     3    1   63 1    
     4    1   64 1    
     5    2    3 2    
     6    2    4 am   BACKBONE|DICT|INTERRES
     7    4    5 1    
     8    4   65 1    
     9    5    6 1    
    10    5   25 1    
    11    5   66 1    
    12    6    7 1    
    13    6   67 1    
    14    6   68 1    
    15    7    8 1    
    16    8    9 1    
    17    8   69 1    
    18    8   70 1    
    19    9   10 ar   
    20    9   14 ar   
    21   10   11 ar   
    22   10   71 1    
    23   11   12 ar   
    24   11   61 1    
    25   12   13 ar   
    26   12   72 1    
    27   13   14 ar   
    28   13   15 1    
    29   14   73 1    
    30   15   16 1    
    31   15   74 1    
    32   15   75 1    
    33   16   17 1    
    34   17   18 1    
    35   17   76 1    
    36   17   77 1    
    37   18   19 1    
    38   18   27 1    
    39   18   78 1    
    40   19   20 am   BACKBONE|DICT|INTERRES
    41   19   79 1    
    42   20   21 2    
    43   20   22 1    
    44   22   23 1    
    45   22   24 1    
    46   22   80 1    
    47   23   81 1    
    48   23   82 1    
    49   23   83 1    
    50   24   25 am   BACKBONE|DICT|INTERRES
    51   24   84 1    
    52   25   26 2    
    53   27   28 2    
    54   27   29 am   BACKBONE|DICT|INTERRES
    55   29   30 1    
    56   29   85 1    
    57   30   31 1    
    58   30   32 1    
    59   30   86 1    
    60   31   87 1    
    61   31   88 1    
    62   31   89 1    
    63   32   33 2    
    64   32   34 am   BACKBONE|DICT|INTERRES
    65   34   35 1    
    66   34   90 1    
    67   35   36 1    
    68   35   37 1    
    69   35   91 1    
    70   36   92 1    
    71   36   93 1    
    72   36   94 1    
    73   37   38 2    
    74   37   39 am   BACKBONE|DICT|INTERRES
    75   39   40 1    
    76   39   95 1    
    77   40   41 1    
    78   40   42 1    
    79   40   96 1    
    80   41   97 1    
    81   41   98 1    
    82   41   99 1    
    83   42   43 2    
    84   42   44 am   BACKBONE|DICT|INTERRES
    85   44   45 1    
    86   44  100 1    
    87   45   46 1    
    88   45   47 1    
    89   45  101 1    
    90   46  102 1    
    91   46  103 1    
    92   46  104 1    
    93   47   48 2    
    94   47   49 am   BACKBONE|DICT|INTERRES
    95   49   50 1    
    96   49  105 1    
    97   50   51 1    
    98   50   52 1    
    99   50  106 1    
   100   51  107 1    
   101   51  108 1    
   102   51  109 1    
   103   52   53 2    
   104   52   54 am   BACKBONE|DICT|INTERRES
   105   54   55 1    
   106   54  110 1    
   107   55   56 1    
   108   55   59 1    
   109   55  111 1    
   110   56   57 am   BACKBONE|DICT|INTERRES
   111   56   58 2    
   112   57  112 1    
   113   57  113 1    
   114   59   60 1    
   115   59  114 1    
   116   59  115 1    
   117   60   61 1    
   118   61  116 1    
   119   61  117 1    
@<TRIPOS>SUBSTRUCTURE
     1 UNK         1 GROUP             0       ****    0 ROOT    
