@<TRIPOS>MOLECULE
3R8
117   119    1
SMALL
USER_CHARGES


@<TRIPOS>ATOM
      1 CA         15.1666  -23.8689  -47.9033 C.3       0 UNK        -0.2013 
      2 C          16.1880  -24.6722  -47.1130 C.2       0 UNK         0.4866 
      3 O          17.1884  -25.1172  -47.6761 O.2       0 UNK        -0.5176 
      4 N          15.9594  -24.8473  -45.8055 N.am      1 UNK        -0.4884 
      5 CA         16.7872  -25.6289  -44.8738 C.3       1 UNK         0.0853 
      6 C6         15.9625  -26.0967  -43.6439 C.3       10 UNK        -0.0849 
      7 S7         14.6660  -27.2906  -44.1219 S.3       10 UNK        -0.2776 
      8 C8         14.9873  -28.6972  -42.9963 C.3       10 UNK         0.0316 
      9 C9         16.4040  -29.2671  -43.0720 C.ar      10 UNK        -0.0863 
     10 C10        17.0531  -29.6590  -41.8970 C.ar      10 UNK        -0.1009 
     11 C11        18.3478  -30.1888  -41.9241 C.ar      10 UNK        -0.0712 
     12 C12        19.0046  -30.3030  -43.1584 C.ar      10 UNK        -0.0894 
     13 C13        18.3596  -29.9414  -44.3445 C.ar      10 UNK        -0.0745 
     14 C14        17.0586  -29.4340  -44.2957 C.ar      10 UNK        -0.0972 
     15 C15        19.0422  -30.1338  -45.6895 C.3       10 UNK         0.0209 
     16 S16        19.5118  -28.5444  -46.4403 S.3       10 UNK        -0.2568 
     17 C17        21.2985  -28.4150  -46.0638 C.3       10 UNK        -0.0983 
     18 CA         21.6786  -27.2624  -45.0963 C.3       3 UNK         0.0876 
     19 N          20.9465  -26.0343  -45.4037 N.am      3 UNK        -0.4424 
     20 C          21.1978  -24.8043  -44.9402 C.2       2 UNK         0.4918 
     21 O          22.1638  -24.5205  -44.2322 O.2       2 UNK        -0.4875 
     22 CA         20.1422  -23.7336  -45.2781 C.3       2 UNK         0.0481 
     23 CB         20.5342  -22.9710  -46.5525 C.3       2 UNK        -0.1831 
     24 N          18.7991  -24.3072  -45.4445 N.am      2 UNK        -0.4498 
     25 C          18.0936  -24.9021  -44.4713 C.2       1 UNK         0.5027 
     26 O          18.4756  -24.9242  -43.3016 O.2       1 UNK        -0.4969 
     27 C          21.6040  -27.6914  -43.6141 C.2       3 UNK         0.5005 
     28 O          22.4215  -28.5151  -43.2050 O.2       3 UNK        -0.5279 
     29 N          20.7040  -27.1017  -42.8082 N.am      4 UNK        -0.4463 
     30 CA         20.6225  -27.3247  -41.3582 C.3       4 UNK         0.0283 
     31 CB         19.3225  -26.7175  -40.8091 C.3       4 UNK        -0.1875 
     32 C          21.8421  -26.8100  -40.5683 C.2       4 UNK         0.4949 
     33 O          21.9856  -27.1529  -39.3950 O.2       4 UNK        -0.5039 
     34 N          22.7057  -26.0141  -41.2155 N.am      5 UNK        -0.4663 
     35 CA         24.0164  -25.6145  -40.7033 C.3       5 UNK         0.0242 
     36 CB         24.5387  -24.4386  -41.5447 C.3       5 UNK        -0.1982 
     37 C          25.0443  -26.7649  -40.6872 C.2       5 UNK         0.5017 
     38 O          26.0345  -26.6598  -39.9616 O.2       5 UNK        -0.5012 
     39 N          24.8175  -27.8250  -41.4790 N.am      6 UNK        -0.4439 
     40 CA         25.6534  -29.0268  -41.5063 C.3       6 UNK         0.0297 
     41 CB         25.4572  -29.7520  -42.8483 C.3       6 UNK        -0.2006 
     42 C          25.3127  -29.9664  -40.3380 C.2       6 UNK         0.4892 
     43 O          24.2016  -29.9205  -39.8054 O.2       6 UNK        -0.5089 
     44 N          26.2732  -30.8261  -39.9797 N.am      7 UNK        -0.4243 
     45 CA         26.0992  -31.8798  -38.9796 C.3       7 UNK         0.0196 
     46 CB         27.4819  -32.3919  -38.5438 C.3       7 UNK        -0.2007 
     47 C          25.2493  -33.0375  -39.5294 C.2       7 UNK         0.5020 
     48 O          25.3213  -33.3363  -40.7238 O.2       7 UNK        -0.5147 
     49 N          24.4878  -33.6840  -38.6367 N.am      8 UNK        -0.4734 
     50 CA         23.6499  -34.8820  -38.8229 C.3       8 UNK         0.0238 
     51 CB         24.5058  -36.0966  -39.2348 C.3       8 UNK        -0.1912 
     52 C          22.4350  -34.7318  -39.7611 C.2       8 UNK         0.5038 
     53 O          21.4039  -35.3461  -39.4844 O.2       8 UNK        -0.5046 
     54 N          22.5669  -33.9471  -40.8378 N.am      9 UNK        -0.4200 
     55 CA         21.5563  -33.7127  -41.8869 C.3       9 UNK         0.0839 
     56 C          21.2352  -34.9652  -42.7603 C.2       9 UNK         0.5513 
     57 N          22.0860  -35.9845  -42.7906 N.am      9 UNK        -0.7519 
     58 O          20.2188  -35.0063  -43.4490 O.2       9 UNK        -0.4960 
     59 C59        20.2765  -33.0014  -41.3565 C.3       10 UNK        -0.0876 
     60 S60        20.6412  -31.3545  -40.6611 S.3       10 UNK        -0.2414 
     61 C61        18.9703  -30.6184  -40.5902 C.3       10 UNK         0.0169 
     62 H62        14.7582  -24.4751  -48.7114 H         1 UNK         0.0903 
     63 H63        14.3385  -23.5345  -47.2787 H         1 UNK         0.0903 
     64 H64        15.6382  -22.9897  -48.3414 H         1 UNK         0.0903 
     65 H65        15.1279  -24.4425  -45.3983 H         1 UNK         0.3096 
     66 H66        17.1186  -26.5282  -45.3989 H         1 UNK         0.1121 
     67 H67        15.4973  -25.2458  -43.1433 H         1 UNK         0.0849 
     68 H68        16.6036  -26.5665  -42.8969 H         1 UNK         0.0849 
     69 H69        14.7630  -28.3732  -41.9787 H         1 UNK         0.0865 
     70 H70        14.2804  -29.4956  -43.2253 H         1 UNK         0.0865 
     71 H71        16.5447  -29.5561  -40.9477 H         1 UNK         0.1346 
     72 H72        20.0127  -30.6876  -43.2117 H         1 UNK         0.1412 
     73 H73        16.5595  -29.1617  -45.2157 H         1 UNK         0.1426 
     74 H74        18.3503  -30.6407  -46.3638 H         1 UNK         0.0716 
     75 H75        19.9074  -30.7923  -45.6029 H         1 UNK         0.0716 
     76 H76        21.7977  -28.2415  -47.0183 H         1 UNK         0.0695 
     77 H77        21.6898  -29.3727  -45.7159 H         1 UNK         0.0695 
     78 H78        22.7343  -27.0394  -45.2671 H         1 UNK         0.0983 
     79 H79        20.1273  -26.1671  -45.9798 H         1 UNK         0.3095 
     80 H80        20.1087  -23.0246  -44.4484 H         1 UNK         0.0454 
     81 H81        19.8320  -22.1645  -46.7636 H         1 UNK         0.0851 
     82 H82        20.5646  -23.6263  -47.4239 H         1 UNK         0.0851 
     83 H83        21.5221  -22.5198  -46.4485 H         1 UNK         0.0851 
     84 H84        18.4224  -24.3617  -46.3872 H         1 UNK         0.2976 
     85 H85        20.0664  -26.4151  -43.1926 H         1 UNK         0.3116 
     86 H86        20.5879  -28.4022  -41.2017 H         1 UNK         0.0646 
     87 H87        18.4508  -27.0950  -41.3426 H         1 UNK         0.0847 
     88 H88        19.3223  -25.6299  -40.8857 H         1 UNK         0.0847 
     89 H89        19.1900  -26.9687  -39.7561 H         1 UNK         0.0847 
     90 H90        22.4888  -25.7432  -42.1659 H         1 UNK         0.3040 
     91 H91        23.8935  -25.2739  -39.6727 H         1 UNK         0.1015 
     92 H92        25.5035  -24.0896  -41.1738 H         1 UNK         0.0786 
     93 H93        23.8536  -23.5910  -41.5111 H         1 UNK         0.0786 
     94 H94        24.6721  -24.7190  -42.5905 H         1 UNK         0.0786 
     95 H95        23.9422  -27.8817  -41.9906 H         1 UNK         0.3172 
     96 H96        26.7012  -28.7290  -41.4257 H         1 UNK         0.0595 
     97 H97        24.4497  -30.1593  -42.9431 H         1 UNK         0.0839 
     98 H98        26.1504  -30.5884  -42.9460 H         1 UNK         0.0839 
     99 H99        25.6314  -29.0857  -43.6933 H         1 UNK         0.0839 
    100 H100       27.1407  -30.8327  -40.4965 H         1 UNK         0.2998 
    101 H101       25.5959  -31.4510  -38.1099 H         1 UNK         0.0822 
    102 H102       28.0315  -32.8306  -39.3779 H         1 UNK         0.0787 
    103 H103       27.3900  -33.1606  -37.7752 H         1 UNK         0.0787 
    104 H104       28.0895  -31.5889  -38.1257 H         1 UNK         0.0787 
    105 H105       24.4873  -33.3231  -37.6918 H         1 UNK         0.3055 
    106 H106       23.2359  -35.1004  -37.8367 H         1 UNK         0.1106 
    107 H107       24.9614  -35.9628  -40.2163 H         1 UNK         0.0828 
    108 H108       23.8999  -37.0027  -39.2809 H         1 UNK         0.0828 
    109 H109       25.3052  -36.2798  -38.5169 H         1 UNK         0.0828 
    110 H110       23.4802  -33.5289  -40.9918 H         1 UNK         0.2931 
    111 H111       22.0333  -33.0229  -42.5843 H         1 UNK         0.0412 
    112 H112       22.9342  -35.9583  -42.2480 H         1 UNK         0.3472 
    113 H113       21.8771  -36.7855  -43.3660 H         1 UNK         0.3472 
    114 H114       19.5494  -32.8750  -42.1597 H         1 UNK         0.0970 
    115 H115       19.7766  -33.6057  -40.5986 H         1 UNK         0.0970 
    116 H116       19.0183  -29.7467  -39.9364 H         1 UNK         0.0612 
    117 H117       18.3036  -31.3293  -40.0998 H         1 UNK         0.0612 
@<TRIPOS>BOND
     1    1    2 1    
     2    1   62 1    
     3    1   63 1    
     4    1   64 1    
     5    2    3 2    
     6    2    4 am   BACKBONE|DICT|INTERRES
     7    4    5 1    
     8    4   65 1    
     9    5    6 1    
    10    5   25 1    
    11    5   66 1    
    12    6    7 1    
    13    6   67 1    
    14    6   68 1    
    15    7    8 1    
    16    8    9 1    
    17    8   69 1    
    18    8   70 1    
    19    9   10 ar   
    20    9   14 ar   
    21   10   11 ar   
    22   10   71 1    
    23   11   12 ar   
    24   11   61 1    
    25   12   13 ar   
    26   12   72 1    
    27   13   14 ar   
    28   13   15 1    
    29   14   73 1    
    30   15   16 1    
    31   15   74 1    
    32   15   75 1    
    33   16   17 1    
    34   17   18 1    
    35   17   76 1    
    36   17   77 1    
    37   18   19 1    
    38   18   27 1    
    39   18   78 1    
    40   19   20 am   BACKBONE|DICT|INTERRES
    41   19   79 1    
    42   20   21 2    
    43   20   22 1    
    44   22   23 1    
    45   22   24 1    
    46   22   80 1    
    47   23   81 1    
    48   23   82 1    
    49   23   83 1    
    50   24   25 am   BACKBONE|DICT|INTERRES
    51   24   84 1    
    52   25   26 2    
    53   27   28 2    
    54   27   29 am   BACKBONE|DICT|INTERRES
    55   29   30 1    
    56   29   85 1    
    57   30   31 1    
    58   30   32 1    
    59   30   86 1    
    60   31   87 1    
    61   31   88 1    
    62   31   89 1    
    63   32   33 2    
    64   32   34 am   BACKBONE|DICT|INTERRES
    65   34   35 1    
    66   34   90 1    
    67   35   36 1    
    68   35   37 1    
    69   35   91 1    
    70   36   92 1    
    71   36   93 1    
    72   36   94 1    
    73   37   38 2    
    74   37   39 am   BACKBONE|DICT|INTERRES
    75   39   40 1    
    76   39   95 1    
    77   40   41 1    
    78   40   42 1    
    79   40   96 1    
    80   41   97 1    
    81   41   98 1    
    82   41   99 1    
    83   42   43 2    
    84   42   44 am   BACKBONE|DICT|INTERRES
    85   44   45 1    
    86   44  100 1    
    87   45   46 1    
    88   45   47 1    
    89   45  101 1    
    90   46  102 1    
    91   46  103 1    
    92   46  104 1    
    93   47   48 2    
    94   47   49 am   BACKBONE|DICT|INTERRES
    95   49   50 1    
    96   49  105 1    
    97   50   51 1    
    98   50   52 1    
    99   50  106 1    
   100   51  107 1    
   101   51  108 1    
   102   51  109 1    
   103   52   53 2    
   104   52   54 am   BACKBONE|DICT|INTERRES
   105   54   55 1    
   106   54  110 1    
   107   55   56 1    
   108   55   59 1    
   109   55  111 1    
   110   56   57 am   BACKBONE|DICT|INTERRES
   111   56   58 2    
   112   57  112 1    
   113   57  113 1    
   114   59   60 1    
   115   59  114 1    
   116   59  115 1    
   117   60   61 1    
   118   61  116 1    
   119   61  117 1    
@<TRIPOS>SUBSTRUCTURE
     1 UNK         1 GROUP             0       ****    0 ROOT    
