@<TRIPOS>MOLECULE
3R8
117   119    1
SMALL
USER_CHARGES


@<TRIPOS>ATOM
      1 CA         16.0251  -22.3746  -47.3408 C.3       0 UNK        -0.2013 
      2 C          17.1404  -23.3753  -47.0769 C.2       0 UNK         0.4866 
      3 O          18.2884  -23.1240  -47.4456 O.2       0 UNK        -0.5176 
      4 N          16.8112  -24.5116  -46.4506 N.am      1 UNK        -0.4884 
      5 CA         17.7612  -25.5627  -46.0723 C.3       1 UNK         0.0853 
      6 C6         17.0374  -26.8633  -45.6552 C.3       10 UNK        -0.0849 
      7 S7         16.2161  -27.6992  -47.0511 S.3       10 UNK        -0.2776 
      8 C8         15.1302  -28.8800  -46.1794 C.3       10 UNK         0.0316 
      9 C9         15.8605  -29.6320  -45.0729 C.ar      10 UNK        -0.0863 
     10 C10        16.8274  -30.5919  -45.3870 C.ar      10 UNK        -0.1009 
     11 C11        17.5349  -31.2539  -44.3782 C.ar      10 UNK        -0.0712 
     12 C12        17.2382  -30.9577  -43.0404 C.ar      10 UNK        -0.0894 
     13 C13        16.2889  -29.9869  -42.7105 C.ar      10 UNK        -0.0745 
     14 C14        15.5956  -29.3351  -43.7328 C.ar      10 UNK        -0.0972 
     15 C15        16.0129  -29.6298  -41.2530 C.3       10 UNK         0.0209 
     16 S16        17.5283  -29.3552  -40.2693 S.3       10 UNK        -0.2568 
     17 C17        18.3586  -28.0086  -41.1827 C.3       10 UNK        -0.0983 
     18 CA         19.6711  -28.4683  -41.8864 C.3       3 UNK         0.0876 
     19 N          20.1089  -27.4958  -42.8932 N.am      3 UNK        -0.4424 
     20 C          20.6002  -26.2693  -42.6534 C.2       2 UNK         0.4918 
     21 O          20.7902  -25.8113  -41.5262 O.2       2 UNK        -0.4875 
     22 CA         20.9187  -25.3989  -43.8825 C.3       2 UNK         0.0481 
     23 CB         22.3217  -25.7120  -44.4239 C.3       2 UNK        -0.1831 
     24 N          19.9387  -25.5698  -44.9583 N.am      2 UNK        -0.4498 
     25 C          18.6815  -25.1062  -44.9229 C.2       1 UNK         0.5027 
     26 O          18.2286  -24.4076  -44.0121 O.2       1 UNK        -0.4969 
     27 C          20.8385  -28.8275  -40.9363 C.2       3 UNK         0.5005 
     28 O          21.8236  -29.4243  -41.3830 O.2       3 UNK        -0.5279 
     29 N          20.7336  -28.4280  -39.6613 N.am      4 UNK        -0.4463 
     30 CA         21.7539  -28.5828  -38.6236 C.3       4 UNK         0.0283 
     31 CB         21.1947  -28.0867  -37.2818 C.3       4 UNK        -0.1875 
     32 C          23.0795  -27.8720  -38.9456 C.2       4 UNK         0.4949 
     33 O          24.1313  -28.3728  -38.5502 O.2       4 UNK        -0.5039 
     34 N          23.0273  -26.7590  -39.6945 N.am      5 UNK        -0.4663 
     35 CA         24.2105  -26.0034  -40.1254 C.3       5 UNK         0.0242 
     36 CB         23.7888  -24.6112  -40.6222 C.3       5 UNK        -0.1982 
     37 C          25.0620  -26.7353  -41.1805 C.2       5 UNK         0.5017 
     38 O          26.2282  -26.3817  -41.3522 O.2       5 UNK        -0.5012 
     39 N          24.4920  -27.7601  -41.8323 N.am      6 UNK        -0.4439 
     40 CA         25.2003  -28.6916  -42.7152 C.3       6 UNK         0.0297 
     41 CB         24.2878  -29.0561  -43.9001 C.3       6 UNK        -0.2006 
     42 C          25.6883  -29.9494  -41.9658 C.2       6 UNK         0.4892 
     43 O          26.0292  -30.9345  -42.6194 O.2       6 UNK        -0.5089 
     44 N          25.7049  -29.9037  -40.6228 N.am      7 UNK        -0.4243 
     45 CA         25.9995  -31.0013  -39.6938 C.3       7 UNK         0.0196 
     46 CB         27.4439  -31.5221  -39.8620 C.3       7 UNK        -0.2007 
     47 C          24.9297  -32.1059  -39.7691 C.2       7 UNK         0.5020 
     48 O          25.2652  -33.2887  -39.8408 O.2       7 UNK        -0.5147 
     49 N          23.6591  -31.6735  -39.7456 N.am      8 UNK        -0.4734 
     50 CA         22.4339  -32.4713  -39.8745 C.3       8 UNK         0.0238 
     51 CB         22.2908  -33.4797  -38.7137 C.3       8 UNK        -0.1912 
     52 C          22.3328  -33.1178  -41.2667 C.2       8 UNK         0.5038 
     53 O          22.3639  -34.3447  -41.3822 O.2       8 UNK        -0.5046 
     54 N          22.2040  -32.2511  -42.2807 N.am      9 UNK        -0.4200 
     55 CA         22.1111  -32.5504  -43.7204 C.3       9 UNK         0.0839 
     56 C          23.4786  -32.9348  -44.3457 C.2       9 UNK         0.5513 
     57 N          23.7989  -32.3789  -45.5066 N.am      9 UNK        -0.7519 
     58 O          24.2219  -33.7670  -43.8330 O.2       9 UNK        -0.4960 
     59 C59        21.0187  -33.5931  -44.1020 C.3       10 UNK        -0.0876 
     60 S60        19.3746  -33.1952  -43.4220 S.3       10 UNK        -0.2414 
     61 C61        18.6435  -32.2270  -44.7863 C.3       10 UNK         0.0169 
     62 H62        15.9329  -22.1887  -48.4105 H         1 UNK         0.0903 
     63 H63        15.0622  -22.7305  -46.9746 H         1 UNK         0.0903 
     64 H64        16.2463  -21.4282  -46.8480 H         1 UNK         0.0903 
     65 H65        15.8551  -24.6632  -46.1628 H         1 UNK         0.3096 
     66 H66        18.3861  -25.7746  -46.9434 H         1 UNK         0.1121 
     67 H67        16.3041  -26.6586  -44.8723 H         1 UNK         0.0849 
     68 H68        17.7448  -27.5786  -45.2297 H         1 UNK         0.0849 
     69 H69        14.2726  -28.3391  -45.7761 H         1 UNK         0.0865 
     70 H70        14.7273  -29.5933  -46.8998 H         1 UNK         0.0865 
     71 H71        17.0502  -30.8009  -46.4248 H         1 UNK         0.1346 
     72 H72        17.7660  -31.4481  -42.2362 H         1 UNK         0.1412 
     73 H73        14.8594  -28.5821  -43.4856 H         1 UNK         0.1426 
     74 H74        15.3915  -28.7354  -41.1847 H         1 UNK         0.0716 
     75 H75        15.4407  -30.4386  -40.7971 H         1 UNK         0.0716 
     76 H76        18.5324  -27.1689  -40.5079 H         1 UNK         0.0695 
     77 H77        17.6634  -27.6254  -41.9315 H         1 UNK         0.0695 
     78 H78        19.4536  -29.3825  -42.4394 H         1 UNK         0.0983 
     79 H79        20.0285  -27.7967  -43.8526 H         1 UNK         0.3095 
     80 H80        20.9047  -24.3552  -43.5611 H         1 UNK         0.0454 
     81 H81        22.6246  -24.9834  -45.1760 H         1 UNK         0.0851 
     82 H82        22.3606  -26.6987  -44.8838 H         1 UNK         0.0851 
     83 H83        23.0725  -25.6890  -43.6338 H         1 UNK         0.0851 
     84 H84        20.2335  -26.1176  -45.7543 H         1 UNK         0.2976 
     85 H85        19.8854  -27.9502  -39.3912 H         1 UNK         0.3116 
     86 H86        21.9653  -29.6484  -38.5251 H         1 UNK         0.0646 
     87 H87        20.3021  -28.6421  -36.9928 H         1 UNK         0.0847 
     88 H88        21.9262  -28.2160  -36.4827 H         1 UNK         0.0847 
     89 H89        20.9358  -27.0277  -37.3175 H         1 UNK         0.0847 
     90 H90        22.1277  -26.4285  -40.0299 H         1 UNK         0.3040 
     91 H91        24.8497  -25.8628  -39.2505 H         1 UNK         0.1015 
     92 H92        23.1648  -24.6653  -41.5126 H         1 UNK         0.0786 
     93 H93        24.6615  -24.0077  -40.8757 H         1 UNK         0.0786 
     94 H94        23.2331  -24.0687  -39.8572 H         1 UNK         0.0786 
     95 H95        23.5352  -28.0052  -41.6049 H         1 UNK         0.3172 
     96 H96        26.0902  -28.2087  -43.1238 H         1 UNK         0.0595 
     97 H97        23.3550  -29.5140  -43.5722 H         1 UNK         0.0839 
     98 H98        24.7773  -29.7590  -44.5753 H         1 UNK         0.0839 
     99 H99        24.0468  -28.1755  -44.4915 H         1 UNK         0.0839 
    100 H100       25.3903  -29.0504  -40.1766 H         1 UNK         0.2998 
    101 H101       25.9251  -30.5772  -38.6911 H         1 UNK         0.0822 
    102 H102       27.6923  -32.2348  -39.0747 H         1 UNK         0.0787 
    103 H103       27.5871  -32.0331  -40.8144 H         1 UNK         0.0787 
    104 H104       28.1680  -30.7096  -39.8039 H         1 UNK         0.0787 
    105 H105       23.5202  -30.6729  -39.7233 H         1 UNK         0.3055 
    106 H106       21.5954  -31.7771  -39.7966 H         1 UNK         0.1106 
    107 H107       21.3330  -33.9982  -38.7695 H         1 UNK         0.0828 
    108 H108       23.0696  -34.2424  -38.7316 H         1 UNK         0.0828 
    109 H109       22.3330  -32.9795  -37.7464 H         1 UNK         0.0828 
    110 H110       22.1978  -31.2625  -42.0504 H         1 UNK         0.2931 
    111 H111       21.8101  -31.6009  -44.1664 H         1 UNK         0.0412 
    112 H112       24.6743  -32.6286  -45.9398 H         1 UNK         0.3472 
    113 H113       23.1887  -31.7165  -45.9590 H         1 UNK         0.3472 
    114 H114       21.2965  -34.5876  -43.7492 H         1 UNK         0.0970 
    115 H115       20.9390  -33.6814  -45.1871 H         1 UNK         0.0970 
    116 H116       18.2623  -32.9217  -45.5361 H         1 UNK         0.0612 
    117 H117       19.4326  -31.6475  -45.2674 H         1 UNK         0.0612 
@<TRIPOS>BOND
     1    1    2 1    
     2    1   62 1    
     3    1   63 1    
     4    1   64 1    
     5    2    3 2    
     6    2    4 am   BACKBONE|DICT|INTERRES
     7    4    5 1    
     8    4   65 1    
     9    5    6 1    
    10    5   25 1    
    11    5   66 1    
    12    6    7 1    
    13    6   67 1    
    14    6   68 1    
    15    7    8 1    
    16    8    9 1    
    17    8   69 1    
    18    8   70 1    
    19    9   10 ar   
    20    9   14 ar   
    21   10   11 ar   
    22   10   71 1    
    23   11   12 ar   
    24   11   61 1    
    25   12   13 ar   
    26   12   72 1    
    27   13   14 ar   
    28   13   15 1    
    29   14   73 1    
    30   15   16 1    
    31   15   74 1    
    32   15   75 1    
    33   16   17 1    
    34   17   18 1    
    35   17   76 1    
    36   17   77 1    
    37   18   19 1    
    38   18   27 1    
    39   18   78 1    
    40   19   20 am   BACKBONE|DICT|INTERRES
    41   19   79 1    
    42   20   21 2    
    43   20   22 1    
    44   22   23 1    
    45   22   24 1    
    46   22   80 1    
    47   23   81 1    
    48   23   82 1    
    49   23   83 1    
    50   24   25 am   BACKBONE|DICT|INTERRES
    51   24   84 1    
    52   25   26 2    
    53   27   28 2    
    54   27   29 am   BACKBONE|DICT|INTERRES
    55   29   30 1    
    56   29   85 1    
    57   30   31 1    
    58   30   32 1    
    59   30   86 1    
    60   31   87 1    
    61   31   88 1    
    62   31   89 1    
    63   32   33 2    
    64   32   34 am   BACKBONE|DICT|INTERRES
    65   34   35 1    
    66   34   90 1    
    67   35   36 1    
    68   35   37 1    
    69   35   91 1    
    70   36   92 1    
    71   36   93 1    
    72   36   94 1    
    73   37   38 2    
    74   37   39 am   BACKBONE|DICT|INTERRES
    75   39   40 1    
    76   39   95 1    
    77   40   41 1    
    78   40   42 1    
    79   40   96 1    
    80   41   97 1    
    81   41   98 1    
    82   41   99 1    
    83   42   43 2    
    84   42   44 am   BACKBONE|DICT|INTERRES
    85   44   45 1    
    86   44  100 1    
    87   45   46 1    
    88   45   47 1    
    89   45  101 1    
    90   46  102 1    
    91   46  103 1    
    92   46  104 1    
    93   47   48 2    
    94   47   49 am   BACKBONE|DICT|INTERRES
    95   49   50 1    
    96   49  105 1    
    97   50   51 1    
    98   50   52 1    
    99   50  106 1    
   100   51  107 1    
   101   51  108 1    
   102   51  109 1    
   103   52   53 2    
   104   52   54 am   BACKBONE|DICT|INTERRES
   105   54   55 1    
   106   54  110 1    
   107   55   56 1    
   108   55   59 1    
   109   55  111 1    
   110   56   57 am   BACKBONE|DICT|INTERRES
   111   56   58 2    
   112   57  112 1    
   113   57  113 1    
   114   59   60 1    
   115   59  114 1    
   116   59  115 1    
   117   60   61 1    
   118   61  116 1    
   119   61  117 1    
@<TRIPOS>SUBSTRUCTURE
     1 UNK         1 GROUP             0       ****    0 ROOT    
