@<TRIPOS>MOLECULE
3R8
117   119    1
SMALL
USER_CHARGES


@<TRIPOS>ATOM
      1 CA         14.4456  -22.6636  -46.8689 C.3       0 UNK        -0.2013 
      2 C          15.8957  -23.0031  -46.5578 C.2       0 UNK         0.4866 
      3 O          16.6729  -22.1117  -46.2137 O.2       0 UNK        -0.5176 
      4 N          16.2688  -24.2829  -46.6835 N.am      1 UNK        -0.4884 
      5 CA         17.6022  -24.7963  -46.3547 C.3       1 UNK         0.0853 
      6 C6         17.8450  -26.1759  -47.0168 C.3       10 UNK        -0.0849 
      7 S7         19.6189  -26.5855  -47.1565 S.3       10 UNK        -0.2776 
      8 C8         19.5495  -28.3215  -47.6967 C.3       10 UNK         0.0316 
      9 C9         19.4065  -29.2925  -46.5313 C.ar      10 UNK        -0.0863 
     10 C10        20.5455  -29.8361  -45.9262 C.ar      10 UNK        -0.1009 
     11 C11        20.4257  -30.8016  -44.9207 C.ar      10 UNK        -0.0712 
     12 C12        19.1543  -31.2168  -44.5203 C.ar      10 UNK        -0.0894 
     13 C13        18.0088  -30.6311  -45.0658 C.ar      10 UNK        -0.0745 
     14 C14        18.1401  -29.6847  -46.0860 C.ar      10 UNK        -0.0972 
     15 C15        16.6320  -31.0191  -44.5447 C.3       10 UNK         0.0209 
     16 S16        16.4844  -30.7652  -42.7434 S.3       10 UNK        -0.2568 
     17 C17        16.6992  -28.9574  -42.5781 C.3       10 UNK        -0.0983 
     18 CA         18.1426  -28.5285  -42.1907 C.3       3 UNK         0.0876 
     19 N          18.3577  -27.1106  -42.5021 N.am      3 UNK        -0.4424 
     20 C          19.5376  -26.5233  -42.7354 C.2       2 UNK         0.4918 
     21 O          20.6099  -27.1282  -42.7358 O.2       2 UNK        -0.4875 
     22 CA         19.5027  -25.0115  -43.0199 C.3       2 UNK         0.0481 
     23 CB         20.8751  -24.3476  -42.8060 C.3       2 UNK        -0.1831 
     24 N          19.0632  -24.7682  -44.3914 N.am      2 UNK        -0.4498 
     25 C          17.8019  -24.8738  -44.8267 C.2       1 UNK         0.5027 
     26 O          16.8368  -25.0801  -44.0836 O.2       1 UNK        -0.4969 
     27 C          18.5393  -28.8531  -40.7273 C.2       3 UNK         0.5005 
     28 O          17.7398  -29.3979  -39.9641 O.2       3 UNK        -0.5279 
     29 N          19.7705  -28.4846  -40.3584 N.am      4 UNK        -0.4463 
     30 CA         20.4112  -28.6593  -39.0608 C.3       4 UNK         0.0283 
     31 CB         19.6999  -27.8391  -37.9662 C.3       4 UNK        -0.1875 
     32 C          21.8602  -28.1882  -39.2085 C.2       4 UNK         0.4949 
     33 O          22.0854  -27.1011  -39.7436 O.2       4 UNK        -0.5039 
     34 N          22.8099  -28.9963  -38.7236 N.am      5 UNK        -0.4663 
     35 CA         24.2517  -28.7403  -38.5796 C.3       5 UNK         0.0242 
     36 CB         24.5099  -27.5447  -37.6418 C.3       5 UNK        -0.1982 
     37 C          25.0608  -28.5898  -39.8823 C.2       5 UNK         0.5017 
     38 O          26.2071  -29.0395  -39.9025 O.2       5 UNK        -0.5012 
     39 N          24.4752  -27.9858  -40.9272 N.am      6 UNK        -0.4439 
     40 CA         25.0994  -27.6019  -42.2044 C.3       6 UNK         0.0297 
     41 CB         24.0165  -27.0728  -43.1581 C.3       6 UNK        -0.2006 
     42 C          25.9308  -28.7023  -42.8896 C.2       6 UNK         0.4892 
     43 O          27.0212  -28.4201  -43.3879 O.2       6 UNK        -0.5089 
     44 N          25.4211  -29.9357  -42.8502 N.am      7 UNK        -0.4243 
     45 CA         26.1411  -31.1649  -43.1731 C.3       7 UNK         0.0196 
     46 CB         25.8852  -31.5581  -44.6403 C.3       7 UNK        -0.2007 
     47 C          25.7001  -32.2348  -42.1649 C.2       7 UNK         0.5020 
     48 O          25.2750  -33.3217  -42.5601 O.2       7 UNK        -0.5147 
     49 N          25.7226  -31.8628  -40.8744 N.am      8 UNK        -0.4734 
     50 CA         25.1222  -32.5348  -39.7108 C.3       8 UNK         0.0238 
     51 CB         25.6752  -33.9585  -39.5001 C.3       8 UNK        -0.1912 
     52 C          23.5838  -32.5119  -39.7530 C.2       8 UNK         0.5038 
     53 O          22.9623  -31.9672  -38.8395 O.2       8 UNK        -0.5046 
     54 N          23.0138  -33.0536  -40.8357 N.am      9 UNK        -0.4200 
     55 CA         21.5885  -33.0219  -41.2011 C.3       9 UNK         0.0839 
     56 C          20.6413  -33.8105  -40.2466 C.2       9 UNK         0.5513 
     57 N          21.1469  -34.7001  -39.4010 N.am      9 UNK        -0.7519 
     58 O          19.4259  -33.6423  -40.2954 O.2       9 UNK        -0.4960 
     59 C59        21.0759  -31.5823  -41.4999 C.3       10 UNK        -0.0876 
     60 S60        22.0999  -30.6506  -42.6949 S.3       10 UNK        -0.2414 
     61 C61        21.6666  -31.4180  -44.2914 C.3       10 UNK         0.0169 
     62 H62        14.3959  -21.9310  -47.6740 H         1 UNK         0.0903 
     63 H63        13.8769  -23.5418  -47.1743 H         1 UNK         0.0903 
     64 H64        13.9637  -22.2371  -45.9895 H         1 UNK         0.0903 
     65 H65        15.5786  -24.9771  -46.9334 H         1 UNK         0.3096 
     66 H66        18.3285  -24.0856  -46.7572 H         1 UNK         0.1121 
     67 H67        17.3179  -26.9632  -46.4764 H         1 UNK         0.0849 
     68 H68        17.4384  -26.1801  -48.0297 H         1 UNK         0.0849 
     69 H69        18.7331  -28.4568  -48.4080 H         1 UNK         0.0865 
     70 H70        20.4631  -28.5480  -48.2487 H         1 UNK         0.0865 
     71 H71        21.5274  -29.5242  -46.2552 H         1 UNK         0.1346 
     72 H72        19.0479  -31.9778  -43.7612 H         1 UNK         0.1412 
     73 H73        17.2552  -29.2621  -46.5406 H         1 UNK         0.1426 
     74 H74        16.4516  -32.0710  -44.7697 H         1 UNK         0.0716 
     75 H75        15.8461  -30.4549  -45.0493 H         1 UNK         0.0716 
     76 H76        16.4194  -28.5019  -43.5297 H         1 UNK         0.0695 
     77 H77        15.9761  -28.5833  -41.8512 H         1 UNK         0.0695 
     78 H78        18.8337  -29.0934  -42.8182 H         1 UNK         0.0983 
     79 H79        17.5278  -26.5341  -42.5661 H         1 UNK         0.3095 
     80 H80        18.7961  -24.5501  -42.3267 H         1 UNK         0.0454 
     81 H81        21.6211  -24.7230  -43.5074 H         1 UNK         0.0851 
     82 H82        20.8158  -23.2660  -42.9268 H         1 UNK         0.0851 
     83 H83        21.2489  -24.5420  -41.7995 H         1 UNK         0.0851 
     84 H84        19.7966  -24.6661  -45.0791 H         1 UNK         0.2976 
     85 H85        20.3514  -28.0209  -41.0564 H         1 UNK         0.3116 
     86 H86        20.3883  -29.7162  -38.7898 H         1 UNK         0.0646 
     87 H87        20.2337  -27.9108  -37.0177 H         1 UNK         0.0847 
     88 H88        18.6854  -28.1944  -37.7877 H         1 UNK         0.0847 
     89 H89        19.6433  -26.7821  -38.2293 H         1 UNK         0.0847 
     90 H90        22.5269  -29.9185  -38.4069 H         1 UNK         0.3040 
     91 H91        24.6478  -29.6270  -38.0820 H         1 UNK         0.1015 
     92 H92        24.0232  -27.6852  -36.6767 H         1 UNK         0.0786 
     93 H93        24.1493  -26.6071  -38.0662 H         1 UNK         0.0786 
     94 H94        25.5771  -27.4229  -37.4508 H         1 UNK         0.0786 
     95 H95        23.5355  -27.6317  -40.7596 H         1 UNK         0.3172 
     96 H96        25.7807  -26.7792  -41.9801 H         1 UNK         0.0595 
     97 H97        23.4924  -26.2194  -42.7280 H         1 UNK         0.0839 
     98 H98        23.2718  -27.8359  -43.3885 H         1 UNK         0.0839 
     99 H99        24.4506  -26.7443  -44.1033 H         1 UNK         0.0839 
    100 H100       24.5039  -30.0591  -42.4390 H         1 UNK         0.2998 
    101 H101       27.2139  -31.0169  -43.0310 H         1 UNK         0.0822 
    102 H102       26.2025  -30.7696  -45.3228 H         1 UNK         0.0787 
    103 H103       26.4394  -32.4595  -44.9044 H         1 UNK         0.0787 
    104 H104       24.8299  -31.7572  -44.8248 H         1 UNK         0.0787 
    105 H105       26.0818  -30.9327  -40.6757 H         1 UNK         0.3055 
    106 H106       25.4188  -31.9444  -38.8423 H         1 UNK         0.1106 
    107 H107       25.3995  -34.6383  -40.3063 H         1 UNK         0.0828 
    108 H108       26.7627  -33.9520  -39.4273 H         1 UNK         0.0828 
    109 H109       25.2922  -34.3879  -38.5734 H         1 UNK         0.0828 
    110 H110       23.6413  -33.4346  -41.5379 H         1 UNK         0.2931 
    111 H111       21.5344  -33.5797  -42.1354 H         1 UNK         0.0412 
    112 H112       20.5272  -35.2148  -38.7951 H         1 UNK         0.3472 
    113 H113       22.1414  -34.8544  -39.3576 H         1 UNK         0.3472 
    114 H114       21.0609  -31.0127  -40.5734 H         1 UNK         0.0970 
    115 H115       20.0437  -31.5937  -41.8457 H         1 UNK         0.0970 
    116 H116       22.5139  -31.2967  -44.9666 H         1 UNK         0.0612 
    117 H117       21.5329  -32.4931  -44.1725 H         1 UNK         0.0612 
@<TRIPOS>BOND
     1    1    2 1    
     2    1   62 1    
     3    1   63 1    
     4    1   64 1    
     5    2    3 2    
     6    2    4 am   BACKBONE|DICT|INTERRES
     7    4    5 1    
     8    4   65 1    
     9    5    6 1    
    10    5   25 1    
    11    5   66 1    
    12    6    7 1    
    13    6   67 1    
    14    6   68 1    
    15    7    8 1    
    16    8    9 1    
    17    8   69 1    
    18    8   70 1    
    19    9   10 ar   
    20    9   14 ar   
    21   10   11 ar   
    22   10   71 1    
    23   11   12 ar   
    24   11   61 1    
    25   12   13 ar   
    26   12   72 1    
    27   13   14 ar   
    28   13   15 1    
    29   14   73 1    
    30   15   16 1    
    31   15   74 1    
    32   15   75 1    
    33   16   17 1    
    34   17   18 1    
    35   17   76 1    
    36   17   77 1    
    37   18   19 1    
    38   18   27 1    
    39   18   78 1    
    40   19   20 am   BACKBONE|DICT|INTERRES
    41   19   79 1    
    42   20   21 2    
    43   20   22 1    
    44   22   23 1    
    45   22   24 1    
    46   22   80 1    
    47   23   81 1    
    48   23   82 1    
    49   23   83 1    
    50   24   25 am   BACKBONE|DICT|INTERRES
    51   24   84 1    
    52   25   26 2    
    53   27   28 2    
    54   27   29 am   BACKBONE|DICT|INTERRES
    55   29   30 1    
    56   29   85 1    
    57   30   31 1    
    58   30   32 1    
    59   30   86 1    
    60   31   87 1    
    61   31   88 1    
    62   31   89 1    
    63   32   33 2    
    64   32   34 am   BACKBONE|DICT|INTERRES
    65   34   35 1    
    66   34   90 1    
    67   35   36 1    
    68   35   37 1    
    69   35   91 1    
    70   36   92 1    
    71   36   93 1    
    72   36   94 1    
    73   37   38 2    
    74   37   39 am   BACKBONE|DICT|INTERRES
    75   39   40 1    
    76   39   95 1    
    77   40   41 1    
    78   40   42 1    
    79   40   96 1    
    80   41   97 1    
    81   41   98 1    
    82   41   99 1    
    83   42   43 2    
    84   42   44 am   BACKBONE|DICT|INTERRES
    85   44   45 1    
    86   44  100 1    
    87   45   46 1    
    88   45   47 1    
    89   45  101 1    
    90   46  102 1    
    91   46  103 1    
    92   46  104 1    
    93   47   48 2    
    94   47   49 am   BACKBONE|DICT|INTERRES
    95   49   50 1    
    96   49  105 1    
    97   50   51 1    
    98   50   52 1    
    99   50  106 1    
   100   51  107 1    
   101   51  108 1    
   102   51  109 1    
   103   52   53 2    
   104   52   54 am   BACKBONE|DICT|INTERRES
   105   54   55 1    
   106   54  110 1    
   107   55   56 1    
   108   55   59 1    
   109   55  111 1    
   110   56   57 am   BACKBONE|DICT|INTERRES
   111   56   58 2    
   112   57  112 1    
   113   57  113 1    
   114   59   60 1    
   115   59  114 1    
   116   59  115 1    
   117   60   61 1    
   118   61  116 1    
   119   61  117 1    
@<TRIPOS>SUBSTRUCTURE
     1 UNK         1 GROUP             0       ****    0 ROOT    
