@<TRIPOS>MOLECULE
3R8
117   119    1
SMALL
USER_CHARGES


@<TRIPOS>ATOM
      1 CA         15.4872  -28.8459  -40.6152 C.3       0 UNK        -0.2013 
      2 C          16.0619  -27.5231  -41.1001 C.2       0 UNK         0.4866 
      3 O          16.6868  -26.8059  -40.3193 O.2       0 UNK        -0.5176 
      4 N          15.8524  -27.1910  -42.3825 N.am      1 UNK        -0.4884 
      5 CA         16.3250  -25.9532  -43.0193 C.3       1 UNK         0.0853 
      6 C6         15.4782  -25.5896  -44.2701 C.3       10 UNK        -0.0849 
      7 S7         15.9514  -26.3648  -45.8559 S.3       10 UNK        -0.2776 
      8 C8         15.2338  -28.0344  -45.7399 C.3       10 UNK         0.0316 
      9 C9         16.3311  -29.0815  -45.6156 C.ar      10 UNK        -0.0863 
     10 C10        16.5016  -29.8207  -44.4420 C.ar      10 UNK        -0.1009 
     11 C11        17.5204  -30.7732  -44.3439 C.ar      10 UNK        -0.0712 
     12 C12        18.3737  -30.9889  -45.4317 C.ar      10 UNK        -0.0894 
     13 C13        18.1950  -30.2732  -46.6200 C.ar      10 UNK        -0.0745 
     14 C14        17.1724  -29.3251  -46.7029 C.ar      10 UNK        -0.0972 
     15 C15        19.0564  -30.5533  -47.8420 C.3       10 UNK         0.0209 
     16 S16        19.9588  -29.0732  -48.4006 S.3       10 UNK        -0.2568 
     17 C17        21.4930  -29.1650  -47.4283 C.3       10 UNK        -0.0983 
     18 CA         21.6871  -27.9416  -46.4988 C.3       3 UNK         0.0876 
     19 N          20.8107  -27.9788  -45.3190 N.am      3 UNK        -0.4424 
     20 C          20.6722  -26.9631  -44.4539 C.2       2 UNK         0.4918 
     21 O          21.1193  -25.8318  -44.6507 O.2       2 UNK        -0.4875 
     22 CA         19.9694  -27.2954  -43.1262 C.3       2 UNK         0.0481 
     23 CB         20.6172  -26.5612  -41.9328 C.3       2 UNK        -0.1831 
     24 N          18.5214  -27.0736  -43.1471 N.am      2 UNK        -0.4498 
     25 C          17.8561  -25.9104  -43.2513 C.2       1 UNK         0.5027 
     26 O          18.3885  -24.8210  -43.4679 O.2       1 UNK        -0.4969 
     27 C          23.1724  -27.8354  -46.0914 C.2       3 UNK         0.5005 
     28 O          23.9049  -27.0231  -46.6594 O.2       3 UNK        -0.5279 
     29 N          23.5866  -28.6614  -45.1203 N.am      4 UNK        -0.4463 
     30 CA         24.9290  -28.6510  -44.5426 C.3       4 UNK         0.0283 
     31 CB         25.2348  -30.0358  -43.9470 C.3       4 UNK        -0.1875 
     32 C          25.0176  -27.5756  -43.4543 C.2       4 UNK         0.4949 
     33 O          24.0996  -27.4687  -42.6397 O.2       4 UNK        -0.5039 
     34 N          26.1415  -26.8478  -43.4116 N.am      5 UNK        -0.4663 
     35 CA         26.4135  -25.7774  -42.4400 C.3       5 UNK         0.0242 
     36 CB         27.7268  -25.0734  -42.8184 C.3       5 UNK        -0.1982 
     37 C          26.4584  -26.2481  -40.9733 C.2       5 UNK         0.5017 
     38 O          26.2056  -25.4481  -40.0725 O.2       5 UNK        -0.5012 
     39 N          26.7506  -27.5393  -40.7663 N.am      6 UNK        -0.4439 
     40 CA         26.7014  -28.2236  -39.4728 C.3       6 UNK         0.0297 
     41 CB         27.5003  -29.5342  -39.5790 C.3       6 UNK        -0.2006 
     42 C          25.2702  -28.5115  -38.9733 C.2       6 UNK         0.4892 
     43 O          25.1226  -28.8907  -37.8110 O.2       6 UNK        -0.5089 
     44 N          24.2583  -28.3571  -39.8458 N.am      7 UNK        -0.4243 
     45 CA         22.8384  -28.6590  -39.6240 C.3       7 UNK         0.0196 
     46 CB         22.2163  -27.6935  -38.5937 C.3       7 UNK        -0.2007 
     47 C          22.5937  -30.1426  -39.2972 C.2       7 UNK         0.5020 
     48 O          21.8143  -30.4675  -38.3998 O.2       7 UNK        -0.5147 
     49 N          23.2618  -31.0264  -40.0508 N.am      8 UNK        -0.4734 
     50 CA         23.2394  -32.4869  -39.9074 C.3       8 UNK         0.0238 
     51 CB         24.4963  -33.0633  -40.5875 C.3       8 UNK        -0.1912 
     52 C          21.9357  -33.1461  -40.4129 C.2       8 UNK         0.5038 
     53 O          21.9895  -34.1691  -41.0982 O.2       8 UNK        -0.5046 
     54 N          20.7895  -32.5533  -40.0634 N.am      9 UNK        -0.4200 
     55 CA         19.4397  -33.0594  -40.3513 C.3       9 UNK         0.0839 
     56 C          18.9655  -34.1812  -39.3817 C.2       9 UNK         0.5513 
     57 N          19.6706  -34.4715  -38.2944 N.am      9 UNK        -0.7519 
     58 O          17.9385  -34.8081  -39.6280 O.2       9 UNK        -0.4960 
     59 C59        18.4061  -31.9045  -40.4183 C.3       10 UNK        -0.0876 
     60 S60        18.6930  -30.7851  -41.8316 S.3       10 UNK        -0.2414 
     61 C61        17.6559  -31.6051  -43.0795 C.3       10 UNK         0.0169 
     62 H62        16.2920  -29.5172  -40.3176 H         1 UNK         0.0903 
     63 H63        14.8472  -28.6800  -39.7491 H         1 UNK         0.0903 
     64 H64        14.8933  -29.3436  -41.3808 H         1 UNK         0.0903 
     65 H65        15.3078  -27.8014  -42.9713 H         1 UNK         0.3096 
     66 H66        16.1370  -25.1582  -42.2930 H         1 UNK         0.1121 
     67 H67        15.5502  -24.5122  -44.4302 H         1 UNK         0.0849 
     68 H68        14.4186  -25.7709  -44.0823 H         1 UNK         0.0849 
     69 H69        14.5255  -28.0974  -44.9134 H         1 UNK         0.0865 
     70 H70        14.6566  -28.2309  -46.6447 H         1 UNK         0.0865 
     71 H71        15.8325  -29.6766  -43.6076 H         1 UNK         0.1346 
     72 H72        19.1520  -31.7368  -45.3627 H         1 UNK         0.1412 
     73 H73        17.0322  -28.7698  -47.6209 H         1 UNK         0.1426 
     74 H74        18.4047  -30.8834  -48.6521 H         1 UNK         0.0716 
     75 H75        19.7516  -31.3747  -47.6628 H         1 UNK         0.0716 
     76 H76        22.3041  -29.2308  -48.1571 H         1 UNK         0.0695 
     77 H77        21.5304  -30.0946  -46.8579 H         1 UNK         0.0695 
     78 H78        21.4491  -27.0365  -47.0627 H         1 UNK         0.0983 
     79 H79        20.3560  -28.8581  -45.1217 H         1 UNK         0.3095 
     80 H80        20.1090  -28.3626  -42.9494 H         1 UNK         0.0454 
     81 H81        21.6945  -26.7202  -41.9159 H         1 UNK         0.0851 
     82 H82        20.2159  -26.9167  -40.9838 H         1 UNK         0.0851 
     83 H83        20.4642  -25.4831  -41.9779 H         1 UNK         0.0851 
     84 H84        17.9597  -27.9011  -43.0047 H         1 UNK         0.2976 
     85 H85        22.9083  -29.2603  -44.6740 H         1 UNK         0.3116 
     86 H86        25.6606  -28.4396  -45.3258 H         1 UNK         0.0646 
     87 H87        26.2387  -30.0668  -43.5214 H         1 UNK         0.0847 
     88 H88        24.5355  -30.3016  -43.1534 H         1 UNK         0.0847 
     89 H89        25.1857  -30.8136  -44.7092 H         1 UNK         0.0847 
     90 H90        26.8510  -27.0096  -44.1131 H         1 UNK         0.3040 
     91 H91        25.6005  -25.0514  -42.5149 H         1 UNK         0.1015 
     92 H92        27.9433  -24.2543  -42.1308 H         1 UNK         0.0786 
     93 H93        27.6746  -24.6459  -43.8199 H         1 UNK         0.0786 
     94 H94        28.5758  -25.7575  -42.7874 H         1 UNK         0.0786 
     95 H95        26.9636  -28.1051  -41.5747 H         1 UNK         0.3172 
     96 H96        27.1848  -27.5872  -38.7285 H         1 UNK         0.0595 
     97 H97        27.0639  -30.2174  -40.3089 H         1 UNK         0.0839 
     98 H98        27.5247  -30.0560  -38.6211 H         1 UNK         0.0839 
     99 H99        28.5349  -29.3477  -39.8678 H         1 UNK         0.0839 
    100 H100       24.4747  -28.0163  -40.7780 H         1 UNK         0.2998 
    101 H101       22.3407  -28.4884  -40.5779 H         1 UNK         0.0822 
    102 H102       21.1383  -27.8427  -38.5206 H         1 UNK         0.0787 
    103 H103       22.6327  -27.8399  -37.5966 H         1 UNK         0.0787 
    104 H104       22.3803  -26.6540  -38.8776 H         1 UNK         0.0787 
    105 H105       23.8574  -30.6620  -40.7792 H         1 UNK         0.3055 
    106 H106       23.3062  -32.7201  -38.8423 H         1 UNK         0.1106 
    107 H107       25.4068  -32.6245  -40.1787 H         1 UNK         0.0828 
    108 H108       24.5665  -34.1413  -40.4354 H         1 UNK         0.0828 
    109 H109       24.4901  -32.8855  -41.6637 H         1 UNK         0.0828 
    110 H110       20.8515  -31.7302  -39.4721 H         1 UNK         0.2931 
    111 H111       19.4662  -33.5267  -41.3376 H         1 UNK         0.0412 
    112 H112       20.5106  -33.9604  -38.0759 H         1 UNK         0.3472 
    113 H113       19.3513  -35.2044  -37.6800 H         1 UNK         0.3472 
    114 H114       18.4376  -31.3156  -39.4998 H         1 UNK         0.0970 
    115 H115       17.3871  -32.2910  -40.4827 H         1 UNK         0.0970 
    116 H116       18.0814  -32.5822  -43.3133 H         1 UNK         0.0612 
    117 H117       16.6646  -31.7937  -42.6643 H         1 UNK         0.0612 
@<TRIPOS>BOND
     1    1    2 1    
     2    1   62 1    
     3    1   63 1    
     4    1   64 1    
     5    2    3 2    
     6    2    4 am   BACKBONE|DICT|INTERRES
     7    4    5 1    
     8    4   65 1    
     9    5    6 1    
    10    5   25 1    
    11    5   66 1    
    12    6    7 1    
    13    6   67 1    
    14    6   68 1    
    15    7    8 1    
    16    8    9 1    
    17    8   69 1    
    18    8   70 1    
    19    9   10 ar   
    20    9   14 ar   
    21   10   11 ar   
    22   10   71 1    
    23   11   12 ar   
    24   11   61 1    
    25   12   13 ar   
    26   12   72 1    
    27   13   14 ar   
    28   13   15 1    
    29   14   73 1    
    30   15   16 1    
    31   15   74 1    
    32   15   75 1    
    33   16   17 1    
    34   17   18 1    
    35   17   76 1    
    36   17   77 1    
    37   18   19 1    
    38   18   27 1    
    39   18   78 1    
    40   19   20 am   BACKBONE|DICT|INTERRES
    41   19   79 1    
    42   20   21 2    
    43   20   22 1    
    44   22   23 1    
    45   22   24 1    
    46   22   80 1    
    47   23   81 1    
    48   23   82 1    
    49   23   83 1    
    50   24   25 am   BACKBONE|DICT|INTERRES
    51   24   84 1    
    52   25   26 2    
    53   27   28 2    
    54   27   29 am   BACKBONE|DICT|INTERRES
    55   29   30 1    
    56   29   85 1    
    57   30   31 1    
    58   30   32 1    
    59   30   86 1    
    60   31   87 1    
    61   31   88 1    
    62   31   89 1    
    63   32   33 2    
    64   32   34 am   BACKBONE|DICT|INTERRES
    65   34   35 1    
    66   34   90 1    
    67   35   36 1    
    68   35   37 1    
    69   35   91 1    
    70   36   92 1    
    71   36   93 1    
    72   36   94 1    
    73   37   38 2    
    74   37   39 am   BACKBONE|DICT|INTERRES
    75   39   40 1    
    76   39   95 1    
    77   40   41 1    
    78   40   42 1    
    79   40   96 1    
    80   41   97 1    
    81   41   98 1    
    82   41   99 1    
    83   42   43 2    
    84   42   44 am   BACKBONE|DICT|INTERRES
    85   44   45 1    
    86   44  100 1    
    87   45   46 1    
    88   45   47 1    
    89   45  101 1    
    90   46  102 1    
    91   46  103 1    
    92   46  104 1    
    93   47   48 2    
    94   47   49 am   BACKBONE|DICT|INTERRES
    95   49   50 1    
    96   49  105 1    
    97   50   51 1    
    98   50   52 1    
    99   50  106 1    
   100   51  107 1    
   101   51  108 1    
   102   51  109 1    
   103   52   53 2    
   104   52   54 am   BACKBONE|DICT|INTERRES
   105   54   55 1    
   106   54  110 1    
   107   55   56 1    
   108   55   59 1    
   109   55  111 1    
   110   56   57 am   BACKBONE|DICT|INTERRES
   111   56   58 2    
   112   57  112 1    
   113   57  113 1    
   114   59   60 1    
   115   59  114 1    
   116   59  115 1    
   117   60   61 1    
   118   61  116 1    
   119   61  117 1    
@<TRIPOS>SUBSTRUCTURE
     1 UNK         1 GROUP             0       ****    0 ROOT    
