@<TRIPOS>MOLECULE
3R8
117   119    1
SMALL
USER_CHARGES


@<TRIPOS>ATOM
      1 CA         19.9083  -24.3381  -39.8601 C.3       0 UNK        -0.2013 
      2 C          19.1186  -24.2475  -41.1581 C.2       0 UNK         0.4866 
      3 O          18.6425  -23.1690  -41.5143 O.2       0 UNK        -0.5176 
      4 N          18.9727  -25.3750  -41.8629 N.am      1 UNK        -0.4884 
      5 CA         18.3099  -25.4762  -43.1677 C.3       1 UNK         0.0853 
      6 C6         17.8982  -26.9383  -43.4791 C.3       10 UNK        -0.0849 
      7 S7         16.7548  -27.6340  -42.2383 S.3       10 UNK        -0.2776 
      8 C8         16.0363  -29.0473  -43.1396 C.3       10 UNK         0.0316 
      9 C9         17.1062  -29.9809  -43.6898 C.ar      10 UNK        -0.0863 
     10 C10        17.8436  -30.7988  -42.8276 C.ar      10 UNK        -0.1009 
     11 C11        18.8524  -31.6303  -43.3247 C.ar      10 UNK        -0.0712 
     12 C12        19.1240  -31.6286  -44.6979 C.ar      10 UNK        -0.0894 
     13 C13        18.3771  -30.8353  -45.5733 C.ar      10 UNK        -0.0745 
     14 C14        17.3659  -30.0168  -45.0632 C.ar      10 UNK        -0.0972 
     15 C15        18.6624  -30.8689  -47.0698 C.3       10 UNK         0.0209 
     16 S16        19.2036  -29.2554  -47.7193 S.3       10 UNK        -0.2568 
     17 C17        20.7171  -28.9642  -46.7434 C.3       10 UNK        -0.0983 
     18 CA         21.3333  -27.5655  -46.9949 C.3       3 UNK         0.0876 
     19 N          20.3474  -26.5023  -46.7755 N.am      3 UNK        -0.4424 
     20 C          20.4523  -25.2288  -47.1757 C.2       2 UNK         0.4918 
     21 O          21.3757  -24.8021  -47.8687 O.2       2 UNK        -0.4875 
     22 CA         19.3560  -24.2570  -46.6883 C.3       2 UNK         0.0481 
     23 CB         18.3317  -24.0074  -47.8066 C.3       2 UNK        -0.1831 
     24 N          18.6488  -24.6918  -45.4725 N.am      2 UNK        -0.4498 
     25 C          19.2265  -24.9344  -44.2852 C.2       1 UNK         0.5027 
     26 O          20.4390  -24.8142  -44.0885 O.2       1 UNK        -0.4969 
     27 C          22.6109  -27.3944  -46.1380 C.2       3 UNK         0.5005 
     28 O          23.5931  -28.0923  -46.3969 O.2       3 UNK        -0.5279 
     29 N          22.5794  -26.4958  -45.1393 N.am      4 UNK        -0.4463 
     30 CA         23.6133  -26.2353  -44.1358 C.3       4 UNK         0.0283 
     31 CB         24.9292  -25.7467  -44.7858 C.3       4 UNK        -0.1875 
     32 C          23.7706  -27.4241  -43.1682 C.2       4 UNK         0.4949 
     33 O          22.7637  -28.0240  -42.7822 O.2       4 UNK        -0.5039 
     34 N          25.0116  -27.6988  -42.7341 N.am      5 UNK        -0.4663 
     35 CA         25.4115  -28.7524  -41.7850 C.3       5 UNK         0.0242 
     36 CB         25.2369  -30.1451  -42.4291 C.3       5 UNK        -0.1982 
     37 C          24.7081  -28.6544  -40.4147 C.2       5 UNK         0.5017 
     38 O          24.4971  -29.6768  -39.7615 O.2       5 UNK        -0.5012 
     39 N          24.2995  -27.4323  -40.0343 N.am      6 UNK        -0.4439 
     40 CA         23.4946  -27.0810  -38.8546 C.3       6 UNK         0.0297 
     41 CB         24.3310  -27.2582  -37.5695 C.3       6 UNK        -0.2006 
     42 C          22.1375  -27.8176  -38.7686 C.2       6 UNK         0.4892 
     43 O          21.5831  -27.9242  -37.6740 O.2       6 UNK        -0.5089 
     44 N          21.6440  -28.3338  -39.9088 N.am      7 UNK        -0.4243 
     45 CA         20.5009  -29.2468  -40.0486 C.3       7 UNK         0.0196 
     46 CB         19.1826  -28.5494  -39.6514 C.3       7 UNK        -0.2007 
     47 C          20.6868  -30.5942  -39.3136 C.2       7 UNK         0.5020 
     48 O          19.6926  -31.2554  -39.0111 O.2       7 UNK        -0.5147 
     49 N          21.9382  -30.9910  -39.0305 N.am      8 UNK        -0.4734 
     50 CA         22.2590  -32.2084  -38.2783 C.3       8 UNK         0.0238 
     51 CB         23.6921  -32.1138  -37.7307 C.3       8 UNK        -0.1912 
     52 C          22.0816  -33.4935  -39.1011 C.2       8 UNK         0.5038 
     53 O          21.7403  -34.5274  -38.5256 O.2       8 UNK        -0.5046 
     54 N          22.3138  -33.4058  -40.4197 N.am      9 UNK        -0.4200 
     55 CA         22.1967  -34.5051  -41.3969 C.3       9 UNK         0.0839 
     56 C          23.2283  -35.6630  -41.2095 C.2       9 UNK         0.5513 
     57 N          24.2996  -35.4786  -40.4469 N.am      9 UNK        -0.7519 
     58 O          23.0846  -36.7323  -41.7969 O.2       9 UNK        -0.4960 
     59 C59        20.7193  -34.9936  -41.5583 C.3       10 UNK        -0.0876 
     60 S60        19.8612  -34.2107  -42.9628 S.3       10 UNK        -0.2414 
     61 C61        19.6623  -32.4992  -42.3682 C.3       10 UNK         0.0169 
     62 H62        19.2885  -24.0230  -39.0211 H         1 UNK         0.0903 
     63 H63        20.2554  -25.3519  -39.6618 H         1 UNK         0.0903 
     64 H64        20.7793  -23.6848  -39.9052 H         1 UNK         0.0903 
     65 H65        19.4036  -26.2259  -41.5349 H         1 UNK         0.3096 
     66 H66        17.4106  -24.8561  -43.1454 H         1 UNK         0.1121 
     67 H67        17.4099  -27.0009  -44.4534 H         1 UNK         0.0849 
     68 H68        18.7774  -27.5846  -43.5336 H         1 UNK         0.0849 
     69 H69        15.3819  -29.6027  -42.4662 H         1 UNK         0.0865 
     70 H70        15.3987  -28.6722  -43.9417 H         1 UNK         0.0865 
     71 H71        17.6400  -30.7733  -41.7655 H         1 UNK         0.1346 
     72 H72        19.9137  -32.2565  -45.0870 H         1 UNK         0.1412 
     73 H73        16.7950  -29.3944  -45.7389 H         1 UNK         0.1426 
     74 H74        17.7575  -31.1749  -47.5964 H         1 UNK         0.0716 
     75 H75        19.4218  -31.6160  -47.3060 H         1 UNK         0.0716 
     76 H76        21.4332  -29.7508  -46.9897 H         1 UNK         0.0695 
     77 H77        20.4810  -29.0827  -45.6839 H         1 UNK         0.0695 
     78 H78        21.6475  -27.5146  -48.0397 H         1 UNK         0.0983 
     79 H79        19.5287  -26.7695  -46.2515 H         1 UNK         0.3095 
     80 H80        19.8462  -23.3089  -46.4579 H         1 UNK         0.0454 
     81 H81        18.8227  -23.6532  -48.7142 H         1 UNK         0.0851 
     82 H82        17.6046  -23.2479  -47.5191 H         1 UNK         0.0851 
     83 H83        17.7866  -24.9160  -48.0659 H         1 UNK         0.0851 
     84 H84        17.6496  -24.8144  -45.5605 H         1 UNK         0.2976 
     85 H85        21.7137  -25.9888  -44.9785 H         1 UNK         0.3116 
     86 H86        23.2281  -25.4131  -43.5310 H         1 UNK         0.0646 
     87 H87        25.4473  -26.5441  -45.3196 H         1 UNK         0.0847 
     88 H88        24.7379  -24.9446  -45.4989 H         1 UNK         0.0847 
     89 H89        25.6162  -25.3452  -44.0402 H         1 UNK         0.0847 
     90 H90        25.7674  -27.1343  -43.0982 H         1 UNK         0.3040 
     91 H91        26.4748  -28.6088  -41.5863 H         1 UNK         0.1015 
     92 H92        25.6508  -30.9286  -41.7929 H         1 UNK         0.0786 
     93 H93        25.7510  -30.2052  -43.3884 H         1 UNK         0.0786 
     94 H94        24.1861  -30.3837  -42.5977 H         1 UNK         0.0786 
     95 H95        24.5147  -26.6665  -40.6575 H         1 UNK         0.3172 
     96 H96        23.2554  -26.0211  -38.9529 H         1 UNK         0.0595 
     97 H97        24.5496  -28.3084  -37.3724 H         1 UNK         0.0839 
     98 H98        23.8032  -26.8677  -36.6985 H         1 UNK         0.0839 
     99 H99        25.2792  -26.7248  -37.6351 H         1 UNK         0.0839 
    100 H100       22.1746  -28.1853  -40.7620 H         1 UNK         0.2998 
    101 H101       20.4391  -29.4889  -41.1110 H         1 UNK         0.0822 
    102 H102       18.3205  -29.1607  -39.9203 H         1 UNK         0.0787 
    103 H103       19.0661  -27.5941  -40.1575 H         1 UNK         0.0787 
    104 H104       19.1255  -28.3681  -38.5779 H         1 UNK         0.0787 
    105 H105       22.7230  -30.4039  -39.3015 H         1 UNK         0.3055 
    106 H106       21.5771  -32.2712  -37.4268 H         1 UNK         0.1106 
    107 H107       23.8236  -31.2234  -37.1153 H         1 UNK         0.0828 
    108 H108       23.9292  -32.9769  -37.1072 H         1 UNK         0.0828 
    109 H109       24.4314  -32.0778  -38.5317 H         1 UNK         0.0828 
    110 H110       22.6182  -32.5166  -40.7872 H         1 UNK         0.2931 
    111 H111       22.5080  -34.0620  -42.3437 H         1 UNK         0.0412 
    112 H112       24.4447  -34.6037  -39.9700 H         1 UNK         0.3472 
    113 H113       24.9672  -36.2272  -40.3448 H         1 UNK         0.3472 
    114 H114       20.6615  -36.0688  -41.7340 H         1 UNK         0.0970 
    115 H115       20.1336  -34.8322  -40.6527 H         1 UNK         0.0970 
    116 H116       20.6441  -32.0444  -42.2364 H         1 UNK         0.0612 
    117 H117       19.1896  -32.5286  -41.3856 H         1 UNK         0.0612 
@<TRIPOS>BOND
     1    1    2 1    
     2    1   62 1    
     3    1   63 1    
     4    1   64 1    
     5    2    3 2    
     6    2    4 am   BACKBONE|DICT|INTERRES
     7    4    5 1    
     8    4   65 1    
     9    5    6 1    
    10    5   25 1    
    11    5   66 1    
    12    6    7 1    
    13    6   67 1    
    14    6   68 1    
    15    7    8 1    
    16    8    9 1    
    17    8   69 1    
    18    8   70 1    
    19    9   10 ar   
    20    9   14 ar   
    21   10   11 ar   
    22   10   71 1    
    23   11   12 ar   
    24   11   61 1    
    25   12   13 ar   
    26   12   72 1    
    27   13   14 ar   
    28   13   15 1    
    29   14   73 1    
    30   15   16 1    
    31   15   74 1    
    32   15   75 1    
    33   16   17 1    
    34   17   18 1    
    35   17   76 1    
    36   17   77 1    
    37   18   19 1    
    38   18   27 1    
    39   18   78 1    
    40   19   20 am   BACKBONE|DICT|INTERRES
    41   19   79 1    
    42   20   21 2    
    43   20   22 1    
    44   22   23 1    
    45   22   24 1    
    46   22   80 1    
    47   23   81 1    
    48   23   82 1    
    49   23   83 1    
    50   24   25 am   BACKBONE|DICT|INTERRES
    51   24   84 1    
    52   25   26 2    
    53   27   28 2    
    54   27   29 am   BACKBONE|DICT|INTERRES
    55   29   30 1    
    56   29   85 1    
    57   30   31 1    
    58   30   32 1    
    59   30   86 1    
    60   31   87 1    
    61   31   88 1    
    62   31   89 1    
    63   32   33 2    
    64   32   34 am   BACKBONE|DICT|INTERRES
    65   34   35 1    
    66   34   90 1    
    67   35   36 1    
    68   35   37 1    
    69   35   91 1    
    70   36   92 1    
    71   36   93 1    
    72   36   94 1    
    73   37   38 2    
    74   37   39 am   BACKBONE|DICT|INTERRES
    75   39   40 1    
    76   39   95 1    
    77   40   41 1    
    78   40   42 1    
    79   40   96 1    
    80   41   97 1    
    81   41   98 1    
    82   41   99 1    
    83   42   43 2    
    84   42   44 am   BACKBONE|DICT|INTERRES
    85   44   45 1    
    86   44  100 1    
    87   45   46 1    
    88   45   47 1    
    89   45  101 1    
    90   46  102 1    
    91   46  103 1    
    92   46  104 1    
    93   47   48 2    
    94   47   49 am   BACKBONE|DICT|INTERRES
    95   49   50 1    
    96   49  105 1    
    97   50   51 1    
    98   50   52 1    
    99   50  106 1    
   100   51  107 1    
   101   51  108 1    
   102   51  109 1    
   103   52   53 2    
   104   52   54 am   BACKBONE|DICT|INTERRES
   105   54   55 1    
   106   54  110 1    
   107   55   56 1    
   108   55   59 1    
   109   55  111 1    
   110   56   57 am   BACKBONE|DICT|INTERRES
   111   56   58 2    
   112   57  112 1    
   113   57  113 1    
   114   59   60 1    
   115   59  114 1    
   116   59  115 1    
   117   60   61 1    
   118   61  116 1    
   119   61  117 1    
@<TRIPOS>SUBSTRUCTURE
     1 UNK         1 GROUP             0       ****    0 ROOT    
