@<TRIPOS>MOLECULE
3R8
117   119    1
SMALL
USER_CHARGES


@<TRIPOS>ATOM
      1 CA         15.2534  -22.7821  -45.8718 C.3       0 UNK        -0.2013 
      2 C          15.8581  -24.1408  -45.5502 C.2       0 UNK         0.4866 
      3 O          16.2238  -24.3874  -44.4017 O.2       0 UNK        -0.5176 
      4 N          15.9604  -25.0200  -46.5564 N.am      1 UNK        -0.4884 
      5 CA         16.5488  -26.3635  -46.4794 C.3       1 UNK         0.0853 
      6 C6         15.7423  -27.3211  -45.5544 C.3       10 UNK        -0.0849 
      7 S7         15.9455  -29.0856  -45.9960 S.3       10 UNK        -0.2776 
      8 C8         15.4418  -29.9369  -44.4654 C.3       10 UNK         0.0316 
      9 C9         16.4823  -29.8082  -43.3609 C.ar      10 UNK        -0.0863 
     10 C10        17.5288  -30.7307  -43.2524 C.ar      10 UNK        -0.1009 
     11 C11        18.4630  -30.6224  -42.2161 C.ar      10 UNK        -0.0712 
     12 C12        18.3666  -29.5641  -41.3066 C.ar      10 UNK        -0.0894 
     13 C13        17.3313  -28.6316  -41.4124 C.ar      10 UNK        -0.0745 
     14 C14        16.3793  -28.7779  -42.4239 C.ar      10 UNK        -0.0972 
     15 C15        17.2148  -27.4728  -40.4324 C.3       10 UNK         0.0209 
     16 S16        17.3128  -25.8683  -41.2910 S.3       10 UNK        -0.2568 
     17 C17        19.0556  -25.3873  -41.0650 C.3       10 UNK        -0.0983 
     18 CA         20.0977  -26.3195  -41.7319 C.3       3 UNK         0.0876 
     19 N          19.8040  -26.5961  -43.1503 N.am      3 UNK        -0.4424 
     20 C          20.5518  -27.3535  -43.9703 C.2       2 UNK         0.4918 
     21 O          21.6438  -27.8192  -43.6460 O.2       2 UNK        -0.4875 
     22 CA         20.0330  -27.6224  -45.3934 C.3       2 UNK         0.0481 
     23 CB         20.2941  -29.0768  -45.8221 C.3       2 UNK        -0.1831 
     24 N          18.6043  -27.3549  -45.5521 N.am      2 UNK        -0.4498 
     25 C          18.0719  -26.3103  -46.1961 C.2       1 UNK         0.5027 
     26 O          18.7376  -25.3570  -46.6094 O.2       1 UNK        -0.4969 
     27 C          21.5164  -25.7683  -41.4656 C.2       3 UNK         0.5005 
     28 O          22.0948  -26.0678  -40.4192 O.2       3 UNK        -0.5279 
     29 N          22.0697  -25.0206  -42.4331 N.am      4 UNK        -0.4463 
     30 CA         23.4340  -24.4811  -42.4377 C.3       4 UNK         0.0283 
     31 CB         23.6265  -23.6209  -43.6972 C.3       4 UNK        -0.1875 
     32 C          24.5516  -25.5400  -42.3372 C.2       4 UNK         0.4949 
     33 O          25.6672  -25.1884  -41.9534 O.2       4 UNK        -0.5039 
     34 N          24.2465  -26.8087  -42.6517 N.am      5 UNK        -0.4663 
     35 CA         25.1440  -27.9509  -42.4537 C.3       5 UNK         0.0242 
     36 CB         24.6050  -29.1579  -43.2401 C.3       5 UNK        -0.1982 
     37 C          25.3434  -28.3294  -40.9721 C.2       5 UNK         0.5017 
     38 O          26.3050  -29.0380  -40.6740 O.2       5 UNK        -0.5012 
     39 N          24.4501  -27.8569  -40.0844 N.am      6 UNK        -0.4439 
     40 CA         24.3845  -28.1455  -38.6464 C.3       6 UNK         0.0297 
     41 CB         25.6274  -27.6049  -37.9064 C.3       6 UNK        -0.2006 
     42 C          24.1039  -29.6358  -38.3711 C.2       6 UNK         0.4892 
     43 O          24.8289  -30.2722  -37.6033 O.2       6 UNK        -0.5089 
     44 N          23.0391  -30.1403  -39.0140 N.am      7 UNK        -0.4243 
     45 CA         22.5562  -31.5281  -39.0316 C.3       7 UNK         0.0196 
     46 CB         22.2773  -32.0526  -37.6051 C.3       7 UNK        -0.2007 
     47 C          23.4635  -32.4730  -39.8451 C.2       7 UNK         0.5020 
     48 O          24.4791  -32.0445  -40.3953 O.2       7 UNK        -0.5147 
     49 N          23.0408  -33.7444  -39.9466 N.am      8 UNK        -0.4734 
     50 CA         23.6535  -34.8196  -40.7483 C.3       8 UNK         0.0238 
     51 CB         25.0216  -35.2295  -40.1609 C.3       8 UNK        -0.1912 
     52 C          23.7211  -34.4776  -42.2530 C.2       8 UNK         0.5038 
     53 O          24.7209  -34.7674  -42.9136 O.2       8 UNK        -0.5046 
     54 N          22.6570  -33.8298  -42.7428 N.am      9 UNK        -0.4200 
     55 CA         22.5210  -33.2755  -44.0957 C.3       9 UNK         0.0839 
     56 C          22.5735  -34.3549  -45.2102 C.2       9 UNK         0.5513 
     57 N          23.1643  -34.0371  -46.3538 N.am      9 UNK        -0.7519 
     58 O          22.0425  -35.4542  -45.0639 O.2       9 UNK        -0.4960 
     59 C59        21.2357  -32.4150  -44.2274 C.3       10 UNK        -0.0876 
     60 S60        21.0868  -31.1602  -42.9034 S.3       10 UNK        -0.2414 
     61 C61        19.5598  -31.6620  -42.0504 C.3       10 UNK         0.0169 
     62 H62        14.3682  -22.6115  -45.2596 H         1 UNK         0.0903 
     63 H63        14.9622  -22.7011  -46.9189 H         1 UNK         0.0903 
     64 H64        15.9729  -21.9922  -45.6579 H         1 UNK         0.0903 
     65 H65        15.6690  -24.7361  -47.4820 H         1 UNK         0.3096 
     66 H66        16.4704  -26.7531  -47.4959 H         1 UNK         0.1121 
     67 H67        15.9998  -27.1407  -44.5120 H         1 UNK         0.0849 
     68 H68        14.6766  -27.1003  -45.6339 H         1 UNK         0.0849 
     69 H69        14.4781  -29.5480  -44.1322 H         1 UNK         0.0865 
     70 H70        15.2774  -30.9920  -44.6899 H         1 UNK         0.0865 
     71 H71        17.6068  -31.5421  -43.9634 H         1 UNK         0.1346 
     72 H72        19.0940  -29.4754  -40.5115 H         1 UNK         0.1412 
     73 H73        15.5625  -28.0717  -42.4858 H         1 UNK         0.1426 
     74 H74        17.9762  -27.5293  -39.6530 H         1 UNK         0.0716 
     75 H75        16.2513  -27.5395  -39.9253 H         1 UNK         0.0716 
     76 H76        19.1557  -24.3727  -41.4560 H         1 UNK         0.0695 
     77 H77        19.2430  -25.3144  -39.9916 H         1 UNK         0.0695 
     78 H78        20.0587  -27.2843  -41.2254 H         1 UNK         0.0983 
     79 H79        18.9164  -26.2539  -43.4903 H         1 UNK         0.3095 
     80 H80        20.6111  -26.9769  -46.0571 H         1 UNK         0.0454 
     81 H81        19.7370  -29.7798  -45.2024 H         1 UNK         0.0851 
     82 H82        20.0018  -29.2427  -46.8588 H         1 UNK         0.0851 
     83 H83        21.3512  -29.3337  -45.7422 H         1 UNK         0.0851 
     84 H84        17.9762  -28.0882  -45.2450 H         1 UNK         0.2976 
     85 H85        21.5159  -24.8474  -43.2596 H         1 UNK         0.3116 
     86 H86        23.5285  -23.8339  -41.5634 H         1 UNK         0.0646 
     87 H87        24.6219  -23.1746  -43.7174 H         1 UNK         0.0847 
     88 H88        22.9079  -22.8020  -43.7351 H         1 UNK         0.0847 
     89 H89        23.5162  -24.2099  -44.6086 H         1 UNK         0.0847 
     90 H90        23.3075  -27.0268  -42.9761 H         1 UNK         0.3040 
     91 H91        26.1244  -27.6883  -42.8574 H         1 UNK         0.1015 
     92 H92        24.4794  -28.9240  -44.2974 H         1 UNK         0.0786 
     93 H93        23.6409  -29.4895  -42.8533 H         1 UNK         0.0786 
     94 H94        25.2874  -30.0063  -43.1717 H         1 UNK         0.0786 
     95 H95        23.7068  -27.2576  -40.4336 H         1 UNK         0.3172 
     96 H96        23.5204  -27.5965  -38.2687 H         1 UNK         0.0595 
     97 H97        25.5125  -27.7115  -36.8271 H         1 UNK         0.0839 
     98 H98        25.7825  -26.5460  -38.1131 H         1 UNK         0.0839 
     99 H99        26.5356  -28.1385  -38.1876 H         1 UNK         0.0839 
    100 H100       22.5575  -29.5178  -39.6469 H         1 UNK         0.2998 
    101 H101       21.6037  -31.4902  -39.5597 H         1 UNK         0.0822 
    102 H102       23.1989  -32.2618  -37.0609 H         1 UNK         0.0787 
    103 H103       21.7017  -31.3326  -37.0233 H         1 UNK         0.0787 
    104 H104       21.7000  -32.9771  -37.6263 H         1 UNK         0.0787 
    105 H105       22.1923  -34.0001  -39.4598 H         1 UNK         0.3055 
    106 H106       22.9924  -35.6844  -40.6693 H         1 UNK         0.1106 
    107 H107       25.7593  -34.4322  -40.2568 H         1 UNK         0.0828 
    108 H108       24.9396  -35.4852  -39.1047 H         1 UNK         0.0828 
    109 H109       25.4216  -36.1045  -40.6748 H         1 UNK         0.0828 
    110 H110       21.8926  -33.6324  -42.1166 H         1 UNK         0.2931 
    111 H111       23.3768  -32.6114  -44.2355 H         1 UNK         0.0412 
    112 H112       23.1939  -34.7185  -47.0966 H         1 UNK         0.3472 
    113 H113       23.5940  -33.1344  -46.4860 H         1 UNK         0.3472 
    114 H114       20.3493  -33.0506  -44.2486 H         1 UNK         0.0970 
    115 H115       21.2406  -31.8885  -45.1830 H         1 UNK         0.0970 
    116 H116       19.2103  -32.6344  -42.3979 H         1 UNK         0.0612 
    117 H117       19.7782  -31.7940  -40.9907 H         1 UNK         0.0612 
@<TRIPOS>BOND
     1    1    2 1    
     2    1   62 1    
     3    1   63 1    
     4    1   64 1    
     5    2    3 2    
     6    2    4 am   BACKBONE|DICT|INTERRES
     7    4    5 1    
     8    4   65 1    
     9    5    6 1    
    10    5   25 1    
    11    5   66 1    
    12    6    7 1    
    13    6   67 1    
    14    6   68 1    
    15    7    8 1    
    16    8    9 1    
    17    8   69 1    
    18    8   70 1    
    19    9   10 ar   
    20    9   14 ar   
    21   10   11 ar   
    22   10   71 1    
    23   11   12 ar   
    24   11   61 1    
    25   12   13 ar   
    26   12   72 1    
    27   13   14 ar   
    28   13   15 1    
    29   14   73 1    
    30   15   16 1    
    31   15   74 1    
    32   15   75 1    
    33   16   17 1    
    34   17   18 1    
    35   17   76 1    
    36   17   77 1    
    37   18   19 1    
    38   18   27 1    
    39   18   78 1    
    40   19   20 am   BACKBONE|DICT|INTERRES
    41   19   79 1    
    42   20   21 2    
    43   20   22 1    
    44   22   23 1    
    45   22   24 1    
    46   22   80 1    
    47   23   81 1    
    48   23   82 1    
    49   23   83 1    
    50   24   25 am   BACKBONE|DICT|INTERRES
    51   24   84 1    
    52   25   26 2    
    53   27   28 2    
    54   27   29 am   BACKBONE|DICT|INTERRES
    55   29   30 1    
    56   29   85 1    
    57   30   31 1    
    58   30   32 1    
    59   30   86 1    
    60   31   87 1    
    61   31   88 1    
    62   31   89 1    
    63   32   33 2    
    64   32   34 am   BACKBONE|DICT|INTERRES
    65   34   35 1    
    66   34   90 1    
    67   35   36 1    
    68   35   37 1    
    69   35   91 1    
    70   36   92 1    
    71   36   93 1    
    72   36   94 1    
    73   37   38 2    
    74   37   39 am   BACKBONE|DICT|INTERRES
    75   39   40 1    
    76   39   95 1    
    77   40   41 1    
    78   40   42 1    
    79   40   96 1    
    80   41   97 1    
    81   41   98 1    
    82   41   99 1    
    83   42   43 2    
    84   42   44 am   BACKBONE|DICT|INTERRES
    85   44   45 1    
    86   44  100 1    
    87   45   46 1    
    88   45   47 1    
    89   45  101 1    
    90   46  102 1    
    91   46  103 1    
    92   46  104 1    
    93   47   48 2    
    94   47   49 am   BACKBONE|DICT|INTERRES
    95   49   50 1    
    96   49  105 1    
    97   50   51 1    
    98   50   52 1    
    99   50  106 1    
   100   51  107 1    
   101   51  108 1    
   102   51  109 1    
   103   52   53 2    
   104   52   54 am   BACKBONE|DICT|INTERRES
   105   54   55 1    
   106   54  110 1    
   107   55   56 1    
   108   55   59 1    
   109   55  111 1    
   110   56   57 am   BACKBONE|DICT|INTERRES
   111   56   58 2    
   112   57  112 1    
   113   57  113 1    
   114   59   60 1    
   115   59  114 1    
   116   59  115 1    
   117   60   61 1    
   118   61  116 1    
   119   61  117 1    
@<TRIPOS>SUBSTRUCTURE
     1 UNK         1 GROUP             0       ****    0 ROOT    
