@<TRIPOS>MOLECULE
3R8
117   119    1
SMALL
USER_CHARGES


@<TRIPOS>ATOM
      1 CA         15.4743  -27.6979  -40.2221 C.3       0 UNK        -0.2013 
      2 C          16.3596  -26.6084  -40.8088 C.2       0 UNK         0.4866 
      3 O          17.2003  -26.0562  -40.0996 O.2       0 UNK        -0.5176 
      4 N          16.1725  -26.2913  -42.0984 N.am      1 UNK        -0.4884 
      5 CA         16.9428  -25.2839  -42.8405 C.3       1 UNK         0.0853 
      6 C6         16.2339  -24.8857  -44.1672 C.3       10 UNK        -0.0849 
      7 S7         16.5729  -25.9119  -45.6470 S.3       10 UNK        -0.2776 
      8 C8         15.4433  -27.3262  -45.4518 C.3       10 UNK         0.0316 
      9 C9         16.2223  -28.6099  -45.2001 C.ar      10 UNK        -0.0863 
     10 C10        16.2711  -29.1839  -43.9267 C.ar      10 UNK        -0.1009 
     11 C11        16.9919  -30.3597  -43.7013 C.ar      10 UNK        -0.0712 
     12 C12        17.6508  -30.9769  -44.7695 C.ar      10 UNK        -0.0894 
     13 C13        17.5981  -30.4215  -46.0518 C.ar      10 UNK        -0.0745 
     14 C14        16.8840  -29.2379  -46.2589 C.ar      10 UNK        -0.0972 
     15 C15        18.2759  -31.1232  -47.2203 C.3       10 UNK         0.0209 
     16 S16        20.0577  -30.7623  -47.3099 S.3       10 UNK        -0.2568 
     17 C17        20.0791  -29.0303  -47.9037 C.3       10 UNK        -0.0983 
     18 CA         20.8353  -28.0561  -46.9641 C.3       3 UNK         0.0876 
     19 N          20.3036  -28.1040  -45.5963 N.am      3 UNK        -0.4424 
     20 C          20.6529  -27.2912  -44.5917 C.2       2 UNK         0.4918 
     21 O          21.4407  -26.3513  -44.7075 O.2       2 UNK        -0.4875 
     22 CA         20.0197  -27.6170  -43.2311 C.3       2 UNK         0.0481 
     23 CB         20.9597  -27.3104  -42.0516 C.3       2 UNK        -0.1831 
     24 N          18.7187  -26.9717  -43.0533 N.am      2 UNK        -0.4498 
     25 C          18.4323  -25.6592  -43.0257 C.2       1 UNK         0.5027 
     26 O          19.2653  -24.7571  -43.1222 O.2       1 UNK        -0.4969 
     27 C          22.3655  -28.2710  -47.0549 C.2       3 UNK         0.5005 
     28 O          22.9853  -27.7966  -48.0090 O.2       3 UNK        -0.5279 
     29 N          22.9451  -28.9684  -46.0713 N.am      4 UNK        -0.4463 
     30 CA         24.3708  -29.2299  -45.9218 C.3       4 UNK         0.0283 
     31 CB         24.7478  -30.4973  -46.7105 C.3       4 UNK        -0.1875 
     32 C          24.6816  -29.3924  -44.4292 C.2       4 UNK         0.4949 
     33 O          23.7589  -29.5515  -43.6253 O.2       4 UNK        -0.5039 
     34 N          25.9777  -29.3414  -44.0907 N.am      5 UNK        -0.4663 
     35 CA         26.6119  -29.5990  -42.7840 C.3       5 UNK         0.0242 
     36 CB         26.3975  -31.0649  -42.3638 C.3       5 UNK        -0.1982 
     37 C          26.2466  -28.6474  -41.6259 C.2       5 UNK         0.5017 
     38 O          27.0227  -28.5571  -40.6734 O.2       5 UNK        -0.5012 
     39 N          25.0977  -27.9653  -41.7100 N.am      6 UNK        -0.4439 
     40 CA         24.4995  -27.0265  -40.7516 C.3       6 UNK         0.0297 
     41 CB         25.4301  -25.8373  -40.4406 C.3       6 UNK        -0.2006 
     42 C          23.9933  -27.7027  -39.4660 C.2       6 UNK         0.4892 
     43 O          22.8212  -27.5447  -39.1242 O.2       6 UNK        -0.5089 
     44 N          24.8746  -28.4424  -38.7827 N.am      7 UNK        -0.4243 
     45 CA         24.6032  -29.1706  -37.5446 C.3       7 UNK         0.0196 
     46 CB         25.9334  -29.6717  -36.9564 C.3       7 UNK        -0.2007 
     47 C          23.6228  -30.3306  -37.7809 C.2       7 UNK         0.5020 
     48 O          24.0164  -31.3523  -38.3464 O.2       7 UNK        -0.5147 
     49 N          22.3614  -30.1347  -37.3681 N.am      8 UNK        -0.4734 
     50 CA         21.2414  -31.0882  -37.4364 C.3       8 UNK         0.0238 
     51 CB         21.4532  -32.2257  -36.4143 C.3       8 UNK        -0.1912 
     52 C          20.9496  -31.6202  -38.8564 C.2       8 UNK         0.5038 
     53 O          20.5132  -32.7638  -39.0010 O.2       8 UNK        -0.5046 
     54 N          21.2167  -30.7862  -39.8714 N.am      9 UNK        -0.4200 
     55 CA         21.1558  -31.1158  -41.3067 C.3       9 UNK         0.0839 
     56 C          22.2333  -32.1436  -41.7766 C.2       9 UNK         0.5513 
     57 N          23.2536  -32.4574  -40.9859 N.am      9 UNK        -0.7519 
     58 O          22.1510  -32.6630  -42.8867 O.2       9 UNK        -0.4960 
     59 C59        19.7311  -31.5081  -41.8006 C.3       10 UNK        -0.0876 
     60 S60        18.4136  -30.3392  -41.3193 S.3       10 UNK        -0.2414 
     61 C61        17.0229  -30.9719  -42.3078 C.3       10 UNK         0.0169 
     62 H62        14.9883  -27.3383  -39.3155 H         1 UNK         0.0903 
     63 H63        14.6972  -28.0152  -40.9168 H         1 UNK         0.0903 
     64 H64        16.0763  -28.5685  -39.9625 H         1 UNK         0.0903 
     65 H65        15.4322  -26.7405  -42.6148 H         1 UNK         0.3096 
     66 H66        16.9456  -24.3915  -42.2095 H         1 UNK         0.1121 
     67 H67        15.1554  -24.8074  -44.0200 H         1 UNK         0.0849 
     68 H68        16.5494  -23.8742  -44.4291 H         1 UNK         0.0849 
     69 H69        14.7217  -27.1406  -44.6558 H         1 UNK         0.0865 
     70 H70        14.8571  -27.4346  -46.3657 H         1 UNK         0.0865 
     71 H71        15.7359  -28.7307  -43.1071 H         1 UNK         0.1346 
     72 H72        18.1912  -31.8998  -44.6103 H         1 UNK         0.1412 
     73 H73        16.8322  -28.8048  -47.2486 H         1 UNK         0.1426 
     74 H74        18.1445  -32.2015  -47.1187 H         1 UNK         0.0716 
     75 H75        17.8010  -30.8510  -48.1643 H         1 UNK         0.0716 
     76 H76        19.0566  -28.6778  -48.0363 H         1 UNK         0.0695 
     77 H77        20.5137  -29.0163  -48.9052 H         1 UNK         0.0695 
     78 H78        20.6552  -27.0427  -47.3293 H         1 UNK         0.0983 
     79 H79        19.6336  -28.8404  -45.4214 H         1 UNK         0.3095 
     80 H80        19.8316  -28.6904  -43.2191 H         1 UNK         0.0454 
     81 H81        20.5181  -27.6144  -41.1025 H         1 UNK         0.0851 
     82 H82        21.2045  -26.2503  -41.9834 H         1 UNK         0.0851 
     83 H83        21.8962  -27.8558  -42.1638 H         1 UNK         0.0851 
     84 H84        17.9351  -27.6051  -42.9839 H         1 UNK         0.2976 
     85 H85        22.3830  -29.2882  -45.2924 H         1 UNK         0.3116 
     86 H86        24.9387  -28.3764  -46.2982 H         1 UNK         0.0646 
     87 H87        24.2031  -31.3706  -46.3489 H         1 UNK         0.0847 
     88 H88        24.5284  -30.3840  -47.7723 H         1 UNK         0.0847 
     89 H89        25.8124  -30.7171  -46.6237 H         1 UNK         0.0847 
     90 H90        26.6340  -29.1491  -44.8359 H         1 UNK         0.3040 
     91 H91        27.6825  -29.4611  -42.9455 H         1 UNK         0.1015 
     92 H92        25.3418  -31.2872  -42.2179 H         1 UNK         0.0786 
     93 H93        26.9088  -31.2869  -41.4259 H         1 UNK         0.0786 
     94 H94        26.7838  -31.7538  -43.1148 H         1 UNK         0.0786 
     95 H95        24.5000  -28.2336  -42.4875 H         1 UNK         0.3172 
     96 H96        23.6276  -26.6108  -41.2556 H         1 UNK         0.0595 
     97 H97        26.3296  -26.1416  -39.9053 H         1 UNK         0.0839 
     98 H98        24.9202  -25.1015  -39.8174 H         1 UNK         0.0839 
     99 H99        25.7400  -25.3283  -41.3533 H         1 UNK         0.0839 
    100 H100       25.7993  -28.5495  -39.1902 H         1 UNK         0.2998 
    101 H101       24.1613  -28.4734  -36.8295 H         1 UNK         0.0822 
    102 H102       25.7664  -30.2304  -36.0345 H         1 UNK         0.0787 
    103 H103       26.4585  -30.3320  -37.6482 H         1 UNK         0.0787 
    104 H104       26.5986  -28.8418  -36.7169 H         1 UNK         0.0787 
    105 H105       22.1336  -29.2288  -36.9792 H         1 UNK         0.3055 
    106 H106       20.3471  -30.5383  -37.1385 H         1 UNK         0.1106 
    107 H107       21.6305  -31.8330  -35.4132 H         1 UNK         0.0828 
    108 H108       20.5756  -32.8708  -36.3548 H         1 UNK         0.0828 
    109 H109       22.3021  -32.8554  -36.6831 H         1 UNK         0.0828 
    110 H110       21.5862  -29.8735  -39.6455 H         1 UNK         0.2931 
    111 H111       21.4251  -30.1919  -41.8168 H         1 UNK         0.0412 
    112 H112       23.3605  -32.0400  -40.0666 H         1 UNK         0.3472 
    113 H113       23.9325  -33.1262  -41.3105 H         1 UNK         0.3472 
    114 H114       19.7348  -31.5812  -42.8882 H         1 UNK         0.0970 
    115 H115       19.4596  -32.4991  -41.4333 H         1 UNK         0.0970 
    116 H116       17.0718  -32.0602  -42.3681 H         1 UNK         0.0612 
    117 H117       16.0939  -30.7416  -41.7841 H         1 UNK         0.0612 
@<TRIPOS>BOND
     1    1    2 1    
     2    1   62 1    
     3    1   63 1    
     4    1   64 1    
     5    2    3 2    
     6    2    4 am   BACKBONE|DICT|INTERRES
     7    4    5 1    
     8    4   65 1    
     9    5    6 1    
    10    5   25 1    
    11    5   66 1    
    12    6    7 1    
    13    6   67 1    
    14    6   68 1    
    15    7    8 1    
    16    8    9 1    
    17    8   69 1    
    18    8   70 1    
    19    9   10 ar   
    20    9   14 ar   
    21   10   11 ar   
    22   10   71 1    
    23   11   12 ar   
    24   11   61 1    
    25   12   13 ar   
    26   12   72 1    
    27   13   14 ar   
    28   13   15 1    
    29   14   73 1    
    30   15   16 1    
    31   15   74 1    
    32   15   75 1    
    33   16   17 1    
    34   17   18 1    
    35   17   76 1    
    36   17   77 1    
    37   18   19 1    
    38   18   27 1    
    39   18   78 1    
    40   19   20 am   BACKBONE|DICT|INTERRES
    41   19   79 1    
    42   20   21 2    
    43   20   22 1    
    44   22   23 1    
    45   22   24 1    
    46   22   80 1    
    47   23   81 1    
    48   23   82 1    
    49   23   83 1    
    50   24   25 am   BACKBONE|DICT|INTERRES
    51   24   84 1    
    52   25   26 2    
    53   27   28 2    
    54   27   29 am   BACKBONE|DICT|INTERRES
    55   29   30 1    
    56   29   85 1    
    57   30   31 1    
    58   30   32 1    
    59   30   86 1    
    60   31   87 1    
    61   31   88 1    
    62   31   89 1    
    63   32   33 2    
    64   32   34 am   BACKBONE|DICT|INTERRES
    65   34   35 1    
    66   34   90 1    
    67   35   36 1    
    68   35   37 1    
    69   35   91 1    
    70   36   92 1    
    71   36   93 1    
    72   36   94 1    
    73   37   38 2    
    74   37   39 am   BACKBONE|DICT|INTERRES
    75   39   40 1    
    76   39   95 1    
    77   40   41 1    
    78   40   42 1    
    79   40   96 1    
    80   41   97 1    
    81   41   98 1    
    82   41   99 1    
    83   42   43 2    
    84   42   44 am   BACKBONE|DICT|INTERRES
    85   44   45 1    
    86   44  100 1    
    87   45   46 1    
    88   45   47 1    
    89   45  101 1    
    90   46  102 1    
    91   46  103 1    
    92   46  104 1    
    93   47   48 2    
    94   47   49 am   BACKBONE|DICT|INTERRES
    95   49   50 1    
    96   49  105 1    
    97   50   51 1    
    98   50   52 1    
    99   50  106 1    
   100   51  107 1    
   101   51  108 1    
   102   51  109 1    
   103   52   53 2    
   104   52   54 am   BACKBONE|DICT|INTERRES
   105   54   55 1    
   106   54  110 1    
   107   55   56 1    
   108   55   59 1    
   109   55  111 1    
   110   56   57 am   BACKBONE|DICT|INTERRES
   111   56   58 2    
   112   57  112 1    
   113   57  113 1    
   114   59   60 1    
   115   59  114 1    
   116   59  115 1    
   117   60   61 1    
   118   61  116 1    
   119   61  117 1    
@<TRIPOS>SUBSTRUCTURE
     1 UNK         1 GROUP             0       ****    0 ROOT    
