@<TRIPOS>MOLECULE
3R8
117   119    1
SMALL
USER_CHARGES


@<TRIPOS>ATOM
      1 CA         22.0313  -24.1110  -49.9114 C.3       0 UNK        -0.2013 
      2 C          21.9250  -24.7231  -48.5225 C.2       0 UNK         0.4866 
      3 O          22.7786  -24.4654  -47.6730 O.2       0 UNK        -0.5176 
      4 N          20.8891  -25.5383  -48.2865 N.am      1 UNK        -0.4884 
      5 CA         20.5953  -26.1553  -46.9898 C.3       1 UNK         0.0853 
      6 C6         19.6233  -27.3502  -47.1545 C.3       10 UNK        -0.0849 
      7 S7         19.5500  -28.4022  -45.6665 S.3       10 UNK        -0.2776 
      8 C8         17.9822  -29.2822  -45.9416 C.3       10 UNK         0.0316 
      9 C9         17.5626  -30.0086  -44.6754 C.ar      10 UNK        -0.0863 
     10 C10        18.0903  -31.2686  -44.3774 C.ar      10 UNK        -0.1009 
     11 C11        17.7520  -31.9135  -43.1841 C.ar      10 UNK        -0.0712 
     12 C12        16.8824  -31.2880  -42.2860 C.ar      10 UNK        -0.0894 
     13 C13        16.3538  -30.0257  -42.5724 C.ar      10 UNK        -0.0745 
     14 C14        16.6781  -29.4005  -43.7799 C.ar      10 UNK        -0.0972 
     15 C15        15.4732  -29.3191  -41.5536 C.3       10 UNK         0.0209 
     16 S16        16.4712  -28.5925  -40.2118 S.3       10 UNK        -0.2568 
     17 C17        17.2938  -27.1905  -41.0468 C.3       10 UNK        -0.0983 
     18 CA         18.6836  -27.5394  -41.6572 C.3       3 UNK         0.0876 
     19 N          19.1115  -26.5504  -42.6533 N.am      3 UNK        -0.4424 
     20 C          19.4975  -25.2898  -42.3983 C.2       2 UNK         0.4918 
     21 O          19.5092  -24.8001  -41.2678 O.2       2 UNK        -0.4875 
     22 CA         19.9621  -24.4373  -43.5942 C.3       2 UNK         0.0481 
     23 CB         21.0948  -23.4658  -43.2125 C.3       2 UNK        -0.1831 
     24 N          20.4002  -25.2741  -44.7136 N.am      2 UNK        -0.4498 
     25 C          20.0504  -25.1063  -45.9947 C.2       1 UNK         0.5027 
     26 O          19.3117  -24.2035  -46.3978 O.2       1 UNK        -0.4969 
     27 C          19.8184  -27.8131  -40.6479 C.2       3 UNK         0.5005 
     28 O          20.9481  -28.0428  -41.0828 O.2       3 UNK        -0.5279 
     29 N          19.5347  -27.7568  -39.3400 N.am      4 UNK        -0.4463 
     30 CA         20.4794  -28.0088  -38.2450 C.3       4 UNK         0.0283 
     31 CB         19.7352  -27.8965  -36.9050 C.3       4 UNK        -0.1875 
     32 C          21.7323  -27.1103  -38.2389 C.2       4 UNK         0.4949 
     33 O          22.7510  -27.5159  -37.6800 O.2       4 UNK        -0.5039 
     34 N          21.6541  -25.9273  -38.8667 N.am      5 UNK        -0.4663 
     35 CA         22.7940  -25.0263  -39.0589 C.3       5 UNK         0.0242 
     36 CB         22.2796  -23.6132  -39.3744 C.3       5 UNK        -0.1982 
     37 C          23.7711  -25.5087  -40.1486 C.2       5 UNK         0.5017 
     38 O          24.9399  -25.1234  -40.1073 O.2       5 UNK        -0.5012 
     39 N          23.2903  -26.3331  -41.0905 N.am      6 UNK        -0.4439 
     40 CA         24.1007  -26.9836  -42.1230 C.3       6 UNK         0.0297 
     41 CB         23.3383  -26.9795  -43.4589 C.3       6 UNK        -0.2006 
     42 C          24.4633  -28.4193  -41.7116 C.2       6 UNK         0.4892 
     43 O          25.6082  -28.8290  -41.9077 O.2       6 UNK        -0.5089 
     44 N          23.4862  -29.1385  -41.1383 N.am      7 UNK        -0.4243 
     45 CA         23.5364  -30.5349  -40.6988 C.3       7 UNK         0.0196 
     46 CB         24.5000  -30.6960  -39.5004 C.3       7 UNK        -0.2007 
     47 C          23.8019  -31.5019  -41.8717 C.2       7 UNK         0.5020 
     48 O          23.2990  -31.2674  -42.9721 O.2       7 UNK        -0.5147 
     49 N          24.5538  -32.5826  -41.6099 N.am      8 UNK        -0.4734 
     50 CA         24.9224  -33.6582  -42.5448 C.3       8 UNK         0.0238 
     51 CB         25.8296  -33.1209  -43.6735 C.3       8 UNK        -0.1912 
     52 C          23.7151  -34.4604  -43.0772 C.2       8 UNK         0.5038 
     53 O          23.7572  -34.9584  -44.2040 O.2       8 UNK        -0.5046 
     54 N          22.6689  -34.5844  -42.2495 N.am      9 UNK        -0.4200 
     55 CA         21.4388  -35.3386  -42.5444 C.3       9 UNK         0.0839 
     56 C          21.6040  -36.8869  -42.5152 C.2       9 UNK         0.5513 
     57 N          22.7021  -37.4343  -42.0075 N.am      9 UNK        -0.7519 
     58 O          20.7161  -37.6051  -42.9675 O.2       9 UNK        -0.4960 
     59 C59        20.2654  -34.8946  -41.6318 C.3       10 UNK        -0.0876 
     60 S60        19.8361  -33.1327  -41.8409 S.3       10 UNK        -0.2414 
     61 C61        18.3345  -33.2789  -42.8575 C.3       10 UNK         0.0169 
     62 H62        21.9995  -23.0238  -49.8451 H         1 UNK         0.0903 
     63 H63        22.9746  -24.3967  -50.3763 H         1 UNK         0.0903 
     64 H64        21.2204  -24.4347  -50.5637 H         1 UNK         0.0903 
     65 H65        20.2004  -25.6860  -49.0109 H         1 UNK         0.3096 
     66 H66        21.5409  -26.5389  -46.5980 H         1 UNK         0.1121 
     67 H67        19.9476  -27.9842  -47.9816 H         1 UNK         0.0849 
     68 H68        18.6221  -27.0004  -47.4150 H         1 UNK         0.0849 
     69 H69        17.2061  -28.5771  -46.2438 H         1 UNK         0.0865 
     70 H70        18.0977  -29.9892  -46.7647 H         1 UNK         0.0865 
     71 H71        18.7822  -31.7372  -45.0643 H         1 UNK         0.1346 
     72 H72        16.6382  -31.7720  -41.3500 H         1 UNK         0.1412 
     73 H73        16.2812  -28.4185  -43.9995 H         1 UNK         0.1426 
     74 H74        14.7707  -30.0345  -41.1234 H         1 UNK         0.0716 
     75 H75        14.8681  -28.5443  -42.0270 H         1 UNK         0.0716 
     76 H76        16.6274  -26.8375  -41.8352 H         1 UNK         0.0695 
     77 H77        17.3716  -26.3570  -40.3465 H         1 UNK         0.0695 
     78 H78        18.5938  -28.4750  -42.2057 H         1 UNK         0.0983 
     79 H79        19.1430  -26.8823  -43.6073 H         1 UNK         0.3095 
     80 H80        19.0940  -23.8458  -43.8912 H         1 UNK         0.0454 
     81 H81        21.9655  -23.9934  -42.8222 H         1 UNK         0.0851 
     82 H82        21.4171  -22.8763  -44.0708 H         1 UNK         0.0851 
     83 H83        20.7665  -22.7618  -42.4471 H         1 UNK         0.0851 
     84 H84        20.9975  -26.0531  -44.4757 H         1 UNK         0.2976 
     85 H85        18.5747  -27.5764  -39.0789 H         1 UNK         0.3116 
     86 H86        20.8287  -29.0376  -38.3553 H         1 UNK         0.0646 
     87 H87        20.4018  -28.1107  -36.0683 H         1 UNK         0.0847 
     88 H88        18.9096  -28.6061  -36.8468 H         1 UNK         0.0847 
     89 H89        19.3312  -26.8952  -36.7508 H         1 UNK         0.0847 
     90 H90        20.7817  -25.6651  -39.3079 H         1 UNK         0.3040 
     91 H91        23.3556  -24.9779  -38.1229 H         1 UNK         0.1015 
     92 H92        21.6477  -23.2325  -38.5718 H         1 UNK         0.0786 
     93 H93        21.6998  -23.5906  -40.2960 H         1 UNK         0.0786 
     94 H94        23.1080  -22.9133  -39.4935 H         1 UNK         0.0786 
     95 H95        22.3320  -26.6572  -41.0028 H         1 UNK         0.3172 
     96 H96        25.0320  -26.4327  -42.2713 H         1 UNK         0.0595 
     97 H97        23.1591  -25.9621  -43.8051 H         1 UNK         0.0839 
     98 H98        22.3788  -27.4923  -43.3818 H         1 UNK         0.0839 
     99 H99        23.9142  -27.4860  -44.2349 H         1 UNK         0.0839 
    100 H100       22.5580  -28.7182  -41.0983 H         1 UNK         0.2998 
    101 H101       22.5302  -30.7664  -40.3456 H         1 UNK         0.0822 
    102 H102       24.2871  -29.9557  -38.7284 H         1 UNK         0.0787 
    103 H103       24.3970  -31.6754  -39.0323 H         1 UNK         0.0787 
    104 H104       25.5429  -30.5725  -39.7952 H         1 UNK         0.0787 
    105 H105       24.9171  -32.6783  -40.6711 H         1 UNK         0.3055 
    106 H106       25.5142  -34.3715  -41.9688 H         1 UNK         0.1106 
    107 H107       26.2294  -33.9365  -44.2774 H         1 UNK         0.0828 
    108 H108       25.2884  -32.4553  -44.3467 H         1 UNK         0.0828 
    109 H109       26.6805  -32.5711  -43.2714 H         1 UNK         0.0828 
    110 H110       22.7116  -34.1342  -41.3481 H         1 UNK         0.2931 
    111 H111       21.1558  -35.0960  -43.5708 H         1 UNK         0.0412 
    112 H112       22.7948  -38.4383  -41.9993 H         1 UNK         0.3472 
    113 H113       23.4366  -36.8572  -41.6309 H         1 UNK         0.3472 
    114 H114       20.5161  -35.0645  -40.5832 H         1 UNK         0.0970 
    115 H115       19.3760  -35.4985  -41.8231 H         1 UNK         0.0970 
    116 H116       18.5721  -33.8182  -43.7760 H         1 UNK         0.0612 
    117 H117       17.5929  -33.8785  -42.3273 H         1 UNK         0.0612 
@<TRIPOS>BOND
     1    1    2 1    
     2    1   62 1    
     3    1   63 1    
     4    1   64 1    
     5    2    3 2    
     6    2    4 am   BACKBONE|DICT|INTERRES
     7    4    5 1    
     8    4   65 1    
     9    5    6 1    
    10    5   25 1    
    11    5   66 1    
    12    6    7 1    
    13    6   67 1    
    14    6   68 1    
    15    7    8 1    
    16    8    9 1    
    17    8   69 1    
    18    8   70 1    
    19    9   10 ar   
    20    9   14 ar   
    21   10   11 ar   
    22   10   71 1    
    23   11   12 ar   
    24   11   61 1    
    25   12   13 ar   
    26   12   72 1    
    27   13   14 ar   
    28   13   15 1    
    29   14   73 1    
    30   15   16 1    
    31   15   74 1    
    32   15   75 1    
    33   16   17 1    
    34   17   18 1    
    35   17   76 1    
    36   17   77 1    
    37   18   19 1    
    38   18   27 1    
    39   18   78 1    
    40   19   20 am   BACKBONE|DICT|INTERRES
    41   19   79 1    
    42   20   21 2    
    43   20   22 1    
    44   22   23 1    
    45   22   24 1    
    46   22   80 1    
    47   23   81 1    
    48   23   82 1    
    49   23   83 1    
    50   24   25 am   BACKBONE|DICT|INTERRES
    51   24   84 1    
    52   25   26 2    
    53   27   28 2    
    54   27   29 am   BACKBONE|DICT|INTERRES
    55   29   30 1    
    56   29   85 1    
    57   30   31 1    
    58   30   32 1    
    59   30   86 1    
    60   31   87 1    
    61   31   88 1    
    62   31   89 1    
    63   32   33 2    
    64   32   34 am   BACKBONE|DICT|INTERRES
    65   34   35 1    
    66   34   90 1    
    67   35   36 1    
    68   35   37 1    
    69   35   91 1    
    70   36   92 1    
    71   36   93 1    
    72   36   94 1    
    73   37   38 2    
    74   37   39 am   BACKBONE|DICT|INTERRES
    75   39   40 1    
    76   39   95 1    
    77   40   41 1    
    78   40   42 1    
    79   40   96 1    
    80   41   97 1    
    81   41   98 1    
    82   41   99 1    
    83   42   43 2    
    84   42   44 am   BACKBONE|DICT|INTERRES
    85   44   45 1    
    86   44  100 1    
    87   45   46 1    
    88   45   47 1    
    89   45  101 1    
    90   46  102 1    
    91   46  103 1    
    92   46  104 1    
    93   47   48 2    
    94   47   49 am   BACKBONE|DICT|INTERRES
    95   49   50 1    
    96   49  105 1    
    97   50   51 1    
    98   50   52 1    
    99   50  106 1    
   100   51  107 1    
   101   51  108 1    
   102   51  109 1    
   103   52   53 2    
   104   52   54 am   BACKBONE|DICT|INTERRES
   105   54   55 1    
   106   54  110 1    
   107   55   56 1    
   108   55   59 1    
   109   55  111 1    
   110   56   57 am   BACKBONE|DICT|INTERRES
   111   56   58 2    
   112   57  112 1    
   113   57  113 1    
   114   59   60 1    
   115   59  114 1    
   116   59  115 1    
   117   60   61 1    
   118   61  116 1    
   119   61  117 1    
@<TRIPOS>SUBSTRUCTURE
     1 UNK         1 GROUP             0       ****    0 ROOT    
