@<TRIPOS>MOLECULE
3R8
117   119    1
SMALL
USER_CHARGES


@<TRIPOS>ATOM
      1 CA         15.6633  -23.6794  -44.5199 C.3       0 UNK        -0.2013 
      2 C          15.8042  -24.9584  -43.7081 C.2       0 UNK         0.4866 
      3 O          15.4431  -24.9737  -42.5314 O.2       0 UNK        -0.5176 
      4 N          16.3292  -26.0229  -44.3322 N.am      1 UNK        -0.4884 
      5 CA         16.5454  -27.3605  -43.7529 C.3       1 UNK         0.0853 
      6 C6         15.2286  -28.1191  -43.4328 C.3       10 UNK        -0.0849 
      7 S7         14.2617  -28.3964  -44.9599 S.3       10 UNK        -0.2776 
      8 C8         14.4728  -30.1837  -45.2676 C.3       10 UNK         0.0316 
      9 C9         15.9254  -30.6444  -45.2045 C.ar      10 UNK        -0.0863 
     10 C10        16.3186  -31.5605  -44.2253 C.ar      10 UNK        -0.1009 
     11 C11        17.6448  -31.9945  -44.1430 C.ar      10 UNK        -0.0712 
     12 C12        18.5838  -31.5021  -45.0555 C.ar      10 UNK        -0.0894 
     13 C13        18.2016  -30.6026  -46.0551 C.ar      10 UNK        -0.0745 
     14 C14        16.8691  -30.1803  -46.1273 C.ar      10 UNK        -0.0972 
     15 C15        19.2122  -30.1232  -47.0886 C.3       10 UNK         0.0209 
     16 S16        19.9218  -28.5037  -46.6598 S.3       10 UNK        -0.2568 
     17 C17        21.4825  -28.9656  -45.8287 C.3       10 UNK        -0.0983 
     18 CA         21.9680  -27.8295  -44.8975 C.3       3 UNK         0.0876 
     19 N          21.0363  -27.6200  -43.7933 N.am      3 UNK        -0.4424 
     20 C          21.0325  -26.5709  -42.9644 C.2       2 UNK         0.4918 
     21 O          21.8518  -25.6507  -43.0090 O.2       2 UNK        -0.4875 
     22 CA         19.8498  -26.5234  -41.9911 C.3       2 UNK         0.0481 
     23 CB         19.8440  -25.2776  -41.0874 C.3       2 UNK        -0.1831 
     24 N          18.6337  -26.5642  -42.7972 N.am      2 UNK        -0.4498 
     25 C          17.5629  -27.3390  -42.5912 C.2       1 UNK         0.5027 
     26 O          17.3836  -28.0158  -41.5770 O.2       1 UNK        -0.4969 
     27 C          23.3916  -28.0678  -44.3599 C.2       3 UNK         0.5005 
     28 O          23.5589  -28.7353  -43.3389 O.2       3 UNK        -0.5279 
     29 N          24.3875  -27.4535  -45.0175 N.am      4 UNK        -0.4463 
     30 CA         25.8088  -27.4115  -44.6308 C.3       4 UNK         0.0283 
     31 CB         26.4391  -28.8182  -44.7184 C.3       4 UNK        -0.1875 
     32 C          26.0850  -26.7433  -43.2626 C.2       4 UNK         0.4949 
     33 O          27.2004  -26.8565  -42.7545 O.2       4 UNK        -0.5039 
     34 N          25.0733  -26.0693  -42.6913 N.am      5 UNK        -0.4663 
     35 CA         25.0235  -25.4097  -41.3795 C.3       5 UNK         0.0242 
     36 CB         26.0646  -24.2739  -41.2913 C.3       5 UNK        -0.1982 
     37 C          25.1049  -26.3549  -40.1613 C.2       5 UNK         0.5017 
     38 O          25.0404  -25.8619  -39.0340 O.2       5 UNK        -0.5012 
     39 N          25.2241  -27.6712  -40.3767 N.am      6 UNK        -0.4439 
     40 CA         25.3622  -28.7037  -39.3518 C.3       6 UNK         0.0297 
     41 CB         26.7189  -28.5717  -38.6269 C.3       6 UNK        -0.2006 
     42 C          25.2531  -30.0848  -40.0083 C.2       6 UNK         0.4892 
     43 O          25.4640  -30.2077  -41.2170 O.2       6 UNK        -0.5089 
     44 N          24.9678  -31.0994  -39.1805 N.am      7 UNK        -0.4243 
     45 CA         24.8576  -32.5339  -39.4832 C.3       7 UNK         0.0196 
     46 CB         26.1663  -33.1031  -40.0675 C.3       7 UNK        -0.2007 
     47 C          23.6445  -32.9017  -40.3523 C.2       7 UNK         0.5020 
     48 O          22.8368  -33.7332  -39.9353 O.2       7 UNK        -0.5147 
     49 N          23.5115  -32.2767  -41.5273 N.am      8 UNK        -0.4734 
     50 CA         22.3750  -32.4399  -42.4344 C.3       8 UNK         0.0238 
     51 CB         22.8267  -32.1619  -43.8788 C.3       8 UNK        -0.1912 
     52 C          21.2046  -31.5532  -41.9753 C.2       8 UNK         0.5038 
     53 O          20.8963  -30.5450  -42.6123 O.2       8 UNK        -0.5046 
     54 N          20.5833  -31.9639  -40.8629 N.am      9 UNK        -0.4200 
     55 CA         19.5062  -31.2587  -40.1559 C.3       9 UNK         0.0839 
     56 C          20.0241  -29.9595  -39.4684 C.2       9 UNK         0.5513 
     57 N          19.2236  -28.9085  -39.3563 N.am      9 UNK        -0.7519 
     58 O          21.1432  -29.9223  -38.9599 O.2       9 UNK        -0.4960 
     59 C59        18.2130  -31.1015  -41.0108 C.3       10 UNK        -0.0876 
     60 S60        17.4478  -32.7068  -41.4226 S.3       10 UNK        -0.2414 
     61 C61        18.0602  -33.0373  -43.1102 C.3       10 UNK         0.0169 
     62 H62        16.2360  -22.8762  -44.0570 H         1 UNK         0.0903 
     63 H63        16.0177  -23.8026  -45.5432 H         1 UNK         0.0903 
     64 H64        14.6180  -23.3739  -44.5586 H         1 UNK         0.0903 
     65 H65        16.5863  -25.9356  -45.3060 H         1 UNK         0.3096 
     66 H66        17.0567  -27.9328  -44.5279 H         1 UNK         0.1121 
     67 H67        14.6201  -27.5570  -42.7232 H         1 UNK         0.0849 
     68 H68        15.4314  -29.0797  -42.9563 H         1 UNK         0.0849 
     69 H69        13.8625  -30.7322  -44.5482 H         1 UNK         0.0865 
     70 H70        14.0662  -30.4225  -46.2513 H         1 UNK         0.0865 
     71 H71        15.5895  -31.9434  -43.5243 H         1 UNK         0.1346 
     72 H72        19.6103  -31.8365  -45.0029 H         1 UNK         0.1412 
     73 H73        16.5660  -29.4849  -46.8985 H         1 UNK         0.1426 
     74 H74        18.7210  -30.0385  -48.0591 H         1 UNK         0.0716 
     75 H75        20.0090  -30.8570  -47.2209 H         1 UNK         0.0716 
     76 H76        22.2241  -29.1822  -46.5998 H         1 UNK         0.0695 
     77 H77        21.3377  -29.8886  -45.2651 H         1 UNK         0.0695 
     78 H78        21.9860  -26.9035  -45.4769 H         1 UNK         0.0983 
     79 H79        20.3871  -28.3763  -43.6255 H         1 UNK         0.3095 
     80 H80        19.9244  -27.4143  -41.3699 H         1 UNK         0.0454 
     81 H81        19.7874  -24.3569  -41.6692 H         1 UNK         0.0851 
     82 H82        20.7511  -25.2300  -40.4838 H         1 UNK         0.0851 
     83 H83        18.9967  -25.2931  -40.4020 H         1 UNK         0.0851 
     84 H84        18.6735  -26.0436  -43.6629 H         1 UNK         0.2976 
     85 H85        24.1525  -26.9085  -45.8367 H         1 UNK         0.3116 
     86 H86        26.3033  -26.7833  -45.3731 H         1 UNK         0.0646 
     87 H87        26.0493  -29.4857  -43.9488 H         1 UNK         0.0847 
     88 H88        26.2527  -29.2790  -45.6882 H         1 UNK         0.0847 
     89 H89        27.5207  -28.7728  -44.5862 H         1 UNK         0.0847 
     90 H90        24.1898  -26.0670  -43.1857 H         1 UNK         0.3040 
     91 H91        24.0350  -24.9505  -41.3233 H         1 UNK         0.1015 
     92 H92        25.9244  -23.6846  -40.3842 H         1 UNK         0.0786 
     93 H93        25.9788  -23.5898  -42.1355 H         1 UNK         0.0786 
     94 H94        27.0849  -24.6575  -41.2707 H         1 UNK         0.0786 
     95 H95        25.2269  -28.0258  -41.3278 H         1 UNK         0.3172 
     96 H96        24.5454  -28.5938  -38.6355 H         1 UNK         0.0595 
     97 H97        27.5523  -28.6228  -39.3290 H         1 UNK         0.0839 
     98 H98        26.8590  -29.3703  -37.8974 H         1 UNK         0.0839 
     99 H99        26.7993  -27.6311  -38.0825 H         1 UNK         0.0839 
    100 H100       24.7877  -30.8639  -38.2139 H         1 UNK         0.2998 
    101 H101       24.7027  -33.0202  -38.5185 H         1 UNK         0.0822 
    102 H102       26.0977  -34.1850  -40.1889 H         1 UNK         0.0787 
    103 H103       26.3979  -32.6840  -41.0471 H         1 UNK         0.0787 
    104 H104       27.0127  -32.9039  -39.4102 H         1 UNK         0.0787 
    105 H105       24.1805  -31.5415  -41.7463 H         1 UNK         0.3055 
    106 H106       22.0311  -33.4765  -42.4006 H         1 UNK         0.1106 
    107 H107       23.5934  -32.8691  -44.1946 H         1 UNK         0.0828 
    108 H108       21.9931  -32.2564  -44.5749 H         1 UNK         0.0828 
    109 H109       23.2358  -31.1600  -43.9910 H         1 UNK         0.0828 
    110 H110       20.9737  -32.7642  -40.3802 H         1 UNK         0.2931 
    111 H111       19.2504  -31.9086  -39.3184 H         1 UNK         0.0412 
    112 H112       19.5611  -28.0959  -38.8664 H         1 UNK         0.3472 
    113 H113       18.3412  -28.8614  -39.8494 H         1 UNK         0.3472 
    114 H114       17.4544  -30.5472  -40.4573 H         1 UNK         0.0970 
    115 H115       18.4006  -30.5240  -41.9164 H         1 UNK         0.0970 
    116 H116       17.6696  -34.0043  -43.4289 H         1 UNK         0.0612 
    117 H117       19.1433  -33.1478  -43.0816 H         1 UNK         0.0612 
@<TRIPOS>BOND
     1    1    2 1    
     2    1   62 1    
     3    1   63 1    
     4    1   64 1    
     5    2    3 2    
     6    2    4 am   BACKBONE|DICT|INTERRES
     7    4    5 1    
     8    4   65 1    
     9    5    6 1    
    10    5   25 1    
    11    5   66 1    
    12    6    7 1    
    13    6   67 1    
    14    6   68 1    
    15    7    8 1    
    16    8    9 1    
    17    8   69 1    
    18    8   70 1    
    19    9   10 ar   
    20    9   14 ar   
    21   10   11 ar   
    22   10   71 1    
    23   11   12 ar   
    24   11   61 1    
    25   12   13 ar   
    26   12   72 1    
    27   13   14 ar   
    28   13   15 1    
    29   14   73 1    
    30   15   16 1    
    31   15   74 1    
    32   15   75 1    
    33   16   17 1    
    34   17   18 1    
    35   17   76 1    
    36   17   77 1    
    37   18   19 1    
    38   18   27 1    
    39   18   78 1    
    40   19   20 am   BACKBONE|DICT|INTERRES
    41   19   79 1    
    42   20   21 2    
    43   20   22 1    
    44   22   23 1    
    45   22   24 1    
    46   22   80 1    
    47   23   81 1    
    48   23   82 1    
    49   23   83 1    
    50   24   25 am   BACKBONE|DICT|INTERRES
    51   24   84 1    
    52   25   26 2    
    53   27   28 2    
    54   27   29 am   BACKBONE|DICT|INTERRES
    55   29   30 1    
    56   29   85 1    
    57   30   31 1    
    58   30   32 1    
    59   30   86 1    
    60   31   87 1    
    61   31   88 1    
    62   31   89 1    
    63   32   33 2    
    64   32   34 am   BACKBONE|DICT|INTERRES
    65   34   35 1    
    66   34   90 1    
    67   35   36 1    
    68   35   37 1    
    69   35   91 1    
    70   36   92 1    
    71   36   93 1    
    72   36   94 1    
    73   37   38 2    
    74   37   39 am   BACKBONE|DICT|INTERRES
    75   39   40 1    
    76   39   95 1    
    77   40   41 1    
    78   40   42 1    
    79   40   96 1    
    80   41   97 1    
    81   41   98 1    
    82   41   99 1    
    83   42   43 2    
    84   42   44 am   BACKBONE|DICT|INTERRES
    85   44   45 1    
    86   44  100 1    
    87   45   46 1    
    88   45   47 1    
    89   45  101 1    
    90   46  102 1    
    91   46  103 1    
    92   46  104 1    
    93   47   48 2    
    94   47   49 am   BACKBONE|DICT|INTERRES
    95   49   50 1    
    96   49  105 1    
    97   50   51 1    
    98   50   52 1    
    99   50  106 1    
   100   51  107 1    
   101   51  108 1    
   102   51  109 1    
   103   52   53 2    
   104   52   54 am   BACKBONE|DICT|INTERRES
   105   54   55 1    
   106   54  110 1    
   107   55   56 1    
   108   55   59 1    
   109   55  111 1    
   110   56   57 am   BACKBONE|DICT|INTERRES
   111   56   58 2    
   112   57  112 1    
   113   57  113 1    
   114   59   60 1    
   115   59  114 1    
   116   59  115 1    
   117   60   61 1    
   118   61  116 1    
   119   61  117 1    
@<TRIPOS>SUBSTRUCTURE
     1 UNK         1 GROUP             0       ****    0 ROOT    
