@<TRIPOS>MOLECULE
3R8
117   119    1
SMALL
USER_CHARGES


@<TRIPOS>ATOM
      1 CA         16.1813  -24.9106  -48.5912 C.3       0 UNK        -0.2013 
      2 C          16.7066  -25.7848  -47.4630 C.2       0 UNK         0.4866 
      3 O          17.7604  -26.4068  -47.6072 O.2       0 UNK        -0.5176 
      4 N          15.9889  -25.8344  -46.3334 N.am      1 UNK        -0.4884 
      5 CA         16.3299  -26.6238  -45.1429 C.3       1 UNK         0.0853 
      6 C6         15.0676  -26.9925  -44.3187 C.3       10 UNK        -0.0849 
      7 S7         14.0941  -28.2756  -45.1838 S.3       10 UNK        -0.2776 
      8 C8         14.3297  -29.7643  -44.1436 C.3       10 UNK         0.0316 
      9 C9         15.7660  -29.9629  -43.6664 C.ar      10 UNK        -0.0863 
     10 C10        16.8204  -30.0410  -44.5800 C.ar      10 UNK        -0.1009 
     11 C11        18.1444  -30.1373  -44.1423 C.ar      10 UNK        -0.0712 
     12 C12        18.3985  -30.2194  -42.7657 C.ar      10 UNK        -0.0894 
     13 C13        17.3522  -30.1778  -41.8363 C.ar      10 UNK        -0.0745 
     14 C14        16.0403  -30.0438  -42.2986 C.ar      10 UNK        -0.0972 
     15 C15        17.5946  -30.2912  -40.3297 C.3       10 UNK         0.0209 
     16 S16        19.1645  -29.5761  -39.7284 S.3       10 UNK        -0.2568 
     17 C17        19.0264  -27.8345  -40.2541 C.3       10 UNK        -0.0983 
     18 CA         20.2060  -27.4257  -41.1756 C.3       3 UNK         0.0876 
     19 N          19.7678  -26.5279  -42.2528 N.am      3 UNK        -0.4424 
     20 C          20.5010  -26.1727  -43.3162 C.2       2 UNK         0.4918 
     21 O          21.6590  -26.5524  -43.4972 O.2       2 UNK        -0.4875 
     22 CA         19.8287  -25.2174  -44.3222 C.3       2 UNK         0.0481 
     23 CB         20.7777  -24.8010  -45.4608 C.3       2 UNK        -0.1831 
     24 N          18.6174  -25.7940  -44.9068 N.am      2 UNK        -0.4498 
     25 C          17.4280  -25.9340  -44.3074 C.2       1 UNK         0.5027 
     26 O          17.1971  -25.5461  -43.1598 O.2       1 UNK        -0.4969 
     27 C          21.4022  -26.8741  -40.3650 C.2       3 UNK         0.5005 
     28 O          22.1300  -27.6513  -39.7455 O.2       3 UNK        -0.5279 
     29 N          21.6206  -25.5504  -40.4312 N.am      4 UNK        -0.4463 
     30 CA         22.7707  -24.8286  -39.8780 C.3       4 UNK         0.0283 
     31 CB         22.6025  -23.3263  -40.1556 C.3       4 UNK        -0.1875 
     32 C          24.1389  -25.3170  -40.3935 C.2       4 UNK         0.4949 
     33 O          25.1416  -25.1043  -39.7108 O.2       4 UNK        -0.5039 
     34 N          24.1693  -26.0071  -41.5444 N.am      5 UNK        -0.4663 
     35 CA         25.3298  -26.7265  -42.0800 C.3       5 UNK         0.0242 
     36 CB         25.0995  -26.9867  -43.5803 C.3       5 UNK        -0.1982 
     37 C          25.6216  -28.0252  -41.2938 C.2       5 UNK         0.5017 
     38 O          25.6504  -29.1098  -41.8783 O.2       5 UNK        -0.5012 
     39 N          25.8005  -27.8882  -39.9712 N.am      6 UNK        -0.4439 
     40 CA         26.1442  -28.9155  -38.9776 C.3       6 UNK         0.0297 
     41 CB         27.6110  -29.3543  -39.1731 C.3       6 UNK        -0.2006 
     42 C          25.1857  -30.1257  -38.9215 C.2       6 UNK         0.4892 
     43 O          25.5956  -31.1905  -38.4555 O.2       6 UNK        -0.5089 
     44 N          23.9454  -29.9574  -39.4098 N.am      7 UNK        -0.4243 
     45 CA         22.9310  -30.9961  -39.6328 C.3       7 UNK         0.0196 
     46 CB         22.3381  -31.4719  -38.2904 C.3       7 UNK        -0.2007 
     47 C          23.4296  -32.1595  -40.5195 C.2       7 UNK         0.5020 
     48 O          23.0297  -33.3055  -40.3112 O.2       7 UNK        -0.5147 
     49 N          24.3033  -31.8524  -41.4914 N.am      8 UNK        -0.4734 
     50 CA         24.9689  -32.8297  -42.3634 C.3       8 UNK         0.0238 
     51 CB         26.2006  -32.1630  -42.9993 C.3       8 UNK        -0.1912 
     52 C          24.0649  -33.4466  -43.4491 C.2       8 UNK         0.5038 
     53 O          24.5057  -34.3683  -44.1378 O.2       8 UNK        -0.5046 
     54 N          22.8448  -32.9184  -43.6004 N.am      9 UNK        -0.4200 
     55 CA         21.8092  -33.3478  -44.5505 C.3       9 UNK         0.0839 
     56 C          21.4328  -34.8495  -44.4187 C.2       9 UNK         0.5513 
     57 N          21.2290  -35.5379  -45.5335 N.am      9 UNK        -0.7519 
     58 O          21.2753  -35.3774  -43.3200 O.2       9 UNK        -0.4960 
     59 C59        20.5405  -32.4692  -44.4132 C.3       10 UNK        -0.0876 
     60 S60        20.8900  -30.6929  -44.6436 S.3       10 UNK        -0.2414 
     61 C61        19.2578  -30.0907  -45.1915 C.3       10 UNK         0.0169 
     62 H62        15.2430  -24.4232  -48.3271 H         1 UNK         0.0903 
     63 H63        16.9088  -24.1371  -48.8359 H         1 UNK         0.0903 
     64 H64        16.0111  -25.5129  -49.4832 H         1 UNK         0.0903 
     65 H65        15.1397  -25.2912  -46.2645 H         1 UNK         0.3096 
     66 H66        16.7830  -27.5544  -45.4848 H         1 UNK         0.1121 
     67 H67        15.3282  -27.3532  -43.3224 H         1 UNK         0.0849 
     68 H68        14.4405  -26.1143  -44.1564 H         1 UNK         0.0849 
     69 H69        13.6495  -29.6958  -43.2931 H         1 UNK         0.0865 
     70 H70        14.0188  -30.6435  -44.7095 H         1 UNK         0.0865 
     71 H71        16.6087  -29.9769  -45.6391 H         1 UNK         0.1346 
     72 H72        19.4126  -30.3068  -42.4075 H         1 UNK         0.1412 
     73 H73        15.2271  -29.9972  -41.5866 H         1 UNK         0.1426 
     74 H74        17.5717  -31.3470  -40.0575 H         1 UNK         0.0716 
     75 H75        16.7799  -29.8151  -39.7817 H         1 UNK         0.0716 
     76 H76        18.0746  -27.7081  -40.7727 H         1 UNK         0.0695 
     77 H77        18.9573  -27.1973  -39.3701 H         1 UNK         0.0695 
     78 H78        20.5805  -28.3173  -41.6835 H         1 UNK         0.0983 
     79 H79        18.8138  -26.1825  -42.2071 H         1 UNK         0.3095 
     80 H80        19.5518  -24.3141  -43.7750 H         1 UNK         0.0454 
     81 H81        21.6793  -24.3297  -45.0671 H         1 UNK         0.0851 
     82 H82        20.3045  -24.0821  -46.1297 H         1 UNK         0.0851 
     83 H83        21.0920  -25.6581  -46.0579 H         1 UNK         0.0851 
     84 H84        18.6854  -26.1182  -45.8673 H         1 UNK         0.2976 
     85 H85        20.9603  -25.0000  -40.9603 H         1 UNK         0.3116 
     86 H86        22.7609  -24.9826  -38.7972 H         1 UNK         0.0646 
     87 H87        22.5784  -23.1130  -41.2251 H         1 UNK         0.0847 
     88 H88        21.6847  -22.9389  -39.7130 H         1 UNK         0.0847 
     89 H89        23.4290  -22.7557  -39.7293 H         1 UNK         0.0847 
     90 H90        23.2960  -26.1517  -42.0379 H         1 UNK         0.3040 
     91 H91        26.2111  -26.0887  -41.9829 H         1 UNK         0.1015 
     92 H92        25.9655  -27.4733  -44.0312 H         1 UNK         0.0786 
     93 H93        24.9310  -26.0570  -44.1240 H         1 UNK         0.0786 
     94 H94        24.2369  -27.6332  -43.7490 H         1 UNK         0.0786 
     95 H95        25.7015  -26.9428  -39.6085 H         1 UNK         0.3172 
     96 H96        26.0693  -28.4293  -38.0040 H         1 UNK         0.0595 
     97 H97        27.7448  -29.8998  -40.1082 H         1 UNK         0.0839 
     98 H98        27.9401  -30.0083  -38.3646 H         1 UNK         0.0839 
     99 H99        28.2847  -28.4975  -39.1851 H         1 UNK         0.0839 
    100 H100       23.6702  -29.0262  -39.7071 H         1 UNK         0.2998 
    101 H101       22.1279  -30.5159  -40.1937 H         1 UNK         0.0822 
    102 H102       21.4967  -32.1470  -38.4516 H         1 UNK         0.0787 
    103 H103       21.9664  -30.6310  -37.7048 H         1 UNK         0.0787 
    104 H104       23.0750  -32.0040  -37.6882 H         1 UNK         0.0787 
    105 H105       24.6085  -30.8876  -41.5855 H         1 UNK         0.3055 
    106 H106       25.3154  -33.6561  -41.7388 H         1 UNK         0.1106 
    107 H107       26.8827  -31.7824  -42.2385 H         1 UNK         0.0828 
    108 H108       26.7616  -32.8713  -43.6104 H         1 UNK         0.0828 
    109 H109       25.9183  -31.3282  -43.6420 H         1 UNK         0.0828 
    110 H110       22.5889  -32.1591  -42.9887 H         1 UNK         0.2931 
    111 H111       22.2237  -33.1901  -45.5483 H         1 UNK         0.0412 
    112 H112       20.9666  -36.5095  -45.4693 H         1 UNK         0.3472 
    113 H113       21.3454  -35.1101  -46.4394 H         1 UNK         0.3472 
    114 H114       19.7925  -32.7752  -45.1473 H         1 UNK         0.0970 
    115 H115       20.0794  -32.6092  -43.4334 H         1 UNK         0.0970 
    116 H116       18.9586  -30.6554  -46.0759 H         1 UNK         0.0612 
    117 H117       19.3739  -29.0548  -45.5131 H         1 UNK         0.0612 
@<TRIPOS>BOND
     1    1    2 1    
     2    1   62 1    
     3    1   63 1    
     4    1   64 1    
     5    2    3 2    
     6    2    4 am   BACKBONE|DICT|INTERRES
     7    4    5 1    
     8    4   65 1    
     9    5    6 1    
    10    5   25 1    
    11    5   66 1    
    12    6    7 1    
    13    6   67 1    
    14    6   68 1    
    15    7    8 1    
    16    8    9 1    
    17    8   69 1    
    18    8   70 1    
    19    9   10 ar   
    20    9   14 ar   
    21   10   11 ar   
    22   10   71 1    
    23   11   12 ar   
    24   11   61 1    
    25   12   13 ar   
    26   12   72 1    
    27   13   14 ar   
    28   13   15 1    
    29   14   73 1    
    30   15   16 1    
    31   15   74 1    
    32   15   75 1    
    33   16   17 1    
    34   17   18 1    
    35   17   76 1    
    36   17   77 1    
    37   18   19 1    
    38   18   27 1    
    39   18   78 1    
    40   19   20 am   BACKBONE|DICT|INTERRES
    41   19   79 1    
    42   20   21 2    
    43   20   22 1    
    44   22   23 1    
    45   22   24 1    
    46   22   80 1    
    47   23   81 1    
    48   23   82 1    
    49   23   83 1    
    50   24   25 am   BACKBONE|DICT|INTERRES
    51   24   84 1    
    52   25   26 2    
    53   27   28 2    
    54   27   29 am   BACKBONE|DICT|INTERRES
    55   29   30 1    
    56   29   85 1    
    57   30   31 1    
    58   30   32 1    
    59   30   86 1    
    60   31   87 1    
    61   31   88 1    
    62   31   89 1    
    63   32   33 2    
    64   32   34 am   BACKBONE|DICT|INTERRES
    65   34   35 1    
    66   34   90 1    
    67   35   36 1    
    68   35   37 1    
    69   35   91 1    
    70   36   92 1    
    71   36   93 1    
    72   36   94 1    
    73   37   38 2    
    74   37   39 am   BACKBONE|DICT|INTERRES
    75   39   40 1    
    76   39   95 1    
    77   40   41 1    
    78   40   42 1    
    79   40   96 1    
    80   41   97 1    
    81   41   98 1    
    82   41   99 1    
    83   42   43 2    
    84   42   44 am   BACKBONE|DICT|INTERRES
    85   44   45 1    
    86   44  100 1    
    87   45   46 1    
    88   45   47 1    
    89   45  101 1    
    90   46  102 1    
    91   46  103 1    
    92   46  104 1    
    93   47   48 2    
    94   47   49 am   BACKBONE|DICT|INTERRES
    95   49   50 1    
    96   49  105 1    
    97   50   51 1    
    98   50   52 1    
    99   50  106 1    
   100   51  107 1    
   101   51  108 1    
   102   51  109 1    
   103   52   53 2    
   104   52   54 am   BACKBONE|DICT|INTERRES
   105   54   55 1    
   106   54  110 1    
   107   55   56 1    
   108   55   59 1    
   109   55  111 1    
   110   56   57 am   BACKBONE|DICT|INTERRES
   111   56   58 2    
   112   57  112 1    
   113   57  113 1    
   114   59   60 1    
   115   59  114 1    
   116   59  115 1    
   117   60   61 1    
   118   61  116 1    
   119   61  117 1    
@<TRIPOS>SUBSTRUCTURE
     1 UNK         1 GROUP             0       ****    0 ROOT    
