@<TRIPOS>MOLECULE
3R8
117   119    1
SMALL
USER_CHARGES


@<TRIPOS>ATOM
      1 CA         18.0534  -22.8400  -40.7631 C.3       0 UNK        -0.2013 
      2 C          18.0088  -23.2214  -42.2354 C.2       0 UNK         0.4866 
      3 O          17.8968  -22.3443  -43.0927 O.2       0 UNK        -0.5176 
      4 N          18.0840  -24.5252  -42.5305 N.am      1 UNK        -0.4884 
      5 CA         18.1096  -25.0951  -43.8828 C.3       1 UNK         0.0853 
      6 C6         18.0547  -26.6429  -43.8482 C.3       10 UNK        -0.0849 
      7 S7         16.5445  -27.2868  -43.0531 S.3       10 UNK        -0.2776 
      8 C8         16.0261  -28.5771  -44.2339 C.3       10 UNK         0.0316 
      9 C9         17.0600  -29.6905  -44.3454 C.ar      10 UNK        -0.0863 
     10 C10        17.2137  -30.6098  -43.3040 C.ar      10 UNK        -0.1009 
     11 C11        18.1714  -31.6240  -43.3888 C.ar      10 UNK        -0.0712 
     12 C12        18.9846  -31.7110  -44.5226 C.ar      10 UNK        -0.0894 
     13 C13        18.8418  -30.7998  -45.5739 C.ar      10 UNK        -0.0745 
     14 C14        17.8650  -29.8011  -45.4844 C.ar      10 UNK        -0.0972 
     15 C15        19.7297  -30.9240  -46.8094 C.3       10 UNK         0.0209 
     16 S16        20.4659  -29.3446  -47.3499 S.3       10 UNK        -0.2568 
     17 C17        21.5324  -28.9208  -45.9298 C.3       10 UNK        -0.0983 
     18 CA         22.2305  -27.5438  -46.1027 C.3       3 UNK         0.0876 
     19 N          21.2483  -26.4857  -46.3661 N.am      3 UNK        -0.4424 
     20 C          21.4681  -25.3062  -46.9594 C.2       2 UNK         0.4918 
     21 O          22.5522  -24.9749  -47.4373 O.2       2 UNK        -0.4875 
     22 CA         20.2958  -24.3029  -46.9715 C.3       2 UNK         0.0481 
     23 CB         19.6914  -24.2087  -48.3815 C.3       2 UNK        -0.1831 
     24 N          19.2247  -24.6000  -46.0078 N.am      2 UNK        -0.4498 
     25 C          19.3597  -24.6559  -44.6732 C.2       1 UNK         0.5027 
     26 O          20.4288  -24.4734  -44.0826 O.2       1 UNK        -0.4969 
     27 C          23.1542  -27.2227  -44.8967 C.2       3 UNK         0.5005 
     28 O          23.8187  -28.1309  -44.3974 O.2       3 UNK        -0.5279 
     29 N          23.1793  -25.9553  -44.4494 N.am      4 UNK        -0.4463 
     30 CA         23.8633  -25.4125  -43.2697 C.3       4 UNK         0.0283 
     31 CB         25.3900  -25.6375  -43.3292 C.3       4 UNK        -0.1875 
     32 C          23.2149  -25.9044  -41.9641 C.2       4 UNK         0.4949 
     33 O          23.9166  -26.3174  -41.0395 O.2       4 UNK        -0.5039 
     34 N          21.8750  -25.8367  -41.9250 N.am      5 UNK        -0.4663 
     35 CA         20.9955  -26.3009  -40.8470 C.3       5 UNK         0.0242 
     36 CB         21.1238  -25.3835  -39.6094 C.3       5 UNK        -0.1982 
     37 C          21.1829  -27.8041  -40.5569 C.2       5 UNK         0.5017 
     38 O          21.2741  -28.5907  -41.5014 O.2       5 UNK        -0.5012 
     39 N          21.2347  -28.1859  -39.2738 N.am      6 UNK        -0.4439 
     40 CA         21.4105  -29.5610  -38.7994 C.3       6 UNK         0.0297 
     41 CB         20.8365  -29.6764  -37.3747 C.3       6 UNK        -0.2006 
     42 C          22.8765  -30.0325  -38.8925 C.2       6 UNK         0.4892 
     43 O          23.4582  -30.4332  -37.8829 O.2       6 UNK        -0.5089 
     44 N          23.4563  -29.9548  -40.0971 N.am      7 UNK        -0.4243 
     45 CA         24.8542  -30.2918  -40.3771 C.3       7 UNK         0.0196 
     46 CB         25.2424  -29.7547  -41.7631 C.3       7 UNK        -0.2007 
     47 C          25.1488  -31.7969  -40.2814 C.2       7 UNK         0.5020 
     48 O          26.1901  -32.1758  -39.7444 O.2       7 UNK        -0.5147 
     49 N          24.2359  -32.6240  -40.8054 N.am      8 UNK        -0.4734 
     50 CA         24.3599  -34.0856  -40.8418 C.3       8 UNK         0.0238 
     51 CB         25.2100  -34.5082  -42.0587 C.3       8 UNK        -0.1912 
     52 C          22.9853  -34.7771  -40.8141 C.2       8 UNK         0.5038 
     53 O          22.8603  -35.9025  -41.3009 O.2       8 UNK        -0.5046 
     54 N          21.9727  -34.0901  -40.2711 N.am      9 UNK        -0.4200 
     55 CA         20.5911  -34.5792  -40.1602 C.3       9 UNK         0.0839 
     56 C          20.4473  -35.7069  -39.1030 C.2       9 UNK         0.5513 
     57 N          19.5448  -36.6528  -39.3250 N.am      9 UNK        -0.7519 
     58 O          21.1131  -35.7077  -38.0691 O.2       9 UNK        -0.4960 
     59 C59        19.5990  -33.4243  -39.8714 C.3       10 UNK        -0.0876 
     60 S60        19.6695  -32.1136  -41.1380 S.3       10 UNK        -0.2414 
     61 C61        18.3319  -32.6222  -42.2540 C.3       10 UNK         0.0169 
     62 H62        18.9100  -22.1950  -40.5699 H         1 UNK         0.0903 
     63 H63        18.1352  -23.7134  -40.1165 H         1 UNK         0.0903 
     64 H64        17.1492  -22.2979  -40.4878 H         1 UNK         0.0903 
     65 H65        18.1206  -25.1987  -41.7805 H         1 UNK         0.3096 
     66 H66        17.2281  -24.7213  -44.4086 H         1 UNK         0.1121 
     67 H67        18.9183  -27.0575  -43.3237 H         1 UNK         0.0849 
     68 H68        18.1052  -27.0382  -44.8637 H         1 UNK         0.0849 
     69 H69        15.0759  -28.9990  -43.9029 H         1 UNK         0.0865 
     70 H70        15.8332  -28.1234  -45.2074 H         1 UNK         0.0865 
     71 H71        16.5936  -30.5274  -42.4216 H         1 UNK         0.1346 
     72 H72        19.7308  -32.4917  -44.5818 H         1 UNK         0.1412 
     73 H73        17.7432  -29.1009  -46.2994 H         1 UNK         0.1426 
     74 H74        20.5357  -31.6392  -46.6375 H         1 UNK         0.0716 
     75 H75        19.1306  -31.3265  -47.6271 H         1 UNK         0.0716 
     76 H76        22.2701  -29.7177  -45.8182 H         1 UNK         0.0695 
     77 H77        20.9287  -28.9294  -45.0197 H         1 UNK         0.0695 
     78 H78        22.8869  -27.6116  -46.9729 H         1 UNK         0.0983 
     79 H79        20.3167  -26.6723  -46.0308 H         1 UNK         0.3095 
     80 H80        20.7072  -23.3258  -46.7106 H         1 UNK         0.0454 
     81 H81        18.9244  -23.4360  -48.4357 H         1 UNK         0.0851 
     82 H82        19.2425  -25.1527  -48.6930 H         1 UNK         0.0851 
     83 H83        20.4548  -23.9537  -49.1180 H         1 UNK         0.0851 
     84 H84        18.3134  -24.7770  -46.4072 H         1 UNK         0.2976 
     85 H85        22.5756  -25.2982  -44.9252 H         1 UNK         0.3116 
     86 H86        23.6969  -24.3346  -43.2982 H         1 UNK         0.0646 
     87 H87        25.8099  -25.2681  -44.2645 H         1 UNK         0.0847 
     88 H88        25.8908  -25.1085  -42.5176 H         1 UNK         0.0847 
     89 H89        25.6541  -26.6908  -43.2350 H         1 UNK         0.0847 
     90 H90        21.4020  -25.4557  -42.7405 H         1 UNK         0.3040 
     91 H91        19.9781  -26.2042  -41.2232 H         1 UNK         0.1015 
     92 H92        22.1037  -25.4665  -39.1375 H         1 UNK         0.0786 
     93 H93        20.3675  -25.6155  -38.8586 H         1 UNK         0.0786 
     94 H94        20.9813  -24.3383  -39.8845 H         1 UNK         0.0786 
     95 H95        21.2003  -27.4679  -38.5647 H         1 UNK         0.3172 
     96 H96        20.8237  -30.2198  -39.4369 H         1 UNK         0.0595 
     97 H97        19.7833  -29.3961  -37.3468 H         1 UNK         0.0839 
     98 H98        21.3733  -29.0415  -36.6688 H         1 UNK         0.0839 
     99 H99        20.9044  -30.7017  -37.0084 H         1 UNK         0.0839 
    100 H100       22.9017  -29.5799  -40.8614 H         1 UNK         0.2998 
    101 H101       25.4746  -29.7863  -39.6337 H         1 UNK         0.0822 
    102 H102       26.2854  -29.9770  -41.9927 H         1 UNK         0.0787 
    103 H103       24.6321  -30.1919  -42.5545 H         1 UNK         0.0787 
    104 H104       25.1237  -28.6726  -41.8141 H         1 UNK         0.0787 
    105 H105       23.4193  -32.2269  -41.2505 H         1 UNK         0.3055 
    106 H106       24.8721  -34.4191  -39.9360 H         1 UNK         0.1106 
    107 H107       26.1991  -34.0503  -42.0331 H         1 UNK         0.0828 
    108 H108       25.3609  -35.5882  -42.0807 H         1 UNK         0.0828 
    109 H109       24.7331  -34.2242  -42.9975 H         1 UNK         0.0828 
    110 H110       22.1653  -33.1999  -39.8392 H         1 UNK         0.2931 
    111 H111       20.3246  -35.0038  -41.1309 H         1 UNK         0.0412 
    112 H112       18.9890  -36.6575  -40.1667 H         1 UNK         0.3472 
    113 H113       19.4250  -37.3862  -38.6431 H         1 UNK         0.3472 
    114 H114       18.5764  -33.8006  -39.8040 H         1 UNK         0.0970 
    115 H115       19.8146  -32.9702  -38.9022 H         1 UNK         0.0970 
    116 H116       18.5500  -33.6132  -42.6548 H         1 UNK         0.0612 
    117 H117       17.4007  -32.7091  -41.6921 H         1 UNK         0.0612 
@<TRIPOS>BOND
     1    1    2 1    
     2    1   62 1    
     3    1   63 1    
     4    1   64 1    
     5    2    3 2    
     6    2    4 am   BACKBONE|DICT|INTERRES
     7    4    5 1    
     8    4   65 1    
     9    5    6 1    
    10    5   25 1    
    11    5   66 1    
    12    6    7 1    
    13    6   67 1    
    14    6   68 1    
    15    7    8 1    
    16    8    9 1    
    17    8   69 1    
    18    8   70 1    
    19    9   10 ar   
    20    9   14 ar   
    21   10   11 ar   
    22   10   71 1    
    23   11   12 ar   
    24   11   61 1    
    25   12   13 ar   
    26   12   72 1    
    27   13   14 ar   
    28   13   15 1    
    29   14   73 1    
    30   15   16 1    
    31   15   74 1    
    32   15   75 1    
    33   16   17 1    
    34   17   18 1    
    35   17   76 1    
    36   17   77 1    
    37   18   19 1    
    38   18   27 1    
    39   18   78 1    
    40   19   20 am   BACKBONE|DICT|INTERRES
    41   19   79 1    
    42   20   21 2    
    43   20   22 1    
    44   22   23 1    
    45   22   24 1    
    46   22   80 1    
    47   23   81 1    
    48   23   82 1    
    49   23   83 1    
    50   24   25 am   BACKBONE|DICT|INTERRES
    51   24   84 1    
    52   25   26 2    
    53   27   28 2    
    54   27   29 am   BACKBONE|DICT|INTERRES
    55   29   30 1    
    56   29   85 1    
    57   30   31 1    
    58   30   32 1    
    59   30   86 1    
    60   31   87 1    
    61   31   88 1    
    62   31   89 1    
    63   32   33 2    
    64   32   34 am   BACKBONE|DICT|INTERRES
    65   34   35 1    
    66   34   90 1    
    67   35   36 1    
    68   35   37 1    
    69   35   91 1    
    70   36   92 1    
    71   36   93 1    
    72   36   94 1    
    73   37   38 2    
    74   37   39 am   BACKBONE|DICT|INTERRES
    75   39   40 1    
    76   39   95 1    
    77   40   41 1    
    78   40   42 1    
    79   40   96 1    
    80   41   97 1    
    81   41   98 1    
    82   41   99 1    
    83   42   43 2    
    84   42   44 am   BACKBONE|DICT|INTERRES
    85   44   45 1    
    86   44  100 1    
    87   45   46 1    
    88   45   47 1    
    89   45  101 1    
    90   46  102 1    
    91   46  103 1    
    92   46  104 1    
    93   47   48 2    
    94   47   49 am   BACKBONE|DICT|INTERRES
    95   49   50 1    
    96   49  105 1    
    97   50   51 1    
    98   50   52 1    
    99   50  106 1    
   100   51  107 1    
   101   51  108 1    
   102   51  109 1    
   103   52   53 2    
   104   52   54 am   BACKBONE|DICT|INTERRES
   105   54   55 1    
   106   54  110 1    
   107   55   56 1    
   108   55   59 1    
   109   55  111 1    
   110   56   57 am   BACKBONE|DICT|INTERRES
   111   56   58 2    
   112   57  112 1    
   113   57  113 1    
   114   59   60 1    
   115   59  114 1    
   116   59  115 1    
   117   60   61 1    
   118   61  116 1    
   119   61  117 1    
@<TRIPOS>SUBSTRUCTURE
     1 UNK         1 GROUP             0       ****    0 ROOT    
