@<TRIPOS>MOLECULE
3R8
117   119    1
SMALL
USER_CHARGES


@<TRIPOS>ATOM
      1 CA         12.9446  -24.1213  -43.8436 C.3       0 UNK        -0.2013 
      2 C          14.1411  -24.5109  -44.6989 C.2       0 UNK         0.4866 
      3 O          14.3412  -23.9368  -45.7701 O.2       0 UNK        -0.5176 
      4 N          14.9322  -25.4884  -44.2401 N.am      1 UNK        -0.4884 
      5 CA         16.1511  -25.9627  -44.9051 C.3       1 UNK         0.0853 
      6 C6         16.6417  -27.3076  -44.3158 C.3       10 UNK        -0.0849 
      7 S7         15.4139  -28.6447  -44.5119 S.3       10 UNK        -0.2776 
      8 C8         16.1838  -29.6897  -45.7934 C.3       10 UNK         0.0316 
      9 C9         17.4808  -30.3290  -45.3137 C.ar      10 UNK        -0.0863 
     10 C10        17.4651  -31.2408  -44.2544 C.ar      10 UNK        -0.1009 
     11 C11        18.6512  -31.8219  -43.7987 C.ar      10 UNK        -0.0712 
     12 C12        19.8623  -31.4865  -44.4120 C.ar      10 UNK        -0.0894 
     13 C13        19.8928  -30.5814  -45.4785 C.ar      10 UNK        -0.0745 
     14 C14        18.6958  -30.0143  -45.9304 C.ar      10 UNK        -0.0972 
     15 C15        21.2191  -30.2349  -46.1491 C.3       10 UNK         0.0209 
     16 S16        21.5198  -28.4396  -46.2697 S.3       10 UNK        -0.2568 
     17 C17        21.5628  -27.9699  -44.5092 C.3       10 UNK        -0.0983 
     18 CA         21.6161  -26.4372  -44.2918 C.3       3 UNK         0.0876 
     19 N          20.5254  -25.7449  -44.9814 N.am      3 UNK        -0.4424 
     20 C          20.4587  -24.4240  -45.1923 C.2       2 UNK         0.4918 
     21 O          21.3279  -23.6284  -44.8340 O.2       2 UNK        -0.4875 
     22 CA         19.2303  -23.8973  -45.9584 C.3       2 UNK         0.0481 
     23 CB         19.5881  -23.6563  -47.4340 C.3       2 UNK        -0.1831 
     24 N          18.0718  -24.7940  -45.8855 N.am      2 UNK        -0.4498 
     25 C          17.2725  -24.9075  -44.8156 C.2       1 UNK         0.5027 
     26 O          17.4123  -24.2487  -43.7817 O.2       1 UNK        -0.4969 
     27 C          21.5993  -26.1200  -42.7836 C.2       3 UNK         0.5005 
     28 O          20.5244  -26.0768  -42.1791 O.2       3 UNK        -0.5279 
     29 N          22.7878  -25.9510  -42.1977 N.am      4 UNK        -0.4463 
     30 CA         23.0100  -25.7548  -40.7694 C.3       4 UNK         0.0283 
     31 CB         22.7981  -24.2782  -40.3905 C.3       4 UNK        -0.1875 
     32 C          24.4387  -26.2044  -40.4569 C.2       4 UNK         0.4949 
     33 O          25.3161  -26.0520  -41.3118 O.2       4 UNK        -0.5039 
     34 N          24.6412  -26.7486  -39.2490 N.am      5 UNK        -0.4663 
     35 CA         25.8810  -27.3185  -38.6956 C.3       5 UNK         0.0242 
     36 CB         26.9899  -26.2541  -38.5666 C.3       5 UNK        -0.1982 
     37 C          26.3756  -28.5679  -39.4475 C.2       5 UNK         0.5017 
     38 O          26.4406  -29.6466  -38.8576 O.2       5 UNK        -0.5012 
     39 N          26.6824  -28.4083  -40.7385 N.am      6 UNK        -0.4439 
     40 CA         27.0412  -29.4697  -41.6744 C.3       6 UNK         0.0297 
     41 CB         28.0466  -28.9108  -42.6983 C.3       6 UNK        -0.2006 
     42 C          25.7637  -30.0155  -42.3338 C.2       6 UNK         0.4892 
     43 O          25.5310  -29.7851  -43.5218 O.2       6 UNK        -0.5089 
     44 N          24.9419  -30.7018  -41.5344 N.am      7 UNK        -0.4243 
     45 CA         23.6958  -31.3378  -41.9458 C.3       7 UNK         0.0196 
     46 CB         22.5103  -30.4348  -41.5591 C.3       7 UNK        -0.2007 
     47 C          23.6009  -32.6857  -41.2288 C.2       7 UNK         0.5020 
     48 O          23.9363  -32.7627  -40.0447 O.2       7 UNK        -0.5147 
     49 N          23.1055  -33.7143  -41.9296 N.am      8 UNK        -0.4734 
     50 CA         22.9015  -35.0657  -41.3850 C.3       8 UNK         0.0238 
     51 CB         22.5215  -36.0214  -42.5278 C.3       8 UNK        -0.1912 
     52 C          21.8479  -35.1247  -40.2629 C.2       8 UNK         0.5038 
     53 O          21.9326  -35.9908  -39.3918 O.2       8 UNK        -0.5046 
     54 N          20.8937  -34.1896  -40.3068 N.am      9 UNK        -0.4200 
     55 CA         19.8794  -33.9343  -39.2784 C.3       9 UNK         0.0839 
     56 C          20.3694  -33.0336  -38.1050 C.2       9 UNK         0.5513 
     57 N          21.6089  -32.5547  -38.0907 N.am      9 UNK        -0.7519 
     58 O          19.6116  -32.7797  -37.1722 O.2       9 UNK        -0.4960 
     59 C59        18.5559  -33.4279  -39.9147 C.3       10 UNK        -0.0876 
     60 S60        18.7622  -31.9995  -41.0403 S.3       10 UNK        -0.2414 
     61 C61        18.6143  -32.8237  -42.6560 C.3       10 UNK         0.0169 
     62 H62        12.0209  -24.2613  -44.4045 H         1 UNK         0.0903 
     63 H63        12.8821  -24.7178  -42.9336 H         1 UNK         0.0903 
     64 H64        13.0142  -23.0723  -43.5572 H         1 UNK         0.0903 
     65 H65        14.7260  -25.9223  -43.3516 H         1 UNK         0.3096 
     66 H66        15.9122  -26.1165  -45.9601 H         1 UNK         0.1121 
     67 H67        17.5814  -27.6103  -44.7801 H         1 UNK         0.0849 
     68 H68        16.8605  -27.2027  -43.2511 H         1 UNK         0.0849 
     69 H69        15.4833  -30.4775  -46.0742 H         1 UNK         0.0865 
     70 H70        16.3477  -29.0930  -46.6920 H         1 UNK         0.0865 
     71 H71        16.5267  -31.4906  -43.7777 H         1 UNK         0.1346 
     72 H72        20.7803  -31.9365  -44.0616 H         1 UNK         0.1412 
     73 H73        18.7164  -29.3182  -46.7579 H         1 UNK         0.1426 
     74 H74        21.2248  -30.6596  -47.1537 H         1 UNK         0.0716 
     75 H75        22.0554  -30.6910  -45.6166 H         1 UNK         0.0716 
     76 H76        22.4386  -28.4457  -44.0652 H         1 UNK         0.0695 
     77 H77        20.6894  -28.3946  -44.0098 H         1 UNK         0.0695 
     78 H78        22.5536  -26.0661  -44.7124 H         1 UNK         0.0983 
     79 H79        19.7703  -26.3265  -45.3072 H         1 UNK         0.3095 
     80 H80        18.9545  -22.9366  -45.5181 H         1 UNK         0.0454 
     81 H81        20.4274  -22.9651  -47.5236 H         1 UNK         0.0851 
     82 H82        18.7522  -23.2183  -47.9796 H         1 UNK         0.0851 
     83 H83        19.8734  -24.5803  -47.9385 H         1 UNK         0.0851 
     84 H84        17.8858  -25.3577  -46.7033 H         1 UNK         0.2976 
     85 H85        23.6430  -26.0293  -42.7362 H         1 UNK         0.3116 
     86 H86        22.3130  -26.3815  -40.2083 H         1 UNK         0.0646 
     87 H87        22.9791  -24.1167  -39.3271 H         1 UNK         0.0847 
     88 H88        21.7772  -23.9566  -40.5970 H         1 UNK         0.0847 
     89 H89        23.4731  -23.6214  -40.9407 H         1 UNK         0.0847 
     90 H90        23.8369  -26.8323  -38.6414 H         1 UNK         0.3040 
     91 H91        25.6325  -27.6468  -37.6846 H         1 UNK         0.1015 
     92 H92        27.8770  -26.6741  -38.0906 H         1 UNK         0.0786 
     93 H93        26.6611  -25.4152  -37.9532 H         1 UNK         0.0786 
     94 H94        27.3006  -25.8573  -39.5334 H         1 UNK         0.0786 
     95 H95        26.4749  -27.4960  -41.1401 H         1 UNK         0.3172 
     96 H96        27.5248  -30.2912  -41.1415 H         1 UNK         0.0595 
     97 H97        27.6317  -28.0715  -43.2584 H         1 UNK         0.0839 
     98 H98        28.3337  -29.6760  -43.4207 H         1 UNK         0.0839 
     99 H99        28.9589  -28.5679  -42.2100 H         1 UNK         0.0839 
    100 H100       25.2144  -30.8728  -40.5727 H         1 UNK         0.2998 
    101 H101       23.6941  -31.5028  -43.0257 H         1 UNK         0.0822 
    102 H102       22.6192  -29.4339  -41.9742 H         1 UNK         0.0787 
    103 H103       22.4185  -30.3306  -40.4769 H         1 UNK         0.0787 
    104 H104       21.5682  -30.8409  -41.9278 H         1 UNK         0.0787 
    105 H105       22.8651  -33.5771  -42.9012 H         1 UNK         0.3055 
    106 H106       23.8481  -35.4010  -40.9547 H         1 UNK         0.1106 
    107 H107       21.5897  -35.7252  -43.0114 H         1 UNK         0.0828 
    108 H108       23.2999  -36.0595  -43.2901 H         1 UNK         0.0828 
    109 H109       22.3861  -37.0384  -42.1567 H         1 UNK         0.0828 
    110 H110       20.9297  -33.5094  -41.0503 H         1 UNK         0.2931 
    111 H111       19.6448  -34.8916  -38.8091 H         1 UNK         0.0412 
    112 H112       22.2701  -32.7677  -38.8275 H         1 UNK         0.3472 
    113 H113       21.8994  -31.9826  -37.3139 H         1 UNK         0.3472 
    114 H114       18.0885  -34.2478  -40.4618 H         1 UNK         0.0970 
    115 H115       17.8316  -33.1586  -39.1436 H         1 UNK         0.0970 
    116 H116       17.6794  -33.3855  -42.6912 H         1 UNK         0.0612 
    117 H117       19.4165  -33.5541  -42.7703 H         1 UNK         0.0612 
@<TRIPOS>BOND
     1    1    2 1    
     2    1   62 1    
     3    1   63 1    
     4    1   64 1    
     5    2    3 2    
     6    2    4 am   BACKBONE|DICT|INTERRES
     7    4    5 1    
     8    4   65 1    
     9    5    6 1    
    10    5   25 1    
    11    5   66 1    
    12    6    7 1    
    13    6   67 1    
    14    6   68 1    
    15    7    8 1    
    16    8    9 1    
    17    8   69 1    
    18    8   70 1    
    19    9   10 ar   
    20    9   14 ar   
    21   10   11 ar   
    22   10   71 1    
    23   11   12 ar   
    24   11   61 1    
    25   12   13 ar   
    26   12   72 1    
    27   13   14 ar   
    28   13   15 1    
    29   14   73 1    
    30   15   16 1    
    31   15   74 1    
    32   15   75 1    
    33   16   17 1    
    34   17   18 1    
    35   17   76 1    
    36   17   77 1    
    37   18   19 1    
    38   18   27 1    
    39   18   78 1    
    40   19   20 am   BACKBONE|DICT|INTERRES
    41   19   79 1    
    42   20   21 2    
    43   20   22 1    
    44   22   23 1    
    45   22   24 1    
    46   22   80 1    
    47   23   81 1    
    48   23   82 1    
    49   23   83 1    
    50   24   25 am   BACKBONE|DICT|INTERRES
    51   24   84 1    
    52   25   26 2    
    53   27   28 2    
    54   27   29 am   BACKBONE|DICT|INTERRES
    55   29   30 1    
    56   29   85 1    
    57   30   31 1    
    58   30   32 1    
    59   30   86 1    
    60   31   87 1    
    61   31   88 1    
    62   31   89 1    
    63   32   33 2    
    64   32   34 am   BACKBONE|DICT|INTERRES
    65   34   35 1    
    66   34   90 1    
    67   35   36 1    
    68   35   37 1    
    69   35   91 1    
    70   36   92 1    
    71   36   93 1    
    72   36   94 1    
    73   37   38 2    
    74   37   39 am   BACKBONE|DICT|INTERRES
    75   39   40 1    
    76   39   95 1    
    77   40   41 1    
    78   40   42 1    
    79   40   96 1    
    80   41   97 1    
    81   41   98 1    
    82   41   99 1    
    83   42   43 2    
    84   42   44 am   BACKBONE|DICT|INTERRES
    85   44   45 1    
    86   44  100 1    
    87   45   46 1    
    88   45   47 1    
    89   45  101 1    
    90   46  102 1    
    91   46  103 1    
    92   46  104 1    
    93   47   48 2    
    94   47   49 am   BACKBONE|DICT|INTERRES
    95   49   50 1    
    96   49  105 1    
    97   50   51 1    
    98   50   52 1    
    99   50  106 1    
   100   51  107 1    
   101   51  108 1    
   102   51  109 1    
   103   52   53 2    
   104   52   54 am   BACKBONE|DICT|INTERRES
   105   54   55 1    
   106   54  110 1    
   107   55   56 1    
   108   55   59 1    
   109   55  111 1    
   110   56   57 am   BACKBONE|DICT|INTERRES
   111   56   58 2    
   112   57  112 1    
   113   57  113 1    
   114   59   60 1    
   115   59  114 1    
   116   59  115 1    
   117   60   61 1    
   118   61  116 1    
   119   61  117 1    
@<TRIPOS>SUBSTRUCTURE
     1 UNK         1 GROUP             0       ****    0 ROOT    
