@<TRIPOS>MOLECULE
3R8
117   119    1
SMALL
USER_CHARGES


@<TRIPOS>ATOM
      1 CA         17.3914  -24.1638  -47.6472 C.3       0 UNK        -0.2013 
      2 C          17.8360  -25.4612  -46.9884 C.2       0 UNK         0.4866 
      3 O          18.5886  -26.2275  -47.5910 O.2       0 UNK        -0.5176 
      4 N          17.3697  -25.7183  -45.7602 N.am      1 UNK        -0.4884 
      5 CA         17.7397  -26.8858  -44.9551 C.3       1 UNK         0.0853 
      6 C6         16.8045  -27.0568  -43.7345 C.3       10 UNK        -0.0849 
      7 S7         15.2145  -27.8426  -44.1571 S.3       10 UNK        -0.2776 
      8 C8         15.6680  -29.6052  -44.3917 C.3       10 UNK         0.0316 
      9 C9         16.5164  -30.2282  -43.2800 C.ar      10 UNK        -0.0863 
     10 C10        17.4710  -31.1999  -43.6083 C.ar      10 UNK        -0.1009 
     11 C11        18.2614  -31.7967  -42.6155 C.ar      10 UNK        -0.0712 
     12 C12        18.0982  -31.3903  -41.2897 C.ar      10 UNK        -0.0894 
     13 C13        17.1536  -30.4228  -40.9435 C.ar      10 UNK        -0.0745 
     14 C14        16.3465  -29.8669  -41.9377 C.ar      10 UNK        -0.0972 
     15 C15        16.9949  -29.9969  -39.4915 C.3       10 UNK         0.0209 
     16 S16        18.5503  -29.3683  -38.7803 S.3       10 UNK        -0.2568 
     17 C17        18.7286  -27.7410  -39.5810 C.3       10 UNK        -0.0983 
     18 CA         20.1574  -27.5376  -40.1614 C.3       3 UNK         0.0876 
     19 N          20.2278  -27.8716  -41.5945 N.am      3 UNK        -0.4424 
     20 C          21.3428  -27.8755  -42.3430 C.2       2 UNK         0.4918 
     21 O          22.4671  -27.6825  -41.8798 O.2       2 UNK        -0.4875 
     22 CA         21.2107  -28.1249  -43.8534 C.3       2 UNK         0.0481 
     23 CB         21.7430  -29.5209  -44.1993 C.3       2 UNK        -0.1831 
     24 N          19.8466  -27.9723  -44.3651 N.am      2 UNK        -0.4498 
     25 C          19.1991  -26.8024  -44.4695 C.2       1 UNK         0.5027 
     26 O          19.6768  -25.7192  -44.1215 O.2       1 UNK        -0.4969 
     27 C          20.6882  -26.1218  -39.8354 C.2       3 UNK         0.5005 
     28 O          21.1308  -25.8926  -38.7092 O.2       3 UNK        -0.5279 
     29 N          20.6746  -25.2113  -40.8208 N.am      4 UNK        -0.4463 
     30 CA         21.2900  -23.8852  -40.7359 C.3       4 UNK         0.0283 
     31 CB         20.7740  -23.0253  -41.9014 C.3       4 UNK        -0.1875 
     32 C          22.8329  -23.9165  -40.7369 C.2       4 UNK         0.4949 
     33 O          23.4434  -22.9244  -40.3381 O.2       4 UNK        -0.5039 
     34 N          23.4330  -25.0245  -41.1955 N.am      5 UNK        -0.4663 
     35 CA         24.8774  -25.2114  -41.3170 C.3       5 UNK         0.0242 
     36 CB         25.2224  -25.5919  -42.7690 C.3       5 UNK        -0.1982 
     37 C          25.3898  -26.2657  -40.3254 C.2       5 UNK         0.5017 
     38 O          26.1966  -25.9262  -39.4588 O.2       5 UNK        -0.5012 
     39 N          24.9445  -27.5217  -40.4803 N.am      6 UNK        -0.4439 
     40 CA         25.4781  -28.6799  -39.7474 C.3       6 UNK         0.0297 
     41 CB         26.8367  -29.0922  -40.3542 C.3       6 UNK        -0.2006 
     42 C          24.5311  -29.8940  -39.6729 C.2       6 UNK         0.4892 
     43 O          24.9178  -30.8970  -39.0724 O.2       6 UNK        -0.5089 
     44 N          23.3374  -29.8144  -40.2833 N.am      7 UNK        -0.4243 
     45 CA         22.3257  -30.8806  -40.3969 C.3       7 UNK         0.0196 
     46 CB         21.7912  -31.3011  -39.0114 C.3       7 UNK        -0.2007 
     47 C          22.7765  -32.0842  -41.2523 C.2       7 UNK         0.5020 
     48 O          22.2334  -33.1788  -41.1025 O.2       7 UNK        -0.5147 
     49 N          23.7326  -31.8611  -42.1627 N.am      8 UNK        -0.4734 
     50 CA         24.2920  -32.8665  -43.0680 C.3       8 UNK         0.0238 
     51 CB         25.8257  -32.7151  -43.0778 C.3       8 UNK        -0.1912 
     52 C          23.6744  -32.7277  -44.4709 C.2       8 UNK         0.5038 
     53 O          24.3864  -32.4206  -45.4291 O.2       8 UNK        -0.5046 
     54 N          22.3521  -32.9176  -44.5609 N.am      9 UNK        -0.4200 
     55 CA         21.5943  -32.9175  -45.8228 C.3       9 UNK         0.0839 
     56 C          21.8143  -34.2098  -46.6597 C.2       9 UNK         0.5513 
     57 N          21.5319  -34.1617  -47.9547 N.am      9 UNK        -0.7519 
     58 O          22.2172  -35.2544  -46.1507 O.2       9 UNK        -0.4960 
     59 C59        20.0896  -32.5889  -45.6066 C.3       10 UNK        -0.0876 
     60 S60        19.2017  -33.7363  -44.4972 S.3       10 UNK        -0.2414 
     61 C61        19.3170  -32.8668  -42.8970 C.3       10 UNK         0.0169 
     62 H62        16.8742  -24.3757  -48.5826 H         1 UNK         0.0903 
     63 H63        16.7175  -23.5921  -47.0094 H         1 UNK         0.0903 
     64 H64        18.2572  -23.5408  -47.8698 H         1 UNK         0.0903 
     65 H65        16.7637  -25.0481  -45.3087 H         1 UNK         0.3096 
     66 H66        17.6596  -27.7657  -45.5969 H         1 UNK         0.1121 
     67 H67        16.5970  -26.0885  -43.2749 H         1 UNK         0.0849 
     68 H68        17.2746  -27.6391  -42.9435 H         1 UNK         0.0849 
     69 H69        14.7496  -30.1859  -44.4866 H         1 UNK         0.0865 
     70 H70        16.1811  -29.6982  -45.3499 H         1 UNK         0.0865 
     71 H71        17.5844  -31.4948  -44.6414 H         1 UNK         0.1346 
     72 H72        18.7118  -31.8307  -40.5152 H         1 UNK         0.1412 
     73 H73        15.5984  -29.1341  -41.6679 H         1 UNK         0.1426 
     74 H74        16.6671  -30.8589  -38.9089 H         1 UNK         0.0716 
     75 H75        16.2181  -29.2384  -39.3826 H         1 UNK         0.0716 
     76 H76        18.4896  -27.0052  -38.8099 H         1 UNK         0.0695 
     77 H77        17.9665  -27.6081  -40.3504 H         1 UNK         0.0695 
     78 H78        20.8457  -28.2129  -39.6489 H         1 UNK         0.0983 
     79 H79        19.3526  -28.0960  -42.0415 H         1 UNK         0.3095 
     80 H80        21.8414  -27.3898  -44.3578 H         1 UNK         0.0454 
     81 H81        21.6790  -29.7189  -45.2691 H         1 UNK         0.0851 
     82 H82        21.1967  -30.3012  -43.6706 H         1 UNK         0.0851 
     83 H83        22.7940  -29.6151  -43.9237 H         1 UNK         0.0851 
     84 H84        19.3771  -28.8184  -44.6542 H         1 UNK         0.2976 
     85 H85        20.2852  -25.4705  -41.7179 H         1 UNK         0.3116 
     86 H86        20.9724  -23.4193  -39.8006 H         1 UNK         0.0646 
     87 H87        19.6883  -22.9310  -41.8766 H         1 UNK         0.0847 
     88 H88        21.0517  -23.4475  -42.8684 H         1 UNK         0.0847 
     89 H89        21.1862  -22.0163  -41.8560 H         1 UNK         0.0847 
     90 H90        22.8582  -25.8165  -41.4593 H         1 UNK         0.3040 
     91 H91        25.4014  -24.2798  -41.0908 H         1 UNK         0.1015 
     92 H92        26.2903  -25.7860  -42.8792 H         1 UNK         0.0786 
     93 H93        24.9696  -24.7833  -43.4549 H         1 UNK         0.0786 
     94 H94        24.6912  -26.4842  -43.1018 H         1 UNK         0.0786 
     95 H95        24.2426  -27.6932  -41.1924 H         1 UNK         0.3172 
     96 H96        25.6438  -28.3791  -38.7108 H         1 UNK         0.0595 
     97 H97        26.7366  -29.3797  -41.4013 H         1 UNK         0.0839 
     98 H98        27.2691  -29.9413  -39.8230 H         1 UNK         0.0839 
     99 H99        27.5647  -28.2830  -40.2978 H         1 UNK         0.0839 
    100 H100       23.0919  -28.9486  -40.7529 H         1 UNK         0.2998 
    101 H101       21.4843  -30.4462  -40.9364 H         1 UNK         0.0822 
    102 H102       21.4936  -30.4357  -38.4198 H         1 UNK         0.0787 
    103 H103       20.9134  -31.9408  -39.1091 H         1 UNK         0.0787 
    104 H104       22.5340  -31.8585  -38.4403 H         1 UNK         0.0787 
    105 H105       24.1108  -30.9287  -42.2405 H         1 UNK         0.3055 
    106 H106       24.0617  -33.8735  -42.7117 H         1 UNK         0.1106 
    107 H107       26.1358  -31.7326  -43.4359 H         1 UNK         0.0828 
    108 H108       26.2880  -33.4605  -43.7264 H         1 UNK         0.0828 
    109 H109       26.2423  -32.8532  -42.0798 H         1 UNK         0.0828 
    110 H110       21.8492  -33.2200  -43.7396 H         1 UNK         0.2931 
    111 H111       21.9981  -32.1009  -46.4253 H         1 UNK         0.0412 
    112 H112       21.6595  -34.9909  -48.5141 H         1 UNK         0.3472 
    113 H113       21.2029  -33.3129  -48.3883 H         1 UNK         0.3472 
    114 H114       19.9840  -31.5749  -45.2250 H         1 UNK         0.0970 
    115 H115       19.5659  -32.5803  -46.5642 H         1 UNK         0.0970 
    116 H116       20.2980  -32.4064  -42.8067 H         1 UNK         0.0612 
    117 H117       19.2649  -33.6267  -42.1156 H         1 UNK         0.0612 
@<TRIPOS>BOND
     1    1    2 1    
     2    1   62 1    
     3    1   63 1    
     4    1   64 1    
     5    2    3 2    
     6    2    4 am   BACKBONE|DICT|INTERRES
     7    4    5 1    
     8    4   65 1    
     9    5    6 1    
    10    5   25 1    
    11    5   66 1    
    12    6    7 1    
    13    6   67 1    
    14    6   68 1    
    15    7    8 1    
    16    8    9 1    
    17    8   69 1    
    18    8   70 1    
    19    9   10 ar   
    20    9   14 ar   
    21   10   11 ar   
    22   10   71 1    
    23   11   12 ar   
    24   11   61 1    
    25   12   13 ar   
    26   12   72 1    
    27   13   14 ar   
    28   13   15 1    
    29   14   73 1    
    30   15   16 1    
    31   15   74 1    
    32   15   75 1    
    33   16   17 1    
    34   17   18 1    
    35   17   76 1    
    36   17   77 1    
    37   18   19 1    
    38   18   27 1    
    39   18   78 1    
    40   19   20 am   BACKBONE|DICT|INTERRES
    41   19   79 1    
    42   20   21 2    
    43   20   22 1    
    44   22   23 1    
    45   22   24 1    
    46   22   80 1    
    47   23   81 1    
    48   23   82 1    
    49   23   83 1    
    50   24   25 am   BACKBONE|DICT|INTERRES
    51   24   84 1    
    52   25   26 2    
    53   27   28 2    
    54   27   29 am   BACKBONE|DICT|INTERRES
    55   29   30 1    
    56   29   85 1    
    57   30   31 1    
    58   30   32 1    
    59   30   86 1    
    60   31   87 1    
    61   31   88 1    
    62   31   89 1    
    63   32   33 2    
    64   32   34 am   BACKBONE|DICT|INTERRES
    65   34   35 1    
    66   34   90 1    
    67   35   36 1    
    68   35   37 1    
    69   35   91 1    
    70   36   92 1    
    71   36   93 1    
    72   36   94 1    
    73   37   38 2    
    74   37   39 am   BACKBONE|DICT|INTERRES
    75   39   40 1    
    76   39   95 1    
    77   40   41 1    
    78   40   42 1    
    79   40   96 1    
    80   41   97 1    
    81   41   98 1    
    82   41   99 1    
    83   42   43 2    
    84   42   44 am   BACKBONE|DICT|INTERRES
    85   44   45 1    
    86   44  100 1    
    87   45   46 1    
    88   45   47 1    
    89   45  101 1    
    90   46  102 1    
    91   46  103 1    
    92   46  104 1    
    93   47   48 2    
    94   47   49 am   BACKBONE|DICT|INTERRES
    95   49   50 1    
    96   49  105 1    
    97   50   51 1    
    98   50   52 1    
    99   50  106 1    
   100   51  107 1    
   101   51  108 1    
   102   51  109 1    
   103   52   53 2    
   104   52   54 am   BACKBONE|DICT|INTERRES
   105   54   55 1    
   106   54  110 1    
   107   55   56 1    
   108   55   59 1    
   109   55  111 1    
   110   56   57 am   BACKBONE|DICT|INTERRES
   111   56   58 2    
   112   57  112 1    
   113   57  113 1    
   114   59   60 1    
   115   59  114 1    
   116   59  115 1    
   117   60   61 1    
   118   61  116 1    
   119   61  117 1    
@<TRIPOS>SUBSTRUCTURE
     1 UNK         1 GROUP             0       ****    0 ROOT    
