@<TRIPOS>MOLECULE
3R8
117   119    1
SMALL
USER_CHARGES


@<TRIPOS>ATOM
      1 CA         20.2463  -26.4540  -48.6536 C.3       0 UNK        -0.2013 
      2 C          19.8245  -26.7464  -47.2220 C.2       0 UNK         0.4866 
      3 O          20.6711  -27.0497  -46.3839 O.2       0 UNK        -0.5176 
      4 N          18.5243  -26.6333  -46.9260 N.am      1 UNK        -0.4884 
      5 CA         17.8774  -26.9232  -45.6345 C.3       1 UNK         0.0853 
      6 C6         16.3608  -27.1862  -45.8474 C.3       10 UNK        -0.0849 
      7 S7         16.0681  -28.8014  -46.6462 S.3       10 UNK        -0.2776 
      8 C8         15.4129  -29.7886  -45.2582 C.3       10 UNK         0.0316 
      9 C9         16.4661  -30.0549  -44.1895 C.ar      10 UNK        -0.0863 
     10 C10        17.2766  -31.1908  -44.2634 C.ar      10 UNK        -0.1009 
     11 C11        18.2290  -31.4485  -43.2728 C.ar      10 UNK        -0.0712 
     12 C12        18.3871  -30.5440  -42.2179 C.ar      10 UNK        -0.0894 
     13 C13        17.5887  -29.3936  -42.1331 C.ar      10 UNK        -0.0745 
     14 C14        16.6180  -29.1756  -43.1136 C.ar      10 UNK        -0.0972 
     15 C15        17.7195  -28.3493  -41.0212 C.3       10 UNK         0.0209 
     16 S16        19.1391  -28.5642  -39.8974 S.3       10 UNK        -0.2568 
     17 C17        19.4451  -26.8499  -39.3580 C.3       10 UNK        -0.0983 
     18 CA         20.4999  -26.1759  -40.2716 C.3       3 UNK         0.0876 
     19 N          19.9083  -25.4867  -41.4243 N.am      3 UNK        -0.4424 
     20 C          20.6101  -25.0411  -42.4754 C.2       2 UNK         0.4918 
     21 O          21.8196  -25.2351  -42.6226 O.2       2 UNK        -0.4875 
     22 CA         19.8286  -24.2962  -43.5637 C.3       2 UNK         0.0481 
     23 CB         20.7043  -23.2533  -44.2814 C.3       2 UNK        -0.1831 
     24 N          19.3529  -25.2671  -44.5435 N.am      2 UNK        -0.4498 
     25 C          18.1537  -25.8592  -44.5382 C.2       1 UNK         0.5027 
     26 O          17.2885  -25.5958  -43.7008 O.2       1 UNK        -0.4969 
     27 C          21.4364  -25.2170  -39.5120 C.2       3 UNK         0.5005 
     28 O          20.9632  -24.2526  -38.9078 O.2       3 UNK        -0.5279 
     29 N          22.7390  -25.4943  -39.6404 N.am      4 UNK        -0.4463 
     30 CA         23.9306  -24.7042  -39.3147 C.3       4 UNK         0.0283 
     31 CB         23.7133  -23.1750  -39.3575 C.3       4 UNK        -0.1875 
     32 C          24.9983  -25.0922  -40.3464 C.2       4 UNK         0.4949 
     33 O          26.1136  -25.4469  -39.9662 O.2       4 UNK        -0.5039 
     34 N          24.6110  -25.0648  -41.6310 N.am      5 UNK        -0.4663 
     35 CA         25.3604  -25.6535  -42.7414 C.3       5 UNK         0.0242 
     36 CB         25.0897  -24.8587  -44.0302 C.3       5 UNK        -0.1982 
     37 C          24.9613  -27.1279  -42.9032 C.2       5 UNK         0.5017 
     38 O          25.8357  -27.9919  -42.9758 O.2       5 UNK        -0.5012 
     39 N          23.6455  -27.3851  -42.9038 N.am      6 UNK        -0.4439 
     40 CA         23.0528  -28.7130  -42.7519 C.3       6 UNK         0.0297 
     41 CB         21.6207  -28.6962  -43.3145 C.3       6 UNK        -0.2006 
     42 C          23.0533  -29.1376  -41.2737 C.2       6 UNK         0.4892 
     43 O          23.2225  -28.2955  -40.3859 O.2       6 UNK        -0.5089 
     44 N          22.8369  -30.4347  -41.0451 N.am      7 UNK        -0.4243 
     45 CA         22.7441  -31.0569  -39.7285 C.3       7 UNK         0.0196 
     46 CB         24.1540  -31.2813  -39.1370 C.3       7 UNK        -0.2007 
     47 C          21.9059  -32.3307  -39.8880 C.2       7 UNK         0.5020 
     48 O          20.7091  -32.2283  -40.1484 O.2       7 UNK        -0.5147 
     49 N          22.5352  -33.5072  -39.7715 N.am      8 UNK        -0.4734 
     50 CA         21.8992  -34.8061  -40.0233 C.3       8 UNK         0.0238 
     51 CB         22.7448  -35.9154  -39.3760 C.3       8 UNK        -0.1912 
     52 C          21.6830  -35.0986  -41.5211 C.2       8 UNK         0.5038 
     53 O          20.8288  -35.9219  -41.8505 O.2       8 UNK        -0.5046 
     54 N          22.4652  -34.4359  -42.3868 N.am      9 UNK        -0.4200 
     55 CA         22.4825  -34.5860  -43.8540 C.3       9 UNK         0.0839 
     56 C          23.0162  -35.9643  -44.3555 C.2       9 UNK         0.5513 
     57 N          23.7145  -36.7415  -43.5359 N.am      9 UNK        -0.7519 
     58 O          22.8257  -36.3255  -45.5142 O.2       9 UNK        -0.4960 
     59 C59        21.1438  -34.1803  -44.5376 C.3       10 UNK        -0.0876 
     60 S60        20.6402  -32.4576  -44.1950 S.3       10 UNK        -0.2414 
     61 C61        19.0624  -32.7210  -43.3301 C.3       10 UNK         0.0169 
     62 H62        20.7329  -27.3280  -49.0856 H         1 UNK         0.0903 
     63 H63        19.3972  -26.1921  -49.2846 H         1 UNK         0.0903 
     64 H64        20.9536  -25.6253  -48.6743 H         1 UNK         0.0903 
     65 H65        17.8880  -26.3590  -47.6612 H         1 UNK         0.3096 
     66 H66        18.3236  -27.8406  -45.2420 H         1 UNK         0.1121 
     67 H67        15.7925  -27.1549  -44.9191 H         1 UNK         0.0849 
     68 H68        15.9225  -26.4033  -46.4686 H         1 UNK         0.0849 
     69 H69        14.5484  -29.2837  -44.8240 H         1 UNK         0.0865 
     70 H70        15.0386  -30.7359  -45.6494 H         1 UNK         0.0865 
     71 H71        17.1582  -31.8821  -45.0868 H         1 UNK         0.1346 
     72 H72        19.1342  -30.7518  -41.4669 H         1 UNK         0.1412 
     73 H73        15.9838  -28.3035  -43.0379 H         1 UNK         0.1426 
     74 H74        16.8051  -28.3435  -40.4264 H         1 UNK         0.0716 
     75 H75        17.7907  -27.3675  -41.4899 H         1 UNK         0.0716 
     76 H76        19.7983  -26.9133  -38.3267 H         1 UNK         0.0695 
     77 H77        18.5145  -26.2809  -39.3207 H         1 UNK         0.0695 
     78 H78        21.1257  -26.9647  -40.6844 H         1 UNK         0.0983 
     79 H79        18.9204  -25.2847  -41.3768 H         1 UNK         0.3095 
     80 H80        18.9901  -23.7715  -43.1012 H         1 UNK         0.0454 
     81 H81        21.5467  -23.7135  -44.7998 H         1 UNK         0.0851 
     82 H82        21.1127  -22.5327  -43.5719 H         1 UNK         0.0851 
     83 H83        20.1273  -22.6931  -45.0170 H         1 UNK         0.0851 
     84 H84        20.0366  -25.6234  -45.2051 H         1 UNK         0.2976 
     85 H85        22.9688  -26.3849  -40.0807 H         1 UNK         0.3116 
     86 H86        24.2768  -24.9963  -38.3220 H         1 UNK         0.0646 
     87 H87        23.2382  -22.8540  -40.2852 H         1 UNK         0.0847 
     88 H88        24.6625  -22.6434  -39.2766 H         1 UNK         0.0847 
     89 H89        23.0955  -22.8353  -38.5267 H         1 UNK         0.0847 
     90 H90        23.6562  -24.7889  -41.8356 H         1 UNK         0.3040 
     91 H91        26.4312  -25.6103  -42.5291 H         1 UNK         0.1015 
     92 H92        24.0324  -24.8590  -44.2980 H         1 UNK         0.0786 
     93 H93        25.6396  -25.2833  -44.8711 H         1 UNK         0.0786 
     94 H94        25.4066  -23.8209  -43.9265 H         1 UNK         0.0786 
     95 H95        23.0037  -26.5985  -42.8372 H         1 UNK         0.3172 
     96 H96        23.6428  -29.4343  -43.3212 H         1 UNK         0.0595 
     97 H97        21.1520  -29.6770  -43.2366 H         1 UNK         0.0839 
     98 H98        21.6176  -28.4259  -44.3694 H         1 UNK         0.0839 
     99 H99        20.9752  -27.9948  -42.7882 H         1 UNK         0.0839 
    100 H100       22.6324  -31.0400  -41.8285 H         1 UNK         0.2998 
    101 H101       22.1858  -30.3963  -39.0611 H         1 UNK         0.0822 
    102 H102       24.1031  -31.7939  -38.1754 H         1 UNK         0.0787 
    103 H103       24.7911  -31.8669  -39.8008 H         1 UNK         0.0787 
    104 H104       24.6571  -30.3304  -38.9600 H         1 UNK         0.0787 
    105 H105       23.5177  -33.5113  -39.5358 H         1 UNK         0.3055 
    106 H106       20.9139  -34.8078  -39.5506 H         1 UNK         0.1106 
    107 H107       22.2871  -36.8942  -39.5282 H         1 UNK         0.0828 
    108 H108       23.7506  -35.9577  -39.7953 H         1 UNK         0.0828 
    109 H109       22.8352  -35.7679  -38.2996 H         1 UNK         0.0828 
    110 H110       23.1512  -33.8019  -42.0073 H         1 UNK         0.2931 
    111 H111       23.2340  -33.8734  -44.1960 H         1 UNK         0.0412 
    112 H112       23.8945  -36.4563  -42.5872 H         1 UNK         0.3472 
    113 H113       24.0644  -37.6249  -43.8731 H         1 UNK         0.3472 
    114 H114       21.2331  -34.2645  -45.6221 H         1 UNK         0.0970 
    115 H115       20.3494  -34.8728  -44.2563 H         1 UNK         0.0970 
    116 H116       19.2616  -33.0902  -42.3231 H         1 UNK         0.0612 
    117 H117       18.4941  -33.5026  -43.8365 H         1 UNK         0.0612 
@<TRIPOS>BOND
     1    1    2 1    
     2    1   62 1    
     3    1   63 1    
     4    1   64 1    
     5    2    3 2    
     6    2    4 am   BACKBONE|DICT|INTERRES
     7    4    5 1    
     8    4   65 1    
     9    5    6 1    
    10    5   25 1    
    11    5   66 1    
    12    6    7 1    
    13    6   67 1    
    14    6   68 1    
    15    7    8 1    
    16    8    9 1    
    17    8   69 1    
    18    8   70 1    
    19    9   10 ar   
    20    9   14 ar   
    21   10   11 ar   
    22   10   71 1    
    23   11   12 ar   
    24   11   61 1    
    25   12   13 ar   
    26   12   72 1    
    27   13   14 ar   
    28   13   15 1    
    29   14   73 1    
    30   15   16 1    
    31   15   74 1    
    32   15   75 1    
    33   16   17 1    
    34   17   18 1    
    35   17   76 1    
    36   17   77 1    
    37   18   19 1    
    38   18   27 1    
    39   18   78 1    
    40   19   20 am   BACKBONE|DICT|INTERRES
    41   19   79 1    
    42   20   21 2    
    43   20   22 1    
    44   22   23 1    
    45   22   24 1    
    46   22   80 1    
    47   23   81 1    
    48   23   82 1    
    49   23   83 1    
    50   24   25 am   BACKBONE|DICT|INTERRES
    51   24   84 1    
    52   25   26 2    
    53   27   28 2    
    54   27   29 am   BACKBONE|DICT|INTERRES
    55   29   30 1    
    56   29   85 1    
    57   30   31 1    
    58   30   32 1    
    59   30   86 1    
    60   31   87 1    
    61   31   88 1    
    62   31   89 1    
    63   32   33 2    
    64   32   34 am   BACKBONE|DICT|INTERRES
    65   34   35 1    
    66   34   90 1    
    67   35   36 1    
    68   35   37 1    
    69   35   91 1    
    70   36   92 1    
    71   36   93 1    
    72   36   94 1    
    73   37   38 2    
    74   37   39 am   BACKBONE|DICT|INTERRES
    75   39   40 1    
    76   39   95 1    
    77   40   41 1    
    78   40   42 1    
    79   40   96 1    
    80   41   97 1    
    81   41   98 1    
    82   41   99 1    
    83   42   43 2    
    84   42   44 am   BACKBONE|DICT|INTERRES
    85   44   45 1    
    86   44  100 1    
    87   45   46 1    
    88   45   47 1    
    89   45  101 1    
    90   46  102 1    
    91   46  103 1    
    92   46  104 1    
    93   47   48 2    
    94   47   49 am   BACKBONE|DICT|INTERRES
    95   49   50 1    
    96   49  105 1    
    97   50   51 1    
    98   50   52 1    
    99   50  106 1    
   100   51  107 1    
   101   51  108 1    
   102   51  109 1    
   103   52   53 2    
   104   52   54 am   BACKBONE|DICT|INTERRES
   105   54   55 1    
   106   54  110 1    
   107   55   56 1    
   108   55   59 1    
   109   55  111 1    
   110   56   57 am   BACKBONE|DICT|INTERRES
   111   56   58 2    
   112   57  112 1    
   113   57  113 1    
   114   59   60 1    
   115   59  114 1    
   116   59  115 1    
   117   60   61 1    
   118   61  116 1    
   119   61  117 1    
@<TRIPOS>SUBSTRUCTURE
     1 UNK         1 GROUP             0       ****    0 ROOT    
