@<TRIPOS>MOLECULE
3R8
117   119    1
SMALL
USER_CHARGES


@<TRIPOS>ATOM
      1 CA         13.6289  -29.7018  -40.4615 C.3       0 UNK        -0.2013 
      2 C          13.7813  -28.6089  -41.5089 C.2       0 UNK         0.4866 
      3 O          12.7916  -27.9736  -41.8752 O.2       0 UNK        -0.5176 
      4 N          15.0074  -28.3824  -41.9895 N.am      1 UNK        -0.4884 
      5 CA         15.3289  -27.3727  -43.0047 C.3       1 UNK         0.0853 
      6 C6         15.0469  -27.8221  -44.4665 C.3       10 UNK        -0.0849 
      7 S7         15.5435  -29.5400  -44.8555 S.3       10 UNK        -0.2776 
      8 C8         16.4170  -29.3759  -46.4504 C.3       10 UNK         0.0316 
      9 C9         17.9340  -29.4703  -46.3211 C.ar      10 UNK        -0.0863 
     10 C10        18.5196  -30.4873  -45.5591 C.ar      10 UNK        -0.1009 
     11 C11        19.9081  -30.6145  -45.4862 C.ar      10 UNK        -0.0712 
     12 C12        20.7184  -29.7346  -46.2065 C.ar      10 UNK        -0.0894 
     13 C13        20.1501  -28.7249  -46.9877 C.ar      10 UNK        -0.0745 
     14 C14        18.7579  -28.5886  -47.0300 C.ar      10 UNK        -0.0972 
     15 C15        21.0378  -27.8204  -47.8312 C.3       10 UNK         0.0209 
     16 S16        21.4396  -26.2545  -46.9977 S.3       10 UNK        -0.2568 
     17 C17        22.6898  -26.7668  -45.7721 C.3       10 UNK        -0.0983 
     18 CA         22.2781  -26.3901  -44.3289 C.3       3 UNK         0.0876 
     19 N          21.1976  -27.2093  -43.7934 N.am      3 UNK        -0.4424 
     20 C          19.9290  -26.8268  -43.6394 C.2       2 UNK         0.4918 
     21 O          19.4259  -25.8471  -44.1916 O.2       2 UNK        -0.4875 
     22 CA         19.1575  -27.6254  -42.5767 C.3       2 UNK         0.0481 
     23 CB         19.4101  -27.0038  -41.1862 C.3       2 UNK        -0.1831 
     24 N          17.7246  -27.7814  -42.8436 N.am      2 UNK        -0.4498 
     25 C          16.7562  -26.8578  -42.7813 C.2       1 UNK         0.5027 
     26 O          16.9275  -25.6723  -42.4926 O.2       1 UNK        -0.4969 
     27 C          23.4394  -26.5971  -43.3451 C.2       3 UNK         0.5005 
     28 O          23.6105  -27.7133  -42.8408 O.2       3 UNK        -0.5279 
     29 N          24.2120  -25.5345  -43.0800 N.am      4 UNK        -0.4463 
     30 CA         25.2533  -25.4771  -42.0425 C.3       4 UNK         0.0283 
     31 CB         25.8225  -24.0506  -41.9767 C.3       4 UNK        -0.1875 
     32 C          26.3949  -26.4994  -42.1936 C.2       4 UNK         0.4949 
     33 O          27.0278  -26.8441  -41.1961 O.2       4 UNK        -0.5039 
     34 N          26.6272  -26.9776  -43.4232 N.am      5 UNK        -0.4663 
     35 CA         27.5878  -28.0389  -43.7349 C.3       5 UNK         0.0242 
     36 CB         27.8177  -28.0732  -45.2548 C.3       5 UNK        -0.1982 
     37 C          27.1562  -29.4284  -43.2265 C.2       5 UNK         0.5017 
     38 O          28.0208  -30.2851  -43.0381 O.2       5 UNK        -0.5012 
     39 N          25.8461  -29.6303  -43.0287 N.am      6 UNK        -0.4439 
     40 CA         25.2511  -30.8754  -42.5427 C.3       6 UNK         0.0297 
     41 CB         24.1140  -31.2917  -43.4870 C.3       6 UNK        -0.2006 
     42 C          24.7454  -30.7211  -41.1010 C.2       6 UNK         0.4892 
     43 O          25.0261  -31.5891  -40.2738 O.2       6 UNK        -0.5089 
     44 N          24.0288  -29.6198  -40.8261 N.am      7 UNK        -0.4243 
     45 CA         23.4984  -29.1405  -39.5399 C.3       7 UNK         0.0196 
     46 CB         24.6445  -28.8004  -38.5691 C.3       7 UNK        -0.2007 
     47 C          22.4468  -30.0345  -38.8518 C.2       7 UNK         0.5020 
     48 O          21.4554  -29.5069  -38.3475 O.2       7 UNK        -0.5147 
     49 N          22.6610  -31.3562  -38.8295 N.am      8 UNK        -0.4734 
     50 CA         21.8157  -32.3555  -38.1578 C.3       8 UNK         0.0238 
     51 CB         22.5082  -33.7258  -38.2282 C.3       8 UNK        -0.1912 
     52 C          20.3816  -32.4492  -38.7114 C.2       8 UNK         0.5038 
     53 O          19.4675  -32.8244  -37.9767 O.2       8 UNK        -0.5046 
     54 N          20.2206  -32.0872  -39.9867 N.am      9 UNK        -0.4200 
     55 CA         18.9499  -31.9114  -40.7030 C.3       9 UNK         0.0839 
     56 C          18.1738  -30.6060  -40.3492 C.2       9 UNK         0.5513 
     57 N          18.6254  -29.7951  -39.4008 N.am      9 UNK        -0.7519 
     58 O          17.1319  -30.3253  -40.9386 O.2       9 UNK        -0.4960 
     59 C59        19.1468  -32.1034  -42.2315 C.3       10 UNK        -0.0876 
     60 S60        20.6068  -31.2292  -42.8977 S.3       10 UNK        -0.2414 
     61 C61        20.5365  -31.7127  -44.6466 C.3       10 UNK         0.0169 
     62 H62        14.5855  -30.1496  -40.1948 H         1 UNK         0.0903 
     63 H63        13.1830  -29.2937  -39.5549 H         1 UNK         0.0903 
     64 H64        12.9785  -30.4915  -40.8365 H         1 UNK         0.0903 
     65 H65        15.7902  -28.9331  -41.6457 H         1 UNK         0.3096 
     66 H66        14.6899  -26.5060  -42.8170 H         1 UNK         0.1121 
     67 H67        13.9732  -27.7587  -44.6502 H         1 UNK         0.0849 
     68 H68        15.5001  -27.1247  -45.1735 H         1 UNK         0.0849 
     69 H69        16.0862  -30.1852  -47.1025 H         1 UNK         0.0865 
     70 H70        16.1206  -28.4524  -46.9495 H         1 UNK         0.0865 
     71 H71        17.8922  -31.1883  -45.0271 H         1 UNK         0.1346 
     72 H72        21.7926  -29.8481  -46.1701 H         1 UNK         0.1412 
     73 H73        18.3183  -27.8125  -47.6418 H         1 UNK         0.1426 
     74 H74        21.9599  -28.3345  -48.1071 H         1 UNK         0.0716 
     75 H75        20.5317  -27.5916  -48.7703 H         1 UNK         0.0716 
     76 H76        22.8924  -27.8351  -45.8519 H         1 UNK         0.0695 
     77 H77        23.6201  -26.2653  -46.0454 H         1 UNK         0.0695 
     78 H78        21.9904  -25.3365  -44.2965 H         1 UNK         0.0983 
     79 H79        21.5356  -28.0101  -43.2749 H         1 UNK         0.3095 
     80 H80        19.5477  -28.6411  -42.5630 H         1 UNK         0.0454 
     81 H81        19.2914  -25.9194  -41.2002 H         1 UNK         0.0851 
     82 H82        18.7237  -27.3890  -40.4362 H         1 UNK         0.0851 
     83 H83        20.4239  -27.2138  -40.8434 H         1 UNK         0.0851 
     84 H84        17.4472  -28.7103  -43.1326 H         1 UNK         0.2976 
     85 H85        24.0160  -24.6656  -43.5575 H         1 UNK         0.3116 
     86 H86        24.7661  -25.6909  -41.0887 H         1 UNK         0.0646 
     87 H87        26.5793  -23.9671  -41.1951 H         1 UNK         0.0847 
     88 H88        25.0457  -23.3208  -41.7481 H         1 UNK         0.0847 
     89 H89        26.2933  -23.7598  -42.9167 H         1 UNK         0.0847 
     90 H90        26.0693  -26.6235  -44.1864 H         1 UNK         0.3040 
     91 H91        28.5354  -27.7956  -43.2486 H         1 UNK         0.1015 
     92 H92        28.1969  -27.1190  -45.6211 H         1 UNK         0.0786 
     93 H93        26.8996  -28.3024  -45.7976 H         1 UNK         0.0786 
     94 H94        28.5521  -28.8348  -45.5212 H         1 UNK         0.0786 
     95 H95        25.2134  -28.8469  -43.1567 H         1 UNK         0.3172 
     96 H96        25.9913  -31.6783  -42.5441 H         1 UNK         0.0595 
     97 H97        23.5971  -32.1772  -43.1144 H         1 UNK         0.0839 
     98 H98        24.4952  -31.5330  -44.4791 H         1 UNK         0.0839 
     99 H99        23.3746  -30.4987  -43.6015 H         1 UNK         0.0839 
    100 H100       23.8419  -28.9881  -41.6033 H         1 UNK         0.2998 
    101 H101       22.9896  -28.2046  -39.7777 H         1 UNK         0.0822 
    102 H102       25.3361  -28.0827  -39.0113 H         1 UNK         0.0787 
    103 H103       24.2592  -28.3565  -37.6502 H         1 UNK         0.0787 
    104 H104       25.2156  -29.6857  -38.2877 H         1 UNK         0.0787 
    105 H105       23.5178  -31.6865  -39.2713 H         1 UNK         0.3055 
    106 H106       21.7332  -32.0639  -37.1085 H         1 UNK         0.1106 
    107 H107       21.9193  -34.4893  -37.7178 H         1 UNK         0.0828 
    108 H108       22.6471  -34.0545  -39.2590 H         1 UNK         0.0828 
    109 H109       23.4875  -33.7006  -37.7497 H         1 UNK         0.0828 
    110 H110       21.0383  -31.7846  -40.4958 H         1 UNK         0.2931 
    111 H111       18.2883  -32.7145  -40.3736 H         1 UNK         0.0412 
    112 H112       18.0938  -28.9735  -39.1673 H         1 UNK         0.3472 
    113 H113       19.5134  -29.9638  -38.9445 H         1 UNK         0.3472 
    114 H114       18.2555  -31.8110  -42.7886 H         1 UNK         0.0970 
    115 H115       19.2814  -33.1667  -42.4356 H         1 UNK         0.0970 
    116 H116       19.9812  -32.6442  -44.7651 H         1 UNK         0.0612 
    117 H117       21.5500  -31.9192  -44.9929 H         1 UNK         0.0612 
@<TRIPOS>BOND
     1    1    2 1    
     2    1   62 1    
     3    1   63 1    
     4    1   64 1    
     5    2    3 2    
     6    2    4 am   BACKBONE|DICT|INTERRES
     7    4    5 1    
     8    4   65 1    
     9    5    6 1    
    10    5   25 1    
    11    5   66 1    
    12    6    7 1    
    13    6   67 1    
    14    6   68 1    
    15    7    8 1    
    16    8    9 1    
    17    8   69 1    
    18    8   70 1    
    19    9   10 ar   
    20    9   14 ar   
    21   10   11 ar   
    22   10   71 1    
    23   11   12 ar   
    24   11   61 1    
    25   12   13 ar   
    26   12   72 1    
    27   13   14 ar   
    28   13   15 1    
    29   14   73 1    
    30   15   16 1    
    31   15   74 1    
    32   15   75 1    
    33   16   17 1    
    34   17   18 1    
    35   17   76 1    
    36   17   77 1    
    37   18   19 1    
    38   18   27 1    
    39   18   78 1    
    40   19   20 am   BACKBONE|DICT|INTERRES
    41   19   79 1    
    42   20   21 2    
    43   20   22 1    
    44   22   23 1    
    45   22   24 1    
    46   22   80 1    
    47   23   81 1    
    48   23   82 1    
    49   23   83 1    
    50   24   25 am   BACKBONE|DICT|INTERRES
    51   24   84 1    
    52   25   26 2    
    53   27   28 2    
    54   27   29 am   BACKBONE|DICT|INTERRES
    55   29   30 1    
    56   29   85 1    
    57   30   31 1    
    58   30   32 1    
    59   30   86 1    
    60   31   87 1    
    61   31   88 1    
    62   31   89 1    
    63   32   33 2    
    64   32   34 am   BACKBONE|DICT|INTERRES
    65   34   35 1    
    66   34   90 1    
    67   35   36 1    
    68   35   37 1    
    69   35   91 1    
    70   36   92 1    
    71   36   93 1    
    72   36   94 1    
    73   37   38 2    
    74   37   39 am   BACKBONE|DICT|INTERRES
    75   39   40 1    
    76   39   95 1    
    77   40   41 1    
    78   40   42 1    
    79   40   96 1    
    80   41   97 1    
    81   41   98 1    
    82   41   99 1    
    83   42   43 2    
    84   42   44 am   BACKBONE|DICT|INTERRES
    85   44   45 1    
    86   44  100 1    
    87   45   46 1    
    88   45   47 1    
    89   45  101 1    
    90   46  102 1    
    91   46  103 1    
    92   46  104 1    
    93   47   48 2    
    94   47   49 am   BACKBONE|DICT|INTERRES
    95   49   50 1    
    96   49  105 1    
    97   50   51 1    
    98   50   52 1    
    99   50  106 1    
   100   51  107 1    
   101   51  108 1    
   102   51  109 1    
   103   52   53 2    
   104   52   54 am   BACKBONE|DICT|INTERRES
   105   54   55 1    
   106   54  110 1    
   107   55   56 1    
   108   55   59 1    
   109   55  111 1    
   110   56   57 am   BACKBONE|DICT|INTERRES
   111   56   58 2    
   112   57  112 1    
   113   57  113 1    
   114   59   60 1    
   115   59  114 1    
   116   59  115 1    
   117   60   61 1    
   118   61  116 1    
   119   61  117 1    
@<TRIPOS>SUBSTRUCTURE
     1 UNK         1 GROUP             0       ****    0 ROOT    
