@<TRIPOS>MOLECULE
3R8
117   119    1
SMALL
USER_CHARGES


@<TRIPOS>ATOM
      1 CA         15.1536  -27.5083  -48.9204 C.3       0 UNK        -0.2013 
      2 C          16.0698  -27.4658  -47.7069 C.2       0 UNK         0.4866 
      3 O          16.0157  -26.5061  -46.9370 O.2       0 UNK        -0.5176 
      4 N          16.9170  -28.4919  -47.5417 N.am      1 UNK        -0.4884 
      5 CA         17.8824  -28.7228  -46.4524 C.3       1 UNK         0.0853 
      6 C6         17.2511  -28.7611  -45.0357 C.3       10 UNK        -0.0849 
      7 S7         16.0327  -30.0931  -44.7910 S.3       10 UNK        -0.2776 
      8 C8         15.2275  -29.5480  -43.2406 C.3       10 UNK         0.0316 
      9 C9         16.2337  -29.1072  -42.1816 C.ar      10 UNK        -0.0863 
     10 C10        17.1779  -30.0129  -41.6899 C.ar      10 UNK        -0.1009 
     11 C11        18.1656  -29.5909  -40.7964 C.ar      10 UNK        -0.0712 
     12 C12        18.1706  -28.2690  -40.3443 C.ar      10 UNK        -0.0894 
     13 C13        17.2310  -27.3540  -40.8251 C.ar      10 UNK        -0.0745 
     14 C14        16.2609  -27.7796  -41.7390 C.ar      10 UNK        -0.0972 
     15 C15        17.2843  -25.8989  -40.3831 C.3       10 UNK         0.0209 
     16 S16        18.0199  -24.8310  -41.6639 S.3       10 UNK        -0.2568 
     17 C17        19.8007  -25.2392  -41.5661 C.3       10 UNK        -0.0983 
     18 CA         20.2400  -26.3438  -42.5672 C.3       3 UNK         0.0876 
     19 N          19.7919  -26.1008  -43.9432 N.am      3 UNK        -0.4424 
     20 C          20.2626  -25.2156  -44.8342 C.2       2 UNK         0.4918 
     21 O          21.1324  -24.3818  -44.5804 O.2       2 UNK        -0.4875 
     22 CA         19.6707  -25.2848  -46.2620 C.3       2 UNK         0.0481 
     23 CB         20.7737  -25.2251  -47.3388 C.3       2 UNK        -0.1831 
     24 N          18.7776  -26.4337  -46.4901 N.am      2 UNK        -0.4498 
     25 C          19.0726  -27.7417  -46.4378 C.2       1 UNK         0.5027 
     26 O          20.2122  -28.1801  -46.2749 O.2       1 UNK        -0.4969 
     27 C          21.7494  -26.6783  -42.4881 C.2       3 UNK         0.5005 
     28 O          22.4174  -26.2697  -41.5359 O.2       3 UNK        -0.5279 
     29 N          22.2508  -27.3978  -43.5089 N.am      4 UNK        -0.4463 
     30 CA         23.6524  -27.7432  -43.7728 C.3       4 UNK         0.0283 
     31 CB         23.7069  -28.7747  -44.9118 C.3       4 UNK        -0.1875 
     32 C          24.4206  -28.2431  -42.5377 C.2       4 UNK         0.4949 
     33 O          24.2033  -29.3710  -42.0880 O.2       4 UNK        -0.5039 
     34 N          25.2624  -27.3569  -41.9845 N.am      5 UNK        -0.4663 
     35 CA         26.0971  -27.5221  -40.7837 C.3       5 UNK         0.0242 
     36 CB         27.2014  -28.5670  -41.0537 C.3       5 UNK        -0.1982 
     37 C          25.3232  -27.8447  -39.4862 C.2       5 UNK         0.5017 
     38 O          25.9561  -28.1892  -38.4872 O.2       5 UNK        -0.5012 
     39 N          23.9824  -27.7722  -39.5291 N.am      6 UNK        -0.4439 
     40 CA         23.0262  -28.2947  -38.5462 C.3       6 UNK         0.0297 
     41 CB         23.0188  -27.4137  -37.2799 C.3       6 UNK        -0.2006 
     42 C          23.2297  -29.7962  -38.2319 C.2       6 UNK         0.4892 
     43 O          22.9408  -30.2238  -37.1123 O.2       6 UNK        -0.5089 
     44 N          23.7400  -30.5657  -39.2064 N.am      7 UNK        -0.4243 
     45 CA         24.1258  -31.9675  -39.0312 C.3       7 UNK         0.0196 
     46 CB         25.4874  -32.0672  -38.3171 C.3       7 UNK        -0.2007 
     47 C          24.1529  -32.7281  -40.3599 C.2       7 UNK         0.5020 
     48 O          23.5778  -33.8135  -40.4411 O.2       7 UNK        -0.5147 
     49 N          24.7942  -32.1544  -41.3894 N.am      8 UNK        -0.4734 
     50 CA         24.8833  -32.7372  -42.7371 C.3       8 UNK         0.0238 
     51 CB         25.9194  -31.9625  -43.5677 C.3       8 UNK        -0.1912 
     52 C          23.5252  -32.7921  -43.4605 C.2       8 UNK         0.5038 
     53 O          23.3333  -33.6384  -44.3341 O.2       8 UNK        -0.5046 
     54 N          22.6047  -31.9157  -43.0461 N.am      9 UNK        -0.4200 
     55 CA         21.1724  -31.9392  -43.3620 C.3       9 UNK         0.0839 
     56 C          20.3881  -33.1717  -42.8184 C.2       9 UNK         0.5513 
     57 N          20.9328  -33.9761  -41.9122 N.am      9 UNK        -0.7519 
     58 O          19.2569  -33.4034  -43.2361 O.2       9 UNK        -0.4960 
     59 C59        20.4962  -30.6088  -42.9424 C.3       10 UNK        -0.0876 
     60 S60        20.8332  -30.1350  -41.2046 S.3       10 UNK        -0.2414 
     61 C61        19.2690  -30.5418  -40.3674 C.3       10 UNK         0.0169 
     62 H62        15.3060  -28.4073  -49.5173 H         1 UNK         0.0903 
     63 H63        14.1115  -27.4854  -48.6026 H         1 UNK         0.0903 
     64 H64        15.3346  -26.6429  -49.5575 H         1 UNK         0.0903 
     65 H65        16.9073  -29.2246  -48.2386 H         1 UNK         0.3096 
     66 H66        18.3112  -29.7081  -46.6455 H         1 UNK         0.1121 
     67 H67        16.7764  -27.8084  -44.7940 H         1 UNK         0.0849 
     68 H68        18.0297  -28.9081  -44.2845 H         1 UNK         0.0849 
     69 H69        14.5345  -28.7381  -43.4738 H         1 UNK         0.0865 
     70 H70        14.6221  -30.3649  -42.8457 H         1 UNK         0.0865 
     71 H71        17.1768  -31.0331  -42.0501 H         1 UNK         0.1346 
     72 H72        18.9394  -27.9428  -39.6569 H         1 UNK         0.1412 
     73 H73        15.5464  -27.0656  -42.1261 H         1 UNK         0.1426 
     74 H74        17.8393  -25.7917  -39.4498 H         1 UNK         0.0716 
     75 H75        16.2716  -25.5501  -40.1756 H         1 UNK         0.0716 
     76 H76        20.0393  -25.5326  -40.5422 H         1 UNK         0.0695 
     77 H77        20.3599  -24.3213  -41.7555 H         1 UNK         0.0695 
     78 H78        19.7447  -27.2668  -42.2698 H         1 UNK         0.0983 
     79 H79        19.0448  -26.6978  -44.2592 H         1 UNK         0.3095 
     80 H80        19.0481  -24.3964  -46.3747 H         1 UNK         0.0454 
     81 H81        21.4851  -26.0453  -47.2395 H         1 UNK         0.0851 
     82 H82        21.3411  -24.2965  -47.2666 H         1 UNK         0.0851 
     83 H83        20.3512  -25.2664  -48.3426 H         1 UNK         0.0851 
     84 H84        17.7905  -26.2085  -46.6136 H         1 UNK         0.2976 
     85 H85        21.6031  -27.6609  -44.2391 H         1 UNK         0.3116 
     86 H86        24.1361  -26.8331  -44.1323 H         1 UNK         0.0646 
     87 H87        23.2515  -28.3865  -45.8232 H         1 UNK         0.0847 
     88 H88        24.7377  -29.0368  -45.1532 H         1 UNK         0.0847 
     89 H89        23.1896  -29.6969  -44.6490 H         1 UNK         0.0847 
     90 H90        25.3065  -26.4388  -42.4062 H         1 UNK         0.3040 
     91 H91        26.5813  -26.5597  -40.6103 H         1 UNK         0.1015 
     92 H92        26.7908  -29.5692  -41.1772 H         1 UNK         0.0786 
     93 H93        27.9152  -28.6088  -40.2299 H         1 UNK         0.0786 
     94 H94        27.7658  -28.3239  -41.9539 H         1 UNK         0.0786 
     95 H95        23.5648  -27.4131  -40.3846 H         1 UNK         0.3172 
     96 H96        22.0430  -28.2137  -39.0117 H         1 UNK         0.0595 
     97 H97        23.9582  -27.4884  -36.7313 H         1 UNK         0.0839 
     98 H98        22.2198  -27.7108  -36.5996 H         1 UNK         0.0839 
     99 H99        22.8569  -26.3648  -37.5281 H         1 UNK         0.0839 
    100 H100       23.8863  -30.1519  -40.1212 H         1 UNK         0.2998 
    101 H101       23.3739  -32.4561  -38.4072 H         1 UNK         0.0822 
    102 H102       25.8060  -33.1062  -38.2221 H         1 UNK         0.0787 
    103 H103       26.2673  -31.5316  -38.8598 H         1 UNK         0.0787 
    104 H104       25.4396  -31.6519  -37.3104 H         1 UNK         0.0787 
    105 H105       25.1920  -31.2318  -41.2775 H         1 UNK         0.3055 
    106 H106       25.2313  -33.7675  -42.6336 H         1 UNK         0.1106 
    107 H107       26.0314  -32.4035  -44.5591 H         1 UNK         0.0828 
    108 H108       25.6326  -30.9209  -43.7076 H         1 UNK         0.0828 
    109 H109       26.9011  -31.9793  -43.0943 H         1 UNK         0.0828 
    110 H110       22.8854  -31.2314  -42.3557 H         1 UNK         0.2931 
    111 H111       21.0998  -32.0054  -44.4491 H         1 UNK         0.0412 
    112 H112       20.4048  -34.7678  -41.5815 H         1 UNK         0.3472 
    113 H113       21.8615  -33.8056  -41.5442 H         1 UNK         0.3472 
    114 H114       20.8699  -29.8076  -43.5788 H         1 UNK         0.0970 
    115 H115       19.4237  -30.6413  -43.1336 H         1 UNK         0.0970 
    116 H116       19.0002  -31.5788  -40.5740 H         1 UNK         0.0612 
    117 H117       19.4155  -30.4680  -39.2889 H         1 UNK         0.0612 
@<TRIPOS>BOND
     1    1    2 1    
     2    1   62 1    
     3    1   63 1    
     4    1   64 1    
     5    2    3 2    
     6    2    4 am   BACKBONE|DICT|INTERRES
     7    4    5 1    
     8    4   65 1    
     9    5    6 1    
    10    5   25 1    
    11    5   66 1    
    12    6    7 1    
    13    6   67 1    
    14    6   68 1    
    15    7    8 1    
    16    8    9 1    
    17    8   69 1    
    18    8   70 1    
    19    9   10 ar   
    20    9   14 ar   
    21   10   11 ar   
    22   10   71 1    
    23   11   12 ar   
    24   11   61 1    
    25   12   13 ar   
    26   12   72 1    
    27   13   14 ar   
    28   13   15 1    
    29   14   73 1    
    30   15   16 1    
    31   15   74 1    
    32   15   75 1    
    33   16   17 1    
    34   17   18 1    
    35   17   76 1    
    36   17   77 1    
    37   18   19 1    
    38   18   27 1    
    39   18   78 1    
    40   19   20 am   BACKBONE|DICT|INTERRES
    41   19   79 1    
    42   20   21 2    
    43   20   22 1    
    44   22   23 1    
    45   22   24 1    
    46   22   80 1    
    47   23   81 1    
    48   23   82 1    
    49   23   83 1    
    50   24   25 am   BACKBONE|DICT|INTERRES
    51   24   84 1    
    52   25   26 2    
    53   27   28 2    
    54   27   29 am   BACKBONE|DICT|INTERRES
    55   29   30 1    
    56   29   85 1    
    57   30   31 1    
    58   30   32 1    
    59   30   86 1    
    60   31   87 1    
    61   31   88 1    
    62   31   89 1    
    63   32   33 2    
    64   32   34 am   BACKBONE|DICT|INTERRES
    65   34   35 1    
    66   34   90 1    
    67   35   36 1    
    68   35   37 1    
    69   35   91 1    
    70   36   92 1    
    71   36   93 1    
    72   36   94 1    
    73   37   38 2    
    74   37   39 am   BACKBONE|DICT|INTERRES
    75   39   40 1    
    76   39   95 1    
    77   40   41 1    
    78   40   42 1    
    79   40   96 1    
    80   41   97 1    
    81   41   98 1    
    82   41   99 1    
    83   42   43 2    
    84   42   44 am   BACKBONE|DICT|INTERRES
    85   44   45 1    
    86   44  100 1    
    87   45   46 1    
    88   45   47 1    
    89   45  101 1    
    90   46  102 1    
    91   46  103 1    
    92   46  104 1    
    93   47   48 2    
    94   47   49 am   BACKBONE|DICT|INTERRES
    95   49   50 1    
    96   49  105 1    
    97   50   51 1    
    98   50   52 1    
    99   50  106 1    
   100   51  107 1    
   101   51  108 1    
   102   51  109 1    
   103   52   53 2    
   104   52   54 am   BACKBONE|DICT|INTERRES
   105   54   55 1    
   106   54  110 1    
   107   55   56 1    
   108   55   59 1    
   109   55  111 1    
   110   56   57 am   BACKBONE|DICT|INTERRES
   111   56   58 2    
   112   57  112 1    
   113   57  113 1    
   114   59   60 1    
   115   59  114 1    
   116   59  115 1    
   117   60   61 1    
   118   61  116 1    
   119   61  117 1    
@<TRIPOS>SUBSTRUCTURE
     1 UNK         1 GROUP             0       ****    0 ROOT    
