@<TRIPOS>MOLECULE
3R8
117   119    1
SMALL
USER_CHARGES


@<TRIPOS>ATOM
      1 CA         19.5342  -25.1734  -40.3224 C.3       0 UNK        -0.2013 
      2 C          18.1994  -25.5388  -40.9538 C.2       0 UNK         0.4866 
      3 O          17.1599  -25.4202  -40.3037 O.2       0 UNK        -0.5176 
      4 N          18.2273  -25.9771  -42.2145 N.am      1 UNK        -0.4884 
      5 CA         17.0688  -26.3593  -43.0198 C.3       1 UNK         0.0853 
      6 C6         17.1237  -27.8831  -43.3195 C.3       10 UNK        -0.0849 
      7 S7         15.4982  -28.6243  -43.7060 S.3       10 UNK        -0.2776 
      8 C8         15.7250  -29.3878  -45.3556 C.3       10 UNK         0.0316 
      9 C9         17.0299  -30.1628  -45.5202 C.ar      10 UNK        -0.0863 
     10 C10        17.4487  -31.0761  -44.5464 C.ar      10 UNK        -0.1009 
     11 C11        18.6475  -31.7783  -44.6960 C.ar      10 UNK        -0.0712 
     12 C12        19.4223  -31.5742  -45.8416 C.ar      10 UNK        -0.0894 
     13 C13        19.0177  -30.6687  -46.8265 C.ar      10 UNK        -0.0745 
     14 C14        17.8155  -29.9725  -46.6630 C.ar      10 UNK        -0.0972 
     15 C15        19.8849  -30.4671  -48.0667 C.3       10 UNK         0.0209 
     16 S16        20.2698  -28.7201  -48.4332 S.3       10 UNK        -0.2568 
     17 C17        21.0095  -28.1311  -46.8693 C.3       10 UNK        -0.0983 
     18 CA         20.5941  -26.6752  -46.5320 C.3       3 UNK         0.0876 
     19 N          19.1423  -26.5095  -46.5124 N.am      3 UNK        -0.4424 
     20 C          18.4471  -25.5342  -47.1104 C.2       2 UNK         0.4918 
     21 O          18.9334  -24.7136  -47.8888 O.2       2 UNK        -0.4875 
     22 CA         16.9485  -25.4447  -46.7512 C.3       2 UNK         0.0481 
     23 CB         16.0943  -26.1501  -47.8163 C.3       2 UNK        -0.1831 
     24 N          16.6678  -26.0155  -45.4276 N.am      2 UNK        -0.4498 
     25 C          17.0723  -25.4620  -44.2758 C.2       1 UNK         0.5027 
     26 O          17.4843  -24.3008  -44.1995 O.2       1 UNK        -0.4969 
     27 C          21.1329  -26.2739  -45.1445 C.2       3 UNK         0.5005 
     28 O          20.3833  -26.2915  -44.1609 O.2       3 UNK        -0.5279 
     29 N          22.4274  -25.9376  -45.0790 N.am      4 UNK        -0.4463 
     30 CA         23.1330  -25.6274  -43.8332 C.3       4 UNK         0.0283 
     31 CB         24.5173  -25.0468  -44.1652 C.3       4 UNK        -0.1875 
     32 C          23.2739  -26.8665  -42.9314 C.2       4 UNK         0.4949 
     33 O          23.4645  -27.9750  -43.4376 O.2       4 UNK        -0.5039 
     34 N          23.2043  -26.6458  -41.6143 N.am      5 UNK        -0.4663 
     35 CA         23.3992  -27.6803  -40.5988 C.3       5 UNK         0.0242 
     36 CB         22.8081  -27.1936  -39.2661 C.3       5 UNK        -0.1982 
     37 C          24.8867  -28.0242  -40.4239 C.2       5 UNK         0.5017 
     38 O          25.7446  -27.1537  -40.5952 O.2       5 UNK        -0.5012 
     39 N          25.1527  -29.2733  -40.0379 N.am      6 UNK        -0.4439 
     40 CA         26.4718  -29.7889  -39.6826 C.3       6 UNK         0.0297 
     41 CB         27.1360  -30.4196  -40.9254 C.3       6 UNK        -0.2006 
     42 C          26.2827  -30.7414  -38.4932 C.2       6 UNK         0.4892 
     43 O          25.7215  -30.3239  -37.4786 O.2       6 UNK        -0.5089 
     44 N          26.7020  -32.0065  -38.6378 N.am      7 UNK        -0.4243 
     45 CA         26.4121  -33.0920  -37.6913 C.3       7 UNK         0.0196 
     46 CB         27.3218  -34.2904  -38.0083 C.3       7 UNK        -0.2007 
     47 C          24.9297  -33.5211  -37.7018 C.2       7 UNK         0.5020 
     48 O          24.4754  -34.1611  -36.7532 O.2       7 UNK        -0.5147 
     49 N          24.2086  -33.1573  -38.7669 N.am      8 UNK        -0.4734 
     50 CA         22.7728  -33.3250  -38.9534 C.3       8 UNK         0.0238 
     51 CB         22.5180  -34.6158  -39.7552 C.3       8 UNK        -0.1912 
     52 C          22.2300  -32.0835  -39.6809 C.2       8 UNK         0.5038 
     53 O          23.0047  -31.1812  -40.0191 O.2       8 UNK        -0.5046 
     54 N          20.9126  -32.0745  -39.9182 N.am      9 UNK        -0.4200 
     55 CA         20.1691  -31.0499  -40.6763 C.3       9 UNK         0.0839 
     56 C          20.0356  -29.6752  -39.9558 C.2       9 UNK         0.5513 
     57 N          20.2718  -29.5896  -38.6522 N.am      9 UNK        -0.7519 
     58 O          19.6854  -28.6773  -40.5773 O.2       9 UNK        -0.4960 
     59 C59        20.6322  -30.9039  -42.1576 C.3       10 UNK        -0.0876 
     60 S60        20.7859  -32.4980  -43.0381 S.3       10 UNK        -0.2414 
     61 C61        19.0854  -32.7773  -43.6319 C.3       10 UNK         0.0169 
     62 H62        20.3718  -25.4604  -40.9585 H         1 UNK         0.0903 
     63 H63        19.5877  -24.0995  -40.1463 H         1 UNK         0.0903 
     64 H64        19.6458  -25.6845  -39.3667 H         1 UNK         0.0903 
     65 H65        19.1098  -26.0107  -42.7221 H         1 UNK         0.3096 
     66 H66        16.1467  -26.1345  -42.4793 H         1 UNK         0.1121 
     67 H67        17.8697  -28.1085  -44.0824 H         1 UNK         0.0849 
     68 H68        17.4757  -28.4106  -42.4306 H         1 UNK         0.0849 
     69 H69        14.8950  -30.0733  -45.5325 H         1 UNK         0.0865 
     70 H70        15.6356  -28.6157  -46.1186 H         1 UNK         0.0865 
     71 H71        16.8395  -31.2350  -43.6669 H         1 UNK         0.1346 
     72 H72        20.3459  -32.1239  -45.9617 H         1 UNK         0.1412 
     73 H73        17.4993  -29.2808  -47.4312 H         1 UNK         0.1426 
     74 H74        19.3711  -30.8992  -48.9262 H         1 UNK         0.0716 
     75 H75        20.8273  -31.0085  -47.9696 H         1 UNK         0.0716 
     76 H76        20.7331  -28.8021  -46.0543 H         1 UNK         0.0695 
     77 H77        22.0942  -28.2066  -46.9634 H         1 UNK         0.0695 
     78 H78        21.0325  -26.0051  -47.2747 H         1 UNK         0.0983 
     79 H79        18.6649  -27.0943  -45.8460 H         1 UNK         0.3095 
     80 H80        16.6684  -24.3893  -46.7370 H         1 UNK         0.0454 
     81 H81        16.2220  -25.6730  -48.7889 H         1 UNK         0.0851 
     82 H82        16.3708  -27.1972  -47.9357 H         1 UNK         0.0851 
     83 H83        15.0328  -26.1042  -47.5725 H         1 UNK         0.0851 
     84 H84        16.2789  -26.9473  -45.3928 H         1 UNK         0.2976 
     85 H85        22.9900  -25.9841  -45.9163 H         1 UNK         0.3116 
     86 H86        22.5570  -24.8676  -43.3001 H         1 UNK         0.0646 
     87 H87        25.0590  -24.7851  -43.2551 H         1 UNK         0.0847 
     88 H88        24.4365  -24.1396  -44.7644 H         1 UNK         0.0847 
     89 H89        25.1334  -25.7604  -44.7139 H         1 UNK         0.0847 
     90 H90        23.1064  -25.6983  -41.2799 H         1 UNK         0.3040 
     91 H91        22.8625  -28.5791  -40.9116 H         1 UNK         0.1015 
     92 H92        21.7437  -26.9830  -39.3601 H         1 UNK         0.0786 
     93 H93        23.3023  -26.2897  -38.9079 H         1 UNK         0.0786 
     94 H94        22.9166  -27.9548  -38.4920 H         1 UNK         0.0786 
     95 H95        24.3739  -29.9181  -39.9026 H         1 UNK         0.3172 
     96 H96        27.1050  -28.9736  -39.3263 H         1 UNK         0.0595 
     97 H97        27.2608  -29.6783  -41.7151 H         1 UNK         0.0839 
     98 H98        26.5425  -31.2365  -41.3384 H         1 UNK         0.0839 
     99 H99        28.1310  -30.8029  -40.6953 H         1 UNK         0.0839 
    100 H100       27.1679  -32.2651  -39.4959 H         1 UNK         0.2998 
    101 H101       26.6436  -32.7407  -36.6833 H         1 UNK         0.0822 
    102 H102       28.3754  -34.0181  -37.9422 H         1 UNK         0.0787 
    103 H103       27.1546  -35.1044  -37.3014 H         1 UNK         0.0787 
    104 H104       27.1371  -34.6848  -39.0083 H         1 UNK         0.0787 
    105 H105       24.6465  -32.5720  -39.4653 H         1 UNK         0.3055 
    106 H106       22.2786  -33.3881  -37.9812 H         1 UNK         0.1106 
    107 H107       22.9435  -34.5562  -40.7580 H         1 UNK         0.0828 
    108 H108       22.9552  -35.4824  -39.2587 H         1 UNK         0.0828 
    109 H109       21.4518  -34.8159  -39.8650 H         1 UNK         0.0828 
    110 H110       20.3568  -32.8495  -39.5879 H         1 UNK         0.2931 
    111 H111       19.1467  -31.4272  -40.7116 H         1 UNK         0.0412 
    112 H112       20.1634  -28.7014  -38.1903 H         1 UNK         0.3472 
    113 H113       20.5454  -30.4032  -38.1260 H         1 UNK         0.3472 
    114 H114       21.6018  -30.4050  -42.2019 H         1 UNK         0.0970 
    115 H115       19.9472  -30.2594  -42.7118 H         1 UNK         0.0970 
    116 H116       18.4080  -32.7612  -42.7768 H         1 UNK         0.0612 
    117 H117       19.0253  -33.7815  -44.0531 H         1 UNK         0.0612 
@<TRIPOS>BOND
     1    1    2 1    
     2    1   62 1    
     3    1   63 1    
     4    1   64 1    
     5    2    3 2    
     6    2    4 am   BACKBONE|DICT|INTERRES
     7    4    5 1    
     8    4   65 1    
     9    5    6 1    
    10    5   25 1    
    11    5   66 1    
    12    6    7 1    
    13    6   67 1    
    14    6   68 1    
    15    7    8 1    
    16    8    9 1    
    17    8   69 1    
    18    8   70 1    
    19    9   10 ar   
    20    9   14 ar   
    21   10   11 ar   
    22   10   71 1    
    23   11   12 ar   
    24   11   61 1    
    25   12   13 ar   
    26   12   72 1    
    27   13   14 ar   
    28   13   15 1    
    29   14   73 1    
    30   15   16 1    
    31   15   74 1    
    32   15   75 1    
    33   16   17 1    
    34   17   18 1    
    35   17   76 1    
    36   17   77 1    
    37   18   19 1    
    38   18   27 1    
    39   18   78 1    
    40   19   20 am   BACKBONE|DICT|INTERRES
    41   19   79 1    
    42   20   21 2    
    43   20   22 1    
    44   22   23 1    
    45   22   24 1    
    46   22   80 1    
    47   23   81 1    
    48   23   82 1    
    49   23   83 1    
    50   24   25 am   BACKBONE|DICT|INTERRES
    51   24   84 1    
    52   25   26 2    
    53   27   28 2    
    54   27   29 am   BACKBONE|DICT|INTERRES
    55   29   30 1    
    56   29   85 1    
    57   30   31 1    
    58   30   32 1    
    59   30   86 1    
    60   31   87 1    
    61   31   88 1    
    62   31   89 1    
    63   32   33 2    
    64   32   34 am   BACKBONE|DICT|INTERRES
    65   34   35 1    
    66   34   90 1    
    67   35   36 1    
    68   35   37 1    
    69   35   91 1    
    70   36   92 1    
    71   36   93 1    
    72   36   94 1    
    73   37   38 2    
    74   37   39 am   BACKBONE|DICT|INTERRES
    75   39   40 1    
    76   39   95 1    
    77   40   41 1    
    78   40   42 1    
    79   40   96 1    
    80   41   97 1    
    81   41   98 1    
    82   41   99 1    
    83   42   43 2    
    84   42   44 am   BACKBONE|DICT|INTERRES
    85   44   45 1    
    86   44  100 1    
    87   45   46 1    
    88   45   47 1    
    89   45  101 1    
    90   46  102 1    
    91   46  103 1    
    92   46  104 1    
    93   47   48 2    
    94   47   49 am   BACKBONE|DICT|INTERRES
    95   49   50 1    
    96   49  105 1    
    97   50   51 1    
    98   50   52 1    
    99   50  106 1    
   100   51  107 1    
   101   51  108 1    
   102   51  109 1    
   103   52   53 2    
   104   52   54 am   BACKBONE|DICT|INTERRES
   105   54   55 1    
   106   54  110 1    
   107   55   56 1    
   108   55   59 1    
   109   55  111 1    
   110   56   57 am   BACKBONE|DICT|INTERRES
   111   56   58 2    
   112   57  112 1    
   113   57  113 1    
   114   59   60 1    
   115   59  114 1    
   116   59  115 1    
   117   60   61 1    
   118   61  116 1    
   119   61  117 1    
@<TRIPOS>SUBSTRUCTURE
     1 UNK         1 GROUP             0       ****    0 ROOT    
