@<TRIPOS>MOLECULE
3R8
117   119    1
SMALL
USER_CHARGES


@<TRIPOS>ATOM
      1 CA         16.8259  -22.9468  -41.1073 C.3       0 UNK        -0.2013 
      2 C          17.4334  -23.2487  -42.4690 C.2       0 UNK         0.4866 
      3 O          18.0851  -22.3836  -43.0553 O.2       0 UNK        -0.5176 
      4 N          17.2174  -24.4666  -42.9799 N.am      1 UNK        -0.4884 
      5 CA         17.8031  -24.9762  -44.2236 C.3       1 UNK         0.0853 
      6 C6         17.0408  -26.2177  -44.7623 C.3       10 UNK        -0.0849 
      7 S7         16.6619  -27.4869  -43.5029 S.3       10 UNK        -0.2776 
      8 C8         15.6655  -28.6651  -44.4732 C.3       10 UNK         0.0316 
      9 C9         16.4706  -29.9162  -44.7805 C.ar      10 UNK        -0.0863 
     10 C10        16.4258  -31.0038  -43.9035 C.ar      10 UNK        -0.1009 
     11 C11        17.2265  -32.1285  -44.1232 C.ar      10 UNK        -0.0712 
     12 C12        18.0577  -32.1691  -45.2451 C.ar      10 UNK        -0.0894 
     13 C13        18.1096  -31.0874  -46.1297 C.ar      10 UNK        -0.0745 
     14 C14        17.2985  -29.9703  -45.9055 C.ar      10 UNK        -0.0972 
     15 C15        19.1379  -31.0791  -47.2515 C.3       10 UNK         0.0209 
     16 S16        20.5298  -29.9390  -46.9129 S.3       10 UNK        -0.2568 
     17 C17        20.7921  -30.1138  -45.1081 C.3       10 UNK        -0.0983 
     18 CA         21.6864  -29.0184  -44.4844 C.3       3 UNK         0.0876 
     19 N          21.3408  -27.6728  -44.9512 N.am      3 UNK        -0.4424 
     20 C          22.0696  -26.5755  -44.7150 C.2       2 UNK         0.4918 
     21 O          23.1174  -26.5764  -44.0723 O.2       2 UNK        -0.4875 
     22 CA         21.5152  -25.2440  -45.2466 C.3       2 UNK         0.0481 
     23 CB         21.9885  -25.0082  -46.6891 C.3       2 UNK        -0.1831 
     24 N          20.0534  -25.1285  -45.1824 N.am      2 UNK        -0.4498 
     25 C          19.3157  -25.2408  -44.0672 C.2       1 UNK         0.5027 
     26 O          19.7829  -25.5531  -42.9675 O.2       1 UNK        -0.4969 
     27 C          21.6170  -29.1272  -42.9477 C.2       3 UNK         0.5005 
     28 O          22.4300  -29.8340  -42.3536 O.2       3 UNK        -0.5279 
     29 N          20.6470  -28.4376  -42.3297 N.am      4 UNK        -0.4463 
     30 CA         20.4885  -28.3680  -40.8778 C.3       4 UNK         0.0283 
     31 CB         19.0611  -27.9222  -40.5246 C.3       4 UNK        -0.1875 
     32 C          21.5366  -27.4430  -40.2457 C.2       4 UNK         0.4949 
     33 O          22.0892  -27.7899  -39.2031 O.2       4 UNK        -0.5039 
     34 N          21.8346  -26.3168  -40.9110 N.am      5 UNK        -0.4663 
     35 CA         22.8931  -25.3774  -40.5235 C.3       5 UNK         0.0242 
     36 CB         22.8148  -24.1212  -41.4051 C.3       5 UNK        -0.1982 
     37 C          24.2993  -26.0039  -40.5796 C.2       5 UNK         0.5017 
     38 O          25.1047  -25.7676  -39.6791 O.2       5 UNK        -0.5012 
     39 N          24.5507  -26.8218  -41.6115 N.am      6 UNK        -0.4439 
     40 CA         25.7695  -27.6182  -41.7859 C.3       6 UNK         0.0297 
     41 CB         25.8762  -28.0438  -43.2602 C.3       6 UNK        -0.2006 
     42 C          25.8415  -28.8598  -40.8745 C.2       6 UNK         0.4892 
     43 O          26.9020  -29.4824  -40.8096 O.2       6 UNK        -0.5089 
     44 N          24.7250  -29.2112  -40.2173 N.am      7 UNK        -0.4243 
     45 CA         24.5140  -30.3947  -39.3739 C.3       7 UNK         0.0196 
     46 CB         25.4184  -30.3603  -38.1236 C.3       7 UNK        -0.2007 
     47 C          24.6043  -31.7268  -40.1474 C.2       7 UNK         0.5020 
     48 O          24.9243  -32.7591  -39.5574 O.2       7 UNK        -0.5147 
     49 N          24.2798  -31.6941  -41.4461 N.am      8 UNK        -0.4734 
     50 CA         24.1609  -32.8666  -42.3151 C.3       8 UNK         0.0238 
     51 CB         24.3429  -32.4347  -43.7794 C.3       8 UNK        -0.1912 
     52 C          22.8118  -33.5782  -42.1212 C.2       8 UNK         0.5038 
     53 O          22.7552  -34.8030  -42.2339 O.2       8 UNK        -0.5046 
     54 N          21.7628  -32.8031  -41.8085 N.am      9 UNK        -0.4200 
     55 CA         20.4419  -33.3060  -41.3952 C.3       9 UNK         0.0839 
     56 C          20.4349  -33.9326  -39.9643 C.2       9 UNK         0.5513 
     57 N          21.4209  -33.6646  -39.1152 N.am      9 UNK        -0.7519 
     58 O          19.5409  -34.7030  -39.6256 O.2       9 UNK        -0.4960 
     59 C59        19.3625  -32.2044  -41.5849 C.3       10 UNK        -0.0876 
     60 S60        17.6330  -32.7804  -41.4368 S.3       10 UNK        -0.2414 
     61 C61        17.2183  -33.2896  -43.1380 C.3       10 UNK         0.0169 
     62 H62        16.1485  -22.0962  -41.1782 H         1 UNK         0.0903 
     63 H63        16.2658  -23.7949  -40.7138 H         1 UNK         0.0903 
     64 H64        17.6115  -22.6993  -40.3938 H         1 UNK         0.0903 
     65 H65        16.7019  -25.1532  -42.4466 H         1 UNK         0.3096 
     66 H66        17.7011  -24.1840  -44.9695 H         1 UNK         0.1121 
     67 H67        17.5766  -26.6845  -45.5912 H         1 UNK         0.0849 
     68 H68        16.0906  -25.8833  -45.1822 H         1 UNK         0.0849 
     69 H69        14.7731  -28.9257  -43.9021 H         1 UNK         0.0865 
     70 H70        15.3084  -28.2063  -45.3964 H         1 UNK         0.0865 
     71 H71        15.7959  -30.9610  -43.0252 H         1 UNK         0.1346 
     72 H72        18.7007  -33.0239  -45.4052 H         1 UNK         0.1412 
     73 H73        17.3608  -29.1205  -46.5716 H         1 UNK         0.1426 
     74 H74        18.6579  -30.7897  -48.1874 H         1 UNK         0.0716 
     75 H75        19.5387  -32.0813  -47.4107 H         1 UNK         0.0716 
     76 H76        21.2043  -31.1056  -44.9124 H         1 UNK         0.0695 
     77 H77        19.8250  -30.0813  -44.6079 H         1 UNK         0.0695 
     78 H78        22.7196  -29.2119  -44.7811 H         1 UNK         0.0983 
     79 H79        20.5045  -27.5946  -45.5106 H         1 UNK         0.3095 
     80 H80        21.9269  -24.4479  -44.6236 H         1 UNK         0.0454 
     81 H81        21.5786  -25.7489  -47.3770 H         1 UNK         0.0851 
     82 H82        23.0758  -25.0682  -46.7572 H         1 UNK         0.0851 
     83 H83        21.6996  -24.0199  -47.0468 H         1 UNK         0.0851 
     84 H84        19.5908  -24.8787  -46.0451 H         1 UNK         0.2976 
     85 H85        20.0451  -27.8379  -42.8791 H         1 UNK         0.3116 
     86 H86        20.6400  -29.3665  -40.4636 H         1 UNK         0.0646 
     87 H87        18.3199  -28.6082  -40.9355 H         1 UNK         0.0847 
     88 H88        18.8379  -26.9243  -40.9027 H         1 UNK         0.0847 
     89 H89        18.9175  -27.8996  -39.4437 H         1 UNK         0.0847 
     90 H90        21.2905  -26.0874  -41.7376 H         1 UNK         0.3040 
     91 H91        22.7073  -25.0805  -39.4888 H         1 UNK         0.1015 
     92 H92        23.5450  -23.3763  -41.0860 H         1 UNK         0.0786 
     93 H93        21.8300  -23.6564  -41.3491 H         1 UNK         0.0786 
     94 H94        23.0186  -24.3481  -42.4514 H         1 UNK         0.0786 
     95 H95        23.8613  -26.8815  -42.3574 H         1 UNK         0.3172 
     96 H96        26.6290  -26.9880  -41.5487 H         1 UNK         0.0595 
     97 H97        25.0421  -28.6818  -43.5556 H         1 UNK         0.0839 
     98 H98        26.7948  -28.6028  -43.4431 H         1 UNK         0.0839 
     99 H99        25.8878  -27.1789  -43.9237 H         1 UNK         0.0839 
    100 H100       23.9102  -28.6235  -40.3383 H         1 UNK         0.2998 
    101 H101       23.4815  -30.3259  -39.0281 H         1 UNK         0.0822 
    102 H102       25.3265  -29.4115  -37.5949 H         1 UNK         0.0787 
    103 H103       25.1450  -31.1487  -37.4212 H         1 UNK         0.0787 
    104 H104       26.4689  -30.5038  -38.3777 H         1 UNK         0.0787 
    105 H105       23.9272  -30.8176  -41.8242 H         1 UNK         0.3055 
    106 H106       24.9525  -33.5763  -42.0634 H         1 UNK         0.1106 
    107 H107       23.5766  -31.7254  -44.0926 H         1 UNK         0.0828 
    108 H108       24.2855  -33.2939  -44.4490 H         1 UNK         0.0828 
    109 H109       25.3151  -31.9668  -43.9353 H         1 UNK         0.0828 
    110 H110       21.9098  -31.8023  -41.7596 H         1 UNK         0.2931 
    111 H111       20.1894  -34.1172  -42.0809 H         1 UNK         0.0412 
    112 H112       22.1953  -33.0826  -39.3886 H         1 UNK         0.3472 
    113 H113       21.4087  -34.0896  -38.2012 H         1 UNK         0.3472 
    114 H114       19.5093  -31.4105  -40.8521 H         1 UNK         0.0970 
    115 H115       19.4826  -31.7274  -42.5584 H         1 UNK         0.0970 
    116 H116       16.2249  -33.7399  -43.1355 H         1 UNK         0.0612 
    117 H117       17.9114  -34.0731  -43.4479 H         1 UNK         0.0612 
@<TRIPOS>BOND
     1    1    2 1    
     2    1   62 1    
     3    1   63 1    
     4    1   64 1    
     5    2    3 2    
     6    2    4 am   BACKBONE|DICT|INTERRES
     7    4    5 1    
     8    4   65 1    
     9    5    6 1    
    10    5   25 1    
    11    5   66 1    
    12    6    7 1    
    13    6   67 1    
    14    6   68 1    
    15    7    8 1    
    16    8    9 1    
    17    8   69 1    
    18    8   70 1    
    19    9   10 ar   
    20    9   14 ar   
    21   10   11 ar   
    22   10   71 1    
    23   11   12 ar   
    24   11   61 1    
    25   12   13 ar   
    26   12   72 1    
    27   13   14 ar   
    28   13   15 1    
    29   14   73 1    
    30   15   16 1    
    31   15   74 1    
    32   15   75 1    
    33   16   17 1    
    34   17   18 1    
    35   17   76 1    
    36   17   77 1    
    37   18   19 1    
    38   18   27 1    
    39   18   78 1    
    40   19   20 am   BACKBONE|DICT|INTERRES
    41   19   79 1    
    42   20   21 2    
    43   20   22 1    
    44   22   23 1    
    45   22   24 1    
    46   22   80 1    
    47   23   81 1    
    48   23   82 1    
    49   23   83 1    
    50   24   25 am   BACKBONE|DICT|INTERRES
    51   24   84 1    
    52   25   26 2    
    53   27   28 2    
    54   27   29 am   BACKBONE|DICT|INTERRES
    55   29   30 1    
    56   29   85 1    
    57   30   31 1    
    58   30   32 1    
    59   30   86 1    
    60   31   87 1    
    61   31   88 1    
    62   31   89 1    
    63   32   33 2    
    64   32   34 am   BACKBONE|DICT|INTERRES
    65   34   35 1    
    66   34   90 1    
    67   35   36 1    
    68   35   37 1    
    69   35   91 1    
    70   36   92 1    
    71   36   93 1    
    72   36   94 1    
    73   37   38 2    
    74   37   39 am   BACKBONE|DICT|INTERRES
    75   39   40 1    
    76   39   95 1    
    77   40   41 1    
    78   40   42 1    
    79   40   96 1    
    80   41   97 1    
    81   41   98 1    
    82   41   99 1    
    83   42   43 2    
    84   42   44 am   BACKBONE|DICT|INTERRES
    85   44   45 1    
    86   44  100 1    
    87   45   46 1    
    88   45   47 1    
    89   45  101 1    
    90   46  102 1    
    91   46  103 1    
    92   46  104 1    
    93   47   48 2    
    94   47   49 am   BACKBONE|DICT|INTERRES
    95   49   50 1    
    96   49  105 1    
    97   50   51 1    
    98   50   52 1    
    99   50  106 1    
   100   51  107 1    
   101   51  108 1    
   102   51  109 1    
   103   52   53 2    
   104   52   54 am   BACKBONE|DICT|INTERRES
   105   54   55 1    
   106   54  110 1    
   107   55   56 1    
   108   55   59 1    
   109   55  111 1    
   110   56   57 am   BACKBONE|DICT|INTERRES
   111   56   58 2    
   112   57  112 1    
   113   57  113 1    
   114   59   60 1    
   115   59  114 1    
   116   59  115 1    
   117   60   61 1    
   118   61  116 1    
   119   61  117 1    
@<TRIPOS>SUBSTRUCTURE
     1 UNK         1 GROUP             0       ****    0 ROOT    
