@<TRIPOS>MOLECULE
3R8
117   119    1
SMALL
USER_CHARGES


@<TRIPOS>ATOM
      1 CA         16.2695  -25.1201  -47.3837 C.3       0 UNK        -0.2013 
      2 C          16.5931  -26.2605  -46.4299 C.2       0 UNK         0.4866 
      3 O          16.0954  -27.3712  -46.6160 O.2       0 UNK        -0.5176 
      4 N          17.4226  -25.9922  -45.4164 N.am      1 UNK        -0.4884 
      5 CA         17.8842  -26.9616  -44.4233 C.3       1 UNK         0.0853 
      6 C6         17.4247  -26.5843  -42.9902 C.3       10 UNK        -0.0849 
      7 S7         15.6235  -26.6587  -42.7020 S.3       10 UNK        -0.2776 
      8 C8         15.1752  -28.3852  -43.1043 C.3       10 UNK         0.0316 
      9 C9         16.1796  -29.4285  -42.6219 C.ar      10 UNK        -0.0863 
     10 C10        16.6397  -30.4017  -43.5141 C.ar      10 UNK        -0.1009 
     11 C11        17.5711  -31.3584  -43.1055 C.ar      10 UNK        -0.0712 
     12 C12        18.0462  -31.3393  -41.7921 C.ar      10 UNK        -0.0894 
     13 C13        17.5875  -30.3795  -40.8851 C.ar      10 UNK        -0.0745 
     14 C14        16.6435  -29.4352  -41.3008 C.ar      10 UNK        -0.0972 
     15 C15        18.0935  -30.3899  -39.4504 C.3       10 UNK         0.0209 
     16 S16        19.8665  -29.9910  -39.3450 S.3       10 UNK        -0.2568 
     17 C17        19.8650  -28.1691  -39.4445 C.3       10 UNK        -0.0983 
     18 CA         21.0574  -27.6404  -40.2808 C.3       3 UNK         0.0876 
     19 N          20.9359  -28.0331  -41.6929 N.am      3 UNK        -0.4424 
     20 C          21.8420  -27.8361  -42.6624 C.2       2 UNK         0.4918 
     21 O          22.9097  -27.2518  -42.4961 O.2       2 UNK        -0.4875 
     22 CA         21.4650  -28.3073  -44.0726 C.3       2 UNK         0.0481 
     23 CB         21.9243  -29.7556  -44.2747 C.3       2 UNK        -0.1831 
     24 N          20.0257  -28.1694  -44.3294 N.am      2 UNK        -0.4498 
     25 C          19.4181  -26.9782  -44.4508 C.2       1 UNK         0.5027 
     26 O          20.0246  -25.9042  -44.4909 O.2       1 UNK        -0.4969 
     27 C          21.2839  -26.1273  -40.0416 C.2       3 UNK         0.5005 
     28 O          21.6355  -25.7442  -38.9248 O.2       3 UNK        -0.5279 
     29 N          21.1118  -25.2937  -41.0779 N.am      4 UNK        -0.4463 
     30 CA         21.4655  -23.8745  -41.0782 C.3       4 UNK         0.0283 
     31 CB         20.7899  -23.1961  -42.2810 C.3       4 UNK        -0.1875 
     32 C          22.9866  -23.6128  -41.1020 C.2       4 UNK         0.4949 
     33 O          23.3963  -22.5176  -40.7154 O.2       4 UNK        -0.5039 
     34 N          23.7926  -24.5839  -41.5609 N.am      5 UNK        -0.4663 
     35 CA         25.2496  -24.4467  -41.7009 C.3       5 UNK         0.0242 
     36 CB         25.5852  -23.9949  -43.1331 C.3       5 UNK        -0.1982 
     37 C          26.0315  -25.7211  -41.3391 C.2       5 UNK         0.5017 
     38 O          27.1538  -25.6086  -40.8442 O.2       5 UNK        -0.5012 
     39 N          25.4482  -26.8966  -41.5927 N.am      6 UNK        -0.4439 
     40 CA         25.9909  -28.2192  -41.2949 C.3       6 UNK         0.0297 
     41 CB         26.4068  -28.9030  -42.6144 C.3       6 UNK        -0.2006 
     42 C          24.9269  -28.9841  -40.4900 C.2       6 UNK         0.4892 
     43 O          24.4624  -28.4552  -39.4788 O.2       6 UNK        -0.5089 
     44 N          24.5433  -30.1870  -40.9362 N.am      7 UNK        -0.4243 
     45 CA         23.4994  -31.0222  -40.3461 C.3       7 UNK         0.0196 
     46 CB         23.9698  -31.6047  -38.9962 C.3       7 UNK        -0.2007 
     47 C          23.1354  -32.1520  -41.3171 C.2       7 UNK         0.5020 
     48 O          23.8674  -32.3935  -42.2796 O.2       7 UNK        -0.5147 
     49 N          22.0264  -32.8418  -41.0173 N.am      8 UNK        -0.4734 
     50 CA         21.5702  -34.1439  -41.5382 C.3       8 UNK         0.0238 
     51 CB         22.5791  -35.2467  -41.1588 C.3       8 UNK        -0.1912 
     52 C          21.2147  -34.2439  -43.0355 C.2       8 UNK         0.5038 
     53 O          20.4837  -35.1677  -43.3950 O.2       8 UNK        -0.5046 
     54 N          21.7195  -33.3322  -43.8741 N.am      9 UNK        -0.4200 
     55 CA         21.5841  -33.3315  -45.3446 C.3       9 UNK         0.0839 
     56 C          22.3663  -34.4820  -46.0505 C.2       9 UNK         0.5513 
     57 N          23.3624  -35.0873  -45.4139 N.am      9 UNK        -0.7519 
     58 O          22.0919  -34.8149  -47.2009 O.2       9 UNK        -0.4960 
     59 C59        20.1126  -33.2073  -45.8481 C.3       10 UNK        -0.0876 
     60 S60        19.2721  -31.7090  -45.2354 S.3       10 UNK        -0.2414 
     61 C61        18.0602  -32.4137  -44.0822 C.3       10 UNK         0.0169 
     62 H62        15.1960  -24.9328  -47.3925 H         1 UNK         0.0903 
     63 H63        16.7722  -24.1955  -47.1005 H         1 UNK         0.0903 
     64 H64        16.5788  -25.3783  -48.3961 H         1 UNK         0.0903 
     65 H65        17.8538  -25.0799  -45.3447 H         1 UNK         0.3096 
     66 H66        17.5327  -27.9634  -44.6732 H         1 UNK         0.1121 
     67 H67        17.9077  -27.2196  -42.2468 H         1 UNK         0.0849 
     68 H68        17.7454  -25.5687  -42.7481 H         1 UNK         0.0849 
     69 H69        14.2011  -28.6059  -42.6661 H         1 UNK         0.0865 
     70 H70        15.0419  -28.4540  -44.1852 H         1 UNK         0.0865 
     71 H71        16.2797  -30.4153  -44.5344 H         1 UNK         0.1346 
     72 H72        18.7711  -32.0747  -41.4707 H         1 UNK         0.1412 
     73 H73        16.2790  -28.6935  -40.6030 H         1 UNK         0.1426 
     74 H74        17.9347  -31.3839  -39.0300 H         1 UNK         0.0716 
     75 H75        17.5257  -29.7004  -38.8235 H         1 UNK         0.0716 
     76 H76        19.9081  -27.7963  -38.4191 H         1 UNK         0.0695 
     77 H77        18.9194  -27.8152  -39.8591 H         1 UNK         0.0695 
     78 H78        21.9603  -28.1184  -39.9018 H         1 UNK         0.0983 
     79 H79        20.0949  -28.5396  -41.9258 H         1 UNK         0.3095 
     80 H80        22.0037  -27.6824  -44.7884 H         1 UNK         0.0454 
     81 H81        22.9926  -29.8599  -44.0786 H         1 UNK         0.0851 
     82 H82        21.4033  -30.4417  -43.6065 H         1 UNK         0.0851 
     83 H83        21.7555  -30.0774  -45.3016 H         1 UNK         0.0851 
     84 H84        19.4759  -29.0184  -44.3288 H         1 UNK         0.2976 
     85 H85        20.8312  -25.6859  -41.9656 H         1 UNK         0.3116 
     86 H86        21.0687  -23.4234  -40.1661 H         1 UNK         0.0646 
     87 H87        20.9967  -22.1250  -42.2923 H         1 UNK         0.0847 
     88 H88        19.7068  -23.3151  -42.2497 H         1 UNK         0.0847 
     89 H89        21.1451  -23.6058  -43.2277 H         1 UNK         0.0847 
     90 H90        23.3780  -25.4623  -41.8532 H         1 UNK         0.3040 
     91 H91        25.6064  -23.6774  -41.0120 H         1 UNK         0.1015 
     92 H92        25.1353  -23.0279  -43.3590 H         1 UNK         0.0786 
     93 H93        25.2292  -24.7119  -43.8740 H         1 UNK         0.0786 
     94 H94        26.6626  -23.8898  -43.2693 H         1 UNK         0.0786 
     95 H95        24.5017  -26.9147  -41.9702 H         1 UNK         0.3172 
     96 H96        26.8706  -28.1369  -40.6537 H         1 UNK         0.0595 
     97 H97        26.8505  -29.8829  -42.4335 H         1 UNK         0.0839 
     98 H98        27.1564  -28.3100  -43.1388 H         1 UNK         0.0839 
     99 H99        25.5613  -29.0331  -43.2916 H         1 UNK         0.0839 
    100 H100       24.9474  -30.5698  -41.7826 H         1 UNK         0.2998 
    101 H101       22.6124  -30.4077  -40.1939 H         1 UNK         0.0822 
    102 H102       24.8747  -32.2024  -39.1127 H         1 UNK         0.0787 
    103 H103       24.1796  -30.8210  -38.2685 H         1 UNK         0.0787 
    104 H104       23.2089  -32.2479  -38.5526 H         1 UNK         0.0787 
    105 H105       21.4792  -32.4970  -40.2395 H         1 UNK         0.3055 
    106 H106       20.6409  -34.3584  -41.0071 H         1 UNK         0.1106 
    107 H107       23.5430  -35.1015  -41.6476 H         1 UNK         0.0828 
    108 H108       22.7504  -35.2747  -40.0827 H         1 UNK         0.0828 
    109 H109       22.2135  -36.2322  -41.4514 H         1 UNK         0.0828 
    110 H110       22.3953  -32.6833  -43.4856 H         1 UNK         0.2931 
    111 H111       22.1026  -32.4301  -45.6707 H         1 UNK         0.0412 
    112 H112       23.8713  -35.8231  -45.8785 H         1 UNK         0.3472 
    113 H113       23.6175  -34.8068  -44.4803 H         1 UNK         0.3472 
    114 H114       20.0924  -33.1498  -46.9377 H         1 UNK         0.0970 
    115 H115       19.5349  -34.0965  -45.5928 H         1 UNK         0.0970 
    116 H116       17.2197  -32.8211  -44.6459 H         1 UNK         0.0612 
    117 H117       18.5020  -33.2492  -43.5397 H         1 UNK         0.0612 
@<TRIPOS>BOND
     1    1    2 1    
     2    1   62 1    
     3    1   63 1    
     4    1   64 1    
     5    2    3 2    
     6    2    4 am   BACKBONE|DICT|INTERRES
     7    4    5 1    
     8    4   65 1    
     9    5    6 1    
    10    5   25 1    
    11    5   66 1    
    12    6    7 1    
    13    6   67 1    
    14    6   68 1    
    15    7    8 1    
    16    8    9 1    
    17    8   69 1    
    18    8   70 1    
    19    9   10 ar   
    20    9   14 ar   
    21   10   11 ar   
    22   10   71 1    
    23   11   12 ar   
    24   11   61 1    
    25   12   13 ar   
    26   12   72 1    
    27   13   14 ar   
    28   13   15 1    
    29   14   73 1    
    30   15   16 1    
    31   15   74 1    
    32   15   75 1    
    33   16   17 1    
    34   17   18 1    
    35   17   76 1    
    36   17   77 1    
    37   18   19 1    
    38   18   27 1    
    39   18   78 1    
    40   19   20 am   BACKBONE|DICT|INTERRES
    41   19   79 1    
    42   20   21 2    
    43   20   22 1    
    44   22   23 1    
    45   22   24 1    
    46   22   80 1    
    47   23   81 1    
    48   23   82 1    
    49   23   83 1    
    50   24   25 am   BACKBONE|DICT|INTERRES
    51   24   84 1    
    52   25   26 2    
    53   27   28 2    
    54   27   29 am   BACKBONE|DICT|INTERRES
    55   29   30 1    
    56   29   85 1    
    57   30   31 1    
    58   30   32 1    
    59   30   86 1    
    60   31   87 1    
    61   31   88 1    
    62   31   89 1    
    63   32   33 2    
    64   32   34 am   BACKBONE|DICT|INTERRES
    65   34   35 1    
    66   34   90 1    
    67   35   36 1    
    68   35   37 1    
    69   35   91 1    
    70   36   92 1    
    71   36   93 1    
    72   36   94 1    
    73   37   38 2    
    74   37   39 am   BACKBONE|DICT|INTERRES
    75   39   40 1    
    76   39   95 1    
    77   40   41 1    
    78   40   42 1    
    79   40   96 1    
    80   41   97 1    
    81   41   98 1    
    82   41   99 1    
    83   42   43 2    
    84   42   44 am   BACKBONE|DICT|INTERRES
    85   44   45 1    
    86   44  100 1    
    87   45   46 1    
    88   45   47 1    
    89   45  101 1    
    90   46  102 1    
    91   46  103 1    
    92   46  104 1    
    93   47   48 2    
    94   47   49 am   BACKBONE|DICT|INTERRES
    95   49   50 1    
    96   49  105 1    
    97   50   51 1    
    98   50   52 1    
    99   50  106 1    
   100   51  107 1    
   101   51  108 1    
   102   51  109 1    
   103   52   53 2    
   104   52   54 am   BACKBONE|DICT|INTERRES
   105   54   55 1    
   106   54  110 1    
   107   55   56 1    
   108   55   59 1    
   109   55  111 1    
   110   56   57 am   BACKBONE|DICT|INTERRES
   111   56   58 2    
   112   57  112 1    
   113   57  113 1    
   114   59   60 1    
   115   59  114 1    
   116   59  115 1    
   117   60   61 1    
   118   61  116 1    
   119   61  117 1    
@<TRIPOS>SUBSTRUCTURE
     1 UNK         1 GROUP             0       ****    0 ROOT    
