@<TRIPOS>MOLECULE
3R8
117   119    1
SMALL
USER_CHARGES


@<TRIPOS>ATOM
      1 CA         14.3632  -24.8487  -41.5139 C.3       0 UNK        -0.2013 
      2 C          14.7233  -25.3196  -42.9151 C.2       0 UNK         0.4866 
      3 O          13.8565  -25.8085  -43.6398 O.2       0 UNK        -0.5176 
      4 N          15.9939  -25.1746  -43.3016 N.am      1 UNK        -0.4884 
      5 CA         16.5379  -25.5341  -44.6093 C.3       1 UNK         0.0853 
      6 C6         16.7446  -27.0643  -44.7611 C.3       10 UNK        -0.0849 
      7 S7         16.7537  -27.6012  -46.5034 S.3       10 UNK        -0.2776 
      8 C8         16.9551  -29.4026  -46.3103 C.3       10 UNK         0.0316 
      9 C9         18.2618  -29.7521  -45.6123 C.ar      10 UNK        -0.0863 
     10 C10        18.2576  -30.2653  -44.3124 C.ar      10 UNK        -0.1009 
     11 C11        19.4547  -30.5613  -43.6525 C.ar      10 UNK        -0.0712 
     12 C12        20.6673  -30.3367  -44.3212 C.ar      10 UNK        -0.0894 
     13 C13        20.6888  -29.8111  -45.6176 C.ar      10 UNK        -0.0745 
     14 C14        19.4784  -29.5422  -46.2632 C.ar      10 UNK        -0.0972 
     15 C15        22.0174  -29.5573  -46.3254 C.3       10 UNK         0.0209 
     16 S16        22.0902  -27.9199  -47.1336 S.3       10 UNK        -0.2568 
     17 C17        22.9944  -26.8794  -45.9314 C.3       10 UNK        -0.0983 
     18 CA         22.1244  -26.1428  -44.8718 C.3       3 UNK         0.0876 
     19 N          20.9175  -25.5410  -45.4414 N.am      3 UNK        -0.4424 
     20 C          20.8147  -24.2786  -45.8681 C.2       2 UNK         0.4918 
     21 O          21.7280  -23.4553  -45.7996 O.2       2 UNK        -0.4875 
     22 CA         19.4672  -23.8482  -46.4796 C.3       2 UNK         0.0481 
     23 CB         19.5542  -23.8738  -48.0141 C.3       2 UNK        -0.1831 
     24 N          18.3044  -24.6386  -46.0555 N.am      2 UNK        -0.4498 
     25 C          17.8435  -24.7403  -44.8018 C.2       1 UNK         0.5027 
     26 O          18.4104  -24.2491  -43.8203 O.2       1 UNK        -0.4969 
     27 C          21.7881  -26.9827  -43.6252 C.2       3 UNK         0.5005 
     28 O          22.4733  -27.9737  -43.3608 O.2       3 UNK        -0.5279 
     29 N          20.7585  -26.5640  -42.8670 N.am      4 UNK        -0.4463 
     30 CA         20.1923  -27.2260  -41.6802 C.3       4 UNK         0.0283 
     31 CB         18.8500  -26.5608  -41.3239 C.3       4 UNK        -0.1875 
     32 C          21.1349  -27.3191  -40.4569 C.2       4 UNK         0.4949 
     33 O          20.7758  -26.8942  -39.3579 O.2       4 UNK        -0.5039 
     34 N          22.3116  -27.9065  -40.6730 N.am      5 UNK        -0.4663 
     35 CA         23.3392  -28.2567  -39.6953 C.3       5 UNK         0.0242 
     36 CB         23.9919  -26.9965  -39.0946 C.3       5 UNK        -0.1982 
     37 C          24.4103  -29.1505  -40.3376 C.2       5 UNK         0.5017 
     38 O          24.9316  -30.0395  -39.6639 O.2       5 UNK        -0.5012 
     39 N          24.7198  -28.9061  -41.6217 N.am      6 UNK        -0.4439 
     40 CA         25.8379  -29.5041  -42.3603 C.3       6 UNK         0.0297 
     41 CB         25.9548  -28.8225  -43.7323 C.3       6 UNK        -0.2006 
     42 C          25.7562  -31.0284  -42.5401 C.2       6 UNK         0.4892 
     43 O          26.7989  -31.6793  -42.6094 O.2       6 UNK        -0.5089 
     44 N          24.5332  -31.5703  -42.5975 N.am      7 UNK        -0.4243 
     45 CA         24.2651  -33.0062  -42.7224 C.3       7 UNK         0.0196 
     46 CB         23.0152  -33.2082  -43.5993 C.3       7 UNK        -0.2007 
     47 C          24.1237  -33.7059  -41.3549 C.2       7 UNK         0.5020 
     48 O          23.6003  -34.8197  -41.3112 O.2       7 UNK        -0.5147 
     49 N          24.5672  -33.0486  -40.2689 N.am      8 UNK        -0.4734 
     50 CA         24.4068  -33.4414  -38.8607 C.3       8 UNK         0.0238 
     51 CB         25.1607  -34.7519  -38.5466 C.3       8 UNK        -0.1912 
     52 C          22.9192  -33.4777  -38.4647 C.2       8 UNK         0.5038 
     53 O          22.4391  -34.4679  -37.9099 O.2       8 UNK        -0.5046 
     54 N          22.2192  -32.3911  -38.8117 N.am      9 UNK        -0.4200 
     55 CA         20.7607  -32.2310  -38.7133 C.3       9 UNK         0.0839 
     56 C          20.1867  -32.1867  -37.2669 C.2       9 UNK         0.5513 
     57 N          20.9977  -32.0039  -36.2319 N.am      9 UNK        -0.7519 
     58 O          18.9795  -32.3193  -37.0841 O.2       9 UNK        -0.4960 
     59 C59        20.2739  -31.0026  -39.5270 C.3       10 UNK        -0.0876 
     60 S60        20.9073  -30.9624  -41.2424 S.3       10 UNK        -0.2414 
     61 C61        19.3754  -31.1120  -42.2252 C.3       10 UNK         0.0169 
     62 H62        13.9585  -25.6768  -40.9326 H         1 UNK         0.0903 
     63 H63        15.2282  -24.4527  -40.9819 H         1 UNK         0.0903 
     64 H64        13.6073  -24.0655  -41.5637 H         1 UNK         0.0903 
     65 H65        16.6703  -24.7129  -42.7039 H         1 UNK         0.3096 
     66 H66        15.8272  -25.1850  -45.3625 H         1 UNK         0.1121 
     67 H67        15.9381  -27.6078  -44.2664 H         1 UNK         0.0849 
     68 H68        17.6651  -27.3893  -44.2739 H         1 UNK         0.0849 
     69 H69        16.1002  -29.8046  -45.7642 H         1 UNK         0.0865 
     70 H70        16.9358  -29.8709  -47.2955 H         1 UNK         0.0865 
     71 H71        17.3156  -30.4268  -43.8059 H         1 UNK         0.1346 
     72 H72        21.6064  -30.5494  -43.8334 H         1 UNK         0.1412 
     73 H73        19.4809  -29.1445  -47.2690 H         1 UNK         0.1426 
     74 H74        22.1486  -30.3253  -47.0884 H         1 UNK         0.0716 
     75 H75        22.8561  -29.6642  -45.6357 H         1 UNK         0.0716 
     76 H76        23.5089  -26.1222  -46.5248 H         1 UNK         0.0695 
     77 H77        23.7972  -27.4555  -45.4723 H         1 UNK         0.0695 
     78 H78        22.7482  -25.3438  -44.4649 H         1 UNK         0.0983 
     79 H79        20.1300  -26.1619  -45.5616 H         1 UNK         0.3095 
     80 H80        19.2887  -22.8172  -46.1676 H         1 UNK         0.0454 
     81 H81        19.7046  -24.8859  -48.3923 H         1 UNK         0.0851 
     82 H82        20.3887  -23.2673  -48.3691 H         1 UNK         0.0851 
     83 H83        18.6497  -23.4732  -48.4720 H         1 UNK         0.0851 
     84 H84        17.7959  -25.1151  -46.7883 H         1 UNK         0.2976 
     85 H85        20.2994  -25.7065  -43.1455 H         1 UNK         0.3116 
     86 H86        19.9692  -28.2524  -41.9705 H         1 UNK         0.0646 
     87 H87        18.1400  -26.6355  -42.1437 H         1 UNK         0.0847 
     88 H88        18.9753  -25.5055  -41.0791 H         1 UNK         0.0847 
     89 H89        18.3855  -27.0444  -40.4635 H         1 UNK         0.0847 
     90 H90        22.4695  -28.2130  -41.6328 H         1 UNK         0.3040 
     91 H91        22.8673  -28.8283  -38.8937 H         1 UNK         0.1015 
     92 H92        24.8006  -27.2628  -38.4124 H         1 UNK         0.0786 
     93 H93        23.2766  -26.4050  -38.5236 H         1 UNK         0.0786 
     94 H94        24.4143  -26.3546  -39.8686 H         1 UNK         0.0786 
     95 H95        24.1958  -28.1982  -42.1212 H         1 UNK         0.3172 
     96 H96        26.7480  -29.2910  -41.7957 H         1 UNK         0.0595 
     97 H97        25.0811  -29.0260  -44.3518 H         1 UNK         0.0839 
     98 H98        26.8285  -29.1857  -44.2753 H         1 UNK         0.0839 
     99 H99        26.0596  -27.7416  -43.6377 H         1 UNK         0.0839 
    100 H100       23.7330  -30.9606  -42.5059 H         1 UNK         0.2998 
    101 H101       25.1026  -33.4856  -43.2338 H         1 UNK         0.0822 
    102 H102       23.0996  -32.6743  -44.5461 H         1 UNK         0.0787 
    103 H103       22.8732  -34.2630  -43.8382 H         1 UNK         0.0787 
    104 H104       22.1088  -32.8688  -43.0994 H         1 UNK         0.0787 
    105 H105       24.9669  -32.1279  -40.4107 H         1 UNK         0.3055 
    106 H106       24.8637  -32.6499  -38.2636 H         1 UNK         0.1106 
    107 H107       24.7242  -35.6098  -39.0585 H         1 UNK         0.0828 
    108 H108       25.1335  -34.9675  -37.4778 H         1 UNK         0.0828 
    109 H109       26.2091  -34.6855  -38.8369 H         1 UNK         0.0828 
    110 H110       22.7080  -31.6422  -39.2780 H         1 UNK         0.2931 
    111 H111       20.3261  -33.1178  -39.1789 H         1 UNK         0.0412 
    112 H112       21.9900  -31.9029  -36.3714 H         1 UNK         0.3472 
    113 H113       20.6130  -31.9797  -35.3004 H         1 UNK         0.3472 
    114 H114       20.5888  -30.0793  -39.0376 H         1 UNK         0.0970 
    115 H115       19.1831  -30.9716  -39.5384 H         1 UNK         0.0970 
    116 H116       19.0857  -32.1626  -42.2635 H         1 UNK         0.0612 
    117 H117       18.5767  -30.5841  -41.7022 H         1 UNK         0.0612 
@<TRIPOS>BOND
     1    1    2 1    
     2    1   62 1    
     3    1   63 1    
     4    1   64 1    
     5    2    3 2    
     6    2    4 am   BACKBONE|DICT|INTERRES
     7    4    5 1    
     8    4   65 1    
     9    5    6 1    
    10    5   25 1    
    11    5   66 1    
    12    6    7 1    
    13    6   67 1    
    14    6   68 1    
    15    7    8 1    
    16    8    9 1    
    17    8   69 1    
    18    8   70 1    
    19    9   10 ar   
    20    9   14 ar   
    21   10   11 ar   
    22   10   71 1    
    23   11   12 ar   
    24   11   61 1    
    25   12   13 ar   
    26   12   72 1    
    27   13   14 ar   
    28   13   15 1    
    29   14   73 1    
    30   15   16 1    
    31   15   74 1    
    32   15   75 1    
    33   16   17 1    
    34   17   18 1    
    35   17   76 1    
    36   17   77 1    
    37   18   19 1    
    38   18   27 1    
    39   18   78 1    
    40   19   20 am   BACKBONE|DICT|INTERRES
    41   19   79 1    
    42   20   21 2    
    43   20   22 1    
    44   22   23 1    
    45   22   24 1    
    46   22   80 1    
    47   23   81 1    
    48   23   82 1    
    49   23   83 1    
    50   24   25 am   BACKBONE|DICT|INTERRES
    51   24   84 1    
    52   25   26 2    
    53   27   28 2    
    54   27   29 am   BACKBONE|DICT|INTERRES
    55   29   30 1    
    56   29   85 1    
    57   30   31 1    
    58   30   32 1    
    59   30   86 1    
    60   31   87 1    
    61   31   88 1    
    62   31   89 1    
    63   32   33 2    
    64   32   34 am   BACKBONE|DICT|INTERRES
    65   34   35 1    
    66   34   90 1    
    67   35   36 1    
    68   35   37 1    
    69   35   91 1    
    70   36   92 1    
    71   36   93 1    
    72   36   94 1    
    73   37   38 2    
    74   37   39 am   BACKBONE|DICT|INTERRES
    75   39   40 1    
    76   39   95 1    
    77   40   41 1    
    78   40   42 1    
    79   40   96 1    
    80   41   97 1    
    81   41   98 1    
    82   41   99 1    
    83   42   43 2    
    84   42   44 am   BACKBONE|DICT|INTERRES
    85   44   45 1    
    86   44  100 1    
    87   45   46 1    
    88   45   47 1    
    89   45  101 1    
    90   46  102 1    
    91   46  103 1    
    92   46  104 1    
    93   47   48 2    
    94   47   49 am   BACKBONE|DICT|INTERRES
    95   49   50 1    
    96   49  105 1    
    97   50   51 1    
    98   50   52 1    
    99   50  106 1    
   100   51  107 1    
   101   51  108 1    
   102   51  109 1    
   103   52   53 2    
   104   52   54 am   BACKBONE|DICT|INTERRES
   105   54   55 1    
   106   54  110 1    
   107   55   56 1    
   108   55   59 1    
   109   55  111 1    
   110   56   57 am   BACKBONE|DICT|INTERRES
   111   56   58 2    
   112   57  112 1    
   113   57  113 1    
   114   59   60 1    
   115   59  114 1    
   116   59  115 1    
   117   60   61 1    
   118   61  116 1    
   119   61  117 1    
@<TRIPOS>SUBSTRUCTURE
     1 UNK         1 GROUP             0       ****    0 ROOT    
