@<TRIPOS>MOLECULE
3R8
117   119    1
SMALL
USER_CHARGES


@<TRIPOS>ATOM
      1 CA         11.8964  -28.8033  -42.5301 C.3       0 UNK        -0.2013 
      2 C          13.2576  -28.7345  -43.2073 C.2       0 UNK         0.4866 
      3 O          13.7970  -29.7743  -43.5861 O.2       0 UNK        -0.5176 
      4 N          13.7966  -27.5164  -43.3660 N.am      1 UNK        -0.4884 
      5 CA         15.1168  -27.1868  -43.9256 C.3       1 UNK         0.0853 
      6 C6         15.3447  -27.7915  -45.3406 C.3       10 UNK        -0.0849 
      7 S7         16.6157  -26.9236  -46.3277 S.3       10 UNK        -0.2776 
      8 C8         17.5028  -28.3085  -47.1150 C.3       10 UNK         0.0316 
      9 C9         18.5566  -28.9463  -46.2143 C.ar      10 UNK        -0.0863 
     10 C10        18.2067  -29.9783  -45.3375 C.ar      10 UNK        -0.1009 
     11 C11        19.1793  -30.6238  -44.5702 C.ar      10 UNK        -0.0712 
     12 C12        20.5174  -30.2455  -44.6968 C.ar      10 UNK        -0.0894 
     13 C13        20.8867  -29.2212  -45.5730 C.ar      10 UNK        -0.0745 
     14 C14        19.8998  -28.5625  -46.3162 C.ar      10 UNK        -0.0972 
     15 C15        22.3614  -28.8935  -45.7677 C.3       10 UNK         0.0209 
     16 S16        23.0748  -27.9944  -44.3570 S.3       10 UNK        -0.2568 
     17 C17        22.6227  -26.2690  -44.7416 C.3       10 UNK        -0.0983 
     18 CA         22.0850  -25.4685  -43.5253 C.3       3 UNK         0.0876 
     19 N          20.9674  -26.1352  -42.8618 N.am      3 UNK        -0.4424 
     20 C          19.7099  -26.1269  -43.3044 C.2       2 UNK         0.4918 
     21 O          19.3502  -25.5206  -44.3187 O.2       2 UNK        -0.4875 
     22 CA         18.6773  -26.8972  -42.4661 C.3       2 UNK         0.0481 
     23 CB         18.5165  -26.2655  -41.0670 C.3       2 UNK        -0.1831 
     24 N          17.4198  -26.8637  -43.2047 N.am      2 UNK        -0.4498 
     25 C          16.2671  -27.4790  -42.9306 C.2       1 UNK         0.5027 
     26 O          16.0890  -28.1925  -41.9405 O.2       1 UNK        -0.4969 
     27 C          23.1582  -25.1148  -42.4779 C.2       3 UNK         0.5005 
     28 O          23.0412  -25.5192  -41.3172 O.2       3 UNK        -0.5279 
     29 N          24.1603  -24.3260  -42.8917 N.am      4 UNK        -0.4463 
     30 CA         25.1961  -23.7610  -42.0189 C.3       4 UNK         0.0283 
     31 CB         25.9424  -22.6496  -42.7753 C.3       4 UNK        -0.1875 
     32 C          26.1984  -24.7869  -41.4598 C.2       4 UNK         0.4949 
     33 O          26.7538  -24.5528  -40.3857 O.2       4 UNK        -0.5039 
     34 N          26.4255  -25.8873  -42.1845 N.am      5 UNK        -0.4663 
     35 CA         27.3255  -26.9737  -41.8059 C.3       5 UNK         0.0242 
     36 CB         28.7754  -26.6188  -42.1843 C.3       5 UNK        -0.1982 
     37 C          26.8694  -28.2514  -42.5152 C.2       5 UNK         0.5017 
     38 O          26.3399  -28.1633  -43.6240 O.2       5 UNK        -0.5012 
     39 N          27.0970  -29.4038  -41.8677 N.am      6 UNK        -0.4439 
     40 CA         26.6845  -30.7517  -42.2905 C.3       6 UNK         0.0297 
     41 CB         27.3729  -31.1649  -43.6097 C.3       6 UNK        -0.2006 
     42 C          25.1525  -30.9417  -42.3290 C.2       6 UNK         0.4892 
     43 O          24.6479  -31.7400  -43.1222 O.2       6 UNK        -0.5089 
     44 N          24.4371  -30.2272  -41.4488 N.am      7 UNK        -0.4243 
     45 CA         22.9864  -30.3002  -41.2823 C.3       7 UNK         0.0196 
     46 CB         22.4842  -28.9965  -40.6381 C.3       7 UNK        -0.2007 
     47 C          22.5930  -31.5446  -40.4709 C.2       7 UNK         0.5020 
     48 O          22.2379  -31.4324  -39.2967 O.2       7 UNK        -0.5147 
     49 N          22.6740  -32.7187  -41.1106 N.am      8 UNK        -0.4734 
     50 CA         22.3710  -34.0336  -40.5265 C.3       8 UNK         0.0238 
     51 CB         22.6914  -35.1263  -41.5592 C.3       8 UNK        -0.1912 
     52 C          20.9270  -34.1883  -40.0097 C.2       8 UNK         0.5038 
     53 O          20.6865  -35.0128  -39.1270 O.2       8 UNK        -0.5046 
     54 N          20.0071  -33.3851  -40.5556 N.am      9 UNK        -0.4200 
     55 CA         18.6253  -33.2217  -40.0878 C.3       9 UNK         0.0839 
     56 C          18.4718  -32.4129  -38.7646 C.2       9 UNK         0.5513 
     57 N          19.5094  -31.7727  -38.2372 N.am      9 UNK        -0.7519 
     58 O          17.3850  -32.3824  -38.1929 O.2       9 UNK        -0.4960 
     59 C59        17.7096  -32.6783  -41.2167 C.3       10 UNK        -0.0876 
     60 S60        18.3223  -31.1405  -41.9972 S.3       10 UNK        -0.2414 
     61 C61        18.7846  -31.7603  -43.6420 C.3       10 UNK         0.0169 
     62 H62        11.1701  -29.2714  -43.1941 H         1 UNK         0.0903 
     63 H63        11.9609  -29.4005  -41.6208 H         1 UNK         0.0903 
     64 H64        11.5217  -27.8159  -42.2608 H         1 UNK         0.0903 
     65 H65        13.2889  -26.7206  -43.0038 H         1 UNK         0.3096 
     66 H66        15.0922  -26.1011  -44.0381 H         1 UNK         0.1121 
     67 H67        15.5711  -28.8532  -45.2711 H         1 UNK         0.0849 
     68 H68        14.4182  -27.7329  -45.9140 H         1 UNK         0.0849 
     69 H69        16.7868  -29.0617  -47.4479 H         1 UNK         0.0865 
     70 H70        17.9784  -27.9357  -48.0235 H         1 UNK         0.0865 
     71 H71        17.1803  -30.3058  -45.2630 H         1 UNK         0.1346 
     72 H72        21.2783  -30.7661  -44.1338 H         1 UNK         0.1412 
     73 H73        20.1819  -27.7780  -47.0051 H         1 UNK         0.1426 
     74 H74        22.5207  -28.3259  -46.6858 H         1 UNK         0.0716 
     75 H75        22.9151  -29.8253  -45.8925 H         1 UNK         0.0716 
     76 H76        21.8598  -26.2727  -45.5213 H         1 UNK         0.0695 
     77 H77        23.4878  -25.7769  -45.1882 H         1 UNK         0.0695 
     78 H78        21.7214  -24.5068  -43.8952 H         1 UNK         0.0983 
     79 H79        21.2120  -26.5823  -41.9884 H         1 UNK         0.3095 
     80 H80        19.0050  -27.9349  -42.3768 H         1 UNK         0.0454 
     81 H81        19.4601  -26.2626  -40.5206 H         1 UNK         0.0851 
     82 H82        17.8039  -26.8171  -40.4544 H         1 UNK         0.0851 
     83 H83        18.1728  -25.2324  -41.1308 H         1 UNK         0.0851 
     84 H84        17.4974  -26.3385  -44.0709 H         1 UNK         0.2976 
     85 H85        24.1859  -24.0398  -43.8603 H         1 UNK         0.3116 
     86 H86        24.6936  -23.3049  -41.1629 H         1 UNK         0.0646 
     87 H87        25.2638  -21.8577  -43.0928 H         1 UNK         0.0847 
     88 H88        26.4513  -23.0338  -43.6602 H         1 UNK         0.0847 
     89 H89        26.7000  -22.1869  -42.1410 H         1 UNK         0.0847 
     90 H90        25.9029  -26.0486  -43.0371 H         1 UNK         0.3040 
     91 H91        27.2583  -27.1314  -40.7269 H         1 UNK         0.1015 
     92 H92        28.8774  -26.4371  -43.2551 H         1 UNK         0.0786 
     93 H93        29.4586  -27.4281  -41.9233 H         1 UNK         0.0786 
     94 H94        29.1173  -25.7264  -41.6598 H         1 UNK         0.0786 
     95 H95        27.5654  -29.3591  -40.9722 H         1 UNK         0.3172 
     96 H96        27.0442  -31.4294  -41.5149 H         1 UNK         0.0595 
     97 H97        26.9995  -30.5927  -44.4595 H         1 UNK         0.0839 
     98 H98        27.1952  -32.2185  -43.8290 H         1 UNK         0.0839 
     99 H99        28.4523  -31.0241  -43.5571 H         1 UNK         0.0839 
    100 H100       24.9320  -29.6187  -40.8140 H         1 UNK         0.2998 
    101 H101       22.5224  -30.3786  -42.2663 H         1 UNK         0.0822 
    102 H102       22.7337  -28.1375  -41.2586 H         1 UNK         0.0787 
    103 H103       21.3994  -29.0112  -40.5227 H         1 UNK         0.0787 
    104 H104       22.9185  -28.8335  -39.6510 H         1 UNK         0.0787 
    105 H105       23.0551  -32.7100  -42.0509 H         1 UNK         0.3055 
    106 H106       23.0302  -34.1683  -39.6661 H         1 UNK         0.1106 
    107 H107       23.7384  -35.0929  -41.8614 H         1 UNK         0.0828 
    108 H108       22.5069  -36.1198  -41.1478 H         1 UNK         0.0828 
    109 H109       22.0789  -35.0259  -42.4561 H         1 UNK         0.0828 
    110 H110       20.3080  -32.7260  -41.2570 H         1 UNK         0.2931 
    111 H111       18.2567  -34.2211  -39.8485 H         1 UNK         0.0412 
    112 H112       20.4193  -31.7739  -38.6875 H         1 UNK         0.3472 
    113 H113       19.3829  -31.2640  -37.3770 H         1 UNK         0.3472 
    114 H114       17.5930  -33.4486  -41.9802 H         1 UNK         0.0970 
    115 H115       16.6994  -32.4970  -40.8445 H         1 UNK         0.0970 
    116 H116       17.9452  -32.3088  -44.0724 H         1 UNK         0.0612 
    117 H117       19.6040  -32.4742  -43.5449 H         1 UNK         0.0612 
@<TRIPOS>BOND
     1    1    2 1    
     2    1   62 1    
     3    1   63 1    
     4    1   64 1    
     5    2    3 2    
     6    2    4 am   BACKBONE|DICT|INTERRES
     7    4    5 1    
     8    4   65 1    
     9    5    6 1    
    10    5   25 1    
    11    5   66 1    
    12    6    7 1    
    13    6   67 1    
    14    6   68 1    
    15    7    8 1    
    16    8    9 1    
    17    8   69 1    
    18    8   70 1    
    19    9   10 ar   
    20    9   14 ar   
    21   10   11 ar   
    22   10   71 1    
    23   11   12 ar   
    24   11   61 1    
    25   12   13 ar   
    26   12   72 1    
    27   13   14 ar   
    28   13   15 1    
    29   14   73 1    
    30   15   16 1    
    31   15   74 1    
    32   15   75 1    
    33   16   17 1    
    34   17   18 1    
    35   17   76 1    
    36   17   77 1    
    37   18   19 1    
    38   18   27 1    
    39   18   78 1    
    40   19   20 am   BACKBONE|DICT|INTERRES
    41   19   79 1    
    42   20   21 2    
    43   20   22 1    
    44   22   23 1    
    45   22   24 1    
    46   22   80 1    
    47   23   81 1    
    48   23   82 1    
    49   23   83 1    
    50   24   25 am   BACKBONE|DICT|INTERRES
    51   24   84 1    
    52   25   26 2    
    53   27   28 2    
    54   27   29 am   BACKBONE|DICT|INTERRES
    55   29   30 1    
    56   29   85 1    
    57   30   31 1    
    58   30   32 1    
    59   30   86 1    
    60   31   87 1    
    61   31   88 1    
    62   31   89 1    
    63   32   33 2    
    64   32   34 am   BACKBONE|DICT|INTERRES
    65   34   35 1    
    66   34   90 1    
    67   35   36 1    
    68   35   37 1    
    69   35   91 1    
    70   36   92 1    
    71   36   93 1    
    72   36   94 1    
    73   37   38 2    
    74   37   39 am   BACKBONE|DICT|INTERRES
    75   39   40 1    
    76   39   95 1    
    77   40   41 1    
    78   40   42 1    
    79   40   96 1    
    80   41   97 1    
    81   41   98 1    
    82   41   99 1    
    83   42   43 2    
    84   42   44 am   BACKBONE|DICT|INTERRES
    85   44   45 1    
    86   44  100 1    
    87   45   46 1    
    88   45   47 1    
    89   45  101 1    
    90   46  102 1    
    91   46  103 1    
    92   46  104 1    
    93   47   48 2    
    94   47   49 am   BACKBONE|DICT|INTERRES
    95   49   50 1    
    96   49  105 1    
    97   50   51 1    
    98   50   52 1    
    99   50  106 1    
   100   51  107 1    
   101   51  108 1    
   102   51  109 1    
   103   52   53 2    
   104   52   54 am   BACKBONE|DICT|INTERRES
   105   54   55 1    
   106   54  110 1    
   107   55   56 1    
   108   55   59 1    
   109   55  111 1    
   110   56   57 am   BACKBONE|DICT|INTERRES
   111   56   58 2    
   112   57  112 1    
   113   57  113 1    
   114   59   60 1    
   115   59  114 1    
   116   59  115 1    
   117   60   61 1    
   118   61  116 1    
   119   61  117 1    
@<TRIPOS>SUBSTRUCTURE
     1 UNK         1 GROUP             0       ****    0 ROOT    
