@<TRIPOS>MOLECULE
3R8
117   119    1
SMALL
USER_CHARGES


@<TRIPOS>ATOM
      1 CA         18.4304  -21.9021  -48.0959 C.3       0 UNK        -0.2013 
      2 C          19.1599  -23.2059  -47.8089 C.2       0 UNK         0.4866 
      3 O          20.3516  -23.3163  -48.0974 O.2       0 UNK        -0.5176 
      4 N          18.4537  -24.1954  -47.2446 N.am      1 UNK        -0.4884 
      5 CA         18.9980  -25.5158  -46.8931 C.3       1 UNK         0.0853 
      6 C6         17.8656  -26.5524  -46.6272 C.3       10 UNK        -0.0849 
      7 S7         18.0047  -28.0604  -47.6462 S.3       10 UNK        -0.2776 
      8 C8         19.1655  -29.1101  -46.6950 C.3       10 UNK         0.0316 
      9 C9         18.7030  -29.5877  -45.3145 C.ar      10 UNK        -0.0863 
     10 C10        19.6562  -30.1616  -44.4656 C.ar      10 UNK        -0.1009 
     11 C11        19.3108  -30.6174  -43.1894 C.ar      10 UNK        -0.0712 
     12 C12        17.9812  -30.5088  -42.7686 C.ar      10 UNK        -0.0894 
     13 C13        17.0220  -29.9041  -43.5857 C.ar      10 UNK        -0.0745 
     14 C14        17.3806  -29.4722  -44.8656 C.ar      10 UNK        -0.0972 
     15 C15        15.6156  -29.6560  -43.0578 C.3       10 UNK         0.0209 
     16 S16        15.6259  -28.6570  -41.5276 S.3       10 UNK        -0.2568 
     17 C17        16.4378  -27.1019  -42.0519 C.3       10 UNK        -0.0983 
     18 CA         17.9820  -27.0902  -41.8875 C.3       3 UNK         0.0876 
     19 N          18.5791  -25.8905  -42.4782 N.am      3 UNK        -0.4424 
     20 C          19.8957  -25.6571  -42.5902 C.2       2 UNK         0.4918 
     21 O          20.7687  -26.3990  -42.1368 O.2       2 UNK        -0.4875 
     22 CA         20.2786  -24.4138  -43.4148 C.3       2 UNK         0.0481 
     23 CB         21.7994  -24.1509  -43.4515 C.3       2 UNK        -0.1831 
     24 N          19.7104  -24.5053  -44.7670 N.am      2 UNK        -0.4498 
     25 C          19.9577  -25.4570  -45.6851 C.2       1 UNK         0.5027 
     26 O          20.8583  -26.2904  -45.5945 O.2       1 UNK        -0.4969 
     27 C          18.4510  -27.3195  -40.4344 C.2       3 UNK         0.5005 
     28 O          18.5026  -26.3711  -39.6479 O.2       3 UNK        -0.5279 
     29 N          18.8414  -28.5686  -40.1428 N.am      4 UNK        -0.4463 
     30 CA         19.4530  -29.0951  -38.9141 C.3       4 UNK         0.0283 
     31 CB         18.5600  -28.8538  -37.6819 C.3       4 UNK        -0.1875 
     32 C          20.8973  -28.6209  -38.6587 C.2       4 UNK         0.4949 
     33 O          21.6740  -29.3803  -38.0804 O.2       4 UNK        -0.5039 
     34 N          21.2429  -27.4002  -39.0864 N.am      5 UNK        -0.4663 
     35 CA         22.5806  -26.8168  -38.9658 C.3       5 UNK         0.0242 
     36 CB         22.4842  -25.2913  -39.1295 C.3       5 UNK        -0.1982 
     37 C          23.5867  -27.4070  -39.9686 C.2       5 UNK         0.5017 
     38 O          24.7625  -27.5418  -39.6263 O.2       5 UNK        -0.5012 
     39 N          23.1169  -27.7260  -41.1832 N.am      6 UNK        -0.4439 
     40 CA         23.9010  -28.3101  -42.2733 C.3       6 UNK         0.0297 
     41 CB         23.0200  -28.4177  -43.5271 C.3       6 UNK        -0.2006 
     42 C          24.4935  -29.6849  -41.9205 C.2       6 UNK         0.4892 
     43 O          23.8246  -30.5009  -41.2810 O.2       6 UNK        -0.5089 
     44 N          25.7232  -29.9244  -42.3991 N.am      7 UNK        -0.4243 
     45 CA         26.5408  -31.1162  -42.1366 C.3       7 UNK         0.0196 
     46 CB         27.9128  -30.9425  -42.8078 C.3       7 UNK        -0.2007 
     47 C          25.9069  -32.4539  -42.5572 C.2       7 UNK         0.5020 
     48 O          26.2633  -33.4877  -41.9919 O.2       7 UNK        -0.5147 
     49 N          24.9534  -32.4170  -43.4990 N.am      8 UNK        -0.4734 
     50 CA         24.1344  -33.5609  -43.9175 C.3       8 UNK         0.0238 
     51 CB         23.2330  -33.1323  -45.0875 C.3       8 UNK        -0.1912 
     52 C          23.2873  -34.1722  -42.7828 C.2       8 UNK         0.5038 
     53 O          22.9575  -35.3566  -42.8568 O.2       8 UNK        -0.5046 
     54 N          22.9722  -33.3671  -41.7602 N.am      9 UNK        -0.4200 
     55 CA         22.2879  -33.7837  -40.5289 C.3       9 UNK         0.0839 
     56 C          23.2683  -34.1708  -39.3825 C.2       9 UNK         0.5513 
     57 N          24.5814  -34.1763  -39.5850 N.am      9 UNK        -0.7519 
     58 O          22.8271  -34.4971  -38.2836 O.2       9 UNK        -0.4960 
     59 C59        21.2600  -32.7141  -40.0764 C.3       10 UNK        -0.0876 
     60 S60        19.8677  -32.5639  -41.2462 S.3       10 UNK        -0.2414 
     61 C61        20.3974  -31.1419  -42.2538 C.3       10 UNK         0.0169 
     62 H62        18.9044  -21.0809  -47.5587 H         1 UNK         0.0903 
     63 H63        18.4681  -21.6784  -49.1618 H         1 UNK         0.0903 
     64 H64        17.3835  -21.9443  -47.7957 H         1 UNK         0.0903 
     65 H65        17.4731  -24.0508  -47.0468 H         1 UNK         0.3096 
     66 H66        19.5970  -25.8487  -47.7444 H         1 UNK         0.1121 
     67 H67        16.8908  -26.1238  -46.8651 H         1 UNK         0.0849 
     68 H68        17.7871  -26.8293  -45.5740 H         1 UNK         0.0849 
     69 H69        19.3827  -29.9930  -47.2976 H         1 UNK         0.0865 
     70 H70        20.1114  -28.5770  -46.5965 H         1 UNK         0.0865 
     71 H71        20.6818  -30.2394  -44.7997 H         1 UNK         0.1346 
     72 H72        17.6939  -30.8441  -41.7814 H         1 UNK         0.1412 
     73 H73        16.6268  -29.0234  -45.4963 H         1 UNK         0.1426 
     74 H74        15.1379  -30.6149  -42.8530 H         1 UNK         0.0716 
     75 H75        14.9975  -29.1544  -43.8041 H         1 UNK         0.0716 
     76 H76        15.9963  -26.2841  -41.4795 H         1 UNK         0.0695 
     77 H77        16.1725  -26.9152  -43.0939 H         1 UNK         0.0695 
     78 H78        18.3911  -27.8984  -42.4900 H         1 UNK         0.0983 
     79 H79        17.9356  -25.2113  -42.8548 H         1 UNK         0.3095 
     80 H80        19.8079  -23.5563  -42.9319 H         1 UNK         0.0454 
     81 H81        22.3531  -24.9874  -43.8775 H         1 UNK         0.0851 
     82 H82        22.1885  -23.9890  -42.4459 H         1 UNK         0.0851 
     83 H83        22.0334  -23.2624  -44.0374 H         1 UNK         0.0851 
     84 H84        18.9635  -23.8567  -44.9725 H         1 UNK         0.2976 
     85 H85        18.7626  -29.2480  -40.8862 H         1 UNK         0.3116 
     86 H86        19.5100  -30.1745  -39.0636 H         1 UNK         0.0646 
     87 H87        18.4868  -27.7957  -37.4295 H         1 UNK         0.0847 
     88 H88        18.9626  -29.3651  -36.8066 H         1 UNK         0.0847 
     89 H89        17.5505  -29.2320  -37.8427 H         1 UNK         0.0847 
     90 H90        20.5257  -26.8321  -39.5239 H         1 UNK         0.3040 
     91 H91        22.9570  -27.0282  -37.9622 H         1 UNK         0.1015 
     92 H92        22.0911  -25.0137  -40.1079 H         1 UNK         0.0786 
     93 H93        23.4650  -24.8248  -39.0271 H         1 UNK         0.0786 
     94 H94        21.8358  -24.8517  -38.3713 H         1 UNK         0.0786 
     95 H95        22.1510  -27.4910  -41.3959 H         1 UNK         0.3172 
     96 H96        24.7211  -27.6215  -42.4870 H         1 UNK         0.0595 
     97 H97        23.5569  -28.8807  -44.3558 H         1 UNK         0.0839 
     98 H98        22.6924  -27.4354  -43.8664 H         1 UNK         0.0839 
     99 H99        22.1289  -29.0135  -43.3364 H         1 UNK         0.0839 
    100 H100       26.1706  -29.1959  -42.9371 H         1 UNK         0.2998 
    101 H101       26.6928  -31.1667  -41.0563 H         1 UNK         0.0822 
    102 H102       28.5578  -31.7996  -42.6075 H         1 UNK         0.0787 
    103 H103       27.8232  -30.8487  -43.8908 H         1 UNK         0.0787 
    104 H104       28.4300  -30.0585  -42.4341 H         1 UNK         0.0787 
    105 H105       24.7313  -31.5220  -43.9094 H         1 UNK         0.3055 
    106 H106       24.8115  -34.3426  -44.2689 H         1 UNK         0.1106 
    107 H107       22.6234  -33.9673  -45.4363 H         1 UNK         0.0828 
    108 H108       22.5516  -32.3303  -44.8019 H         1 UNK         0.0828 
    109 H109       23.8217  -32.7877  -45.9378 H         1 UNK         0.0828 
    110 H110       23.3155  -32.4120  -41.7621 H         1 UNK         0.2931 
    111 H111       21.7267  -34.6972  -40.7341 H         1 UNK         0.0412 
    112 H112       25.1903  -34.4398  -38.8266 H         1 UNK         0.3472 
    113 H113       24.9791  -33.9410  -40.4868 H         1 UNK         0.3472 
    114 H114       21.7432  -31.7458  -39.9307 H         1 UNK         0.0970 
    115 H115       20.8281  -32.9787  -39.1095 H         1 UNK         0.0970 
    116 H116       21.2776  -31.4352  -42.8263 H         1 UNK         0.0612 
    117 H117       20.7130  -30.3296  -41.5981 H         1 UNK         0.0612 
@<TRIPOS>BOND
     1    1    2 1    
     2    1   62 1    
     3    1   63 1    
     4    1   64 1    
     5    2    3 2    
     6    2    4 am   BACKBONE|DICT|INTERRES
     7    4    5 1    
     8    4   65 1    
     9    5    6 1    
    10    5   25 1    
    11    5   66 1    
    12    6    7 1    
    13    6   67 1    
    14    6   68 1    
    15    7    8 1    
    16    8    9 1    
    17    8   69 1    
    18    8   70 1    
    19    9   10 ar   
    20    9   14 ar   
    21   10   11 ar   
    22   10   71 1    
    23   11   12 ar   
    24   11   61 1    
    25   12   13 ar   
    26   12   72 1    
    27   13   14 ar   
    28   13   15 1    
    29   14   73 1    
    30   15   16 1    
    31   15   74 1    
    32   15   75 1    
    33   16   17 1    
    34   17   18 1    
    35   17   76 1    
    36   17   77 1    
    37   18   19 1    
    38   18   27 1    
    39   18   78 1    
    40   19   20 am   BACKBONE|DICT|INTERRES
    41   19   79 1    
    42   20   21 2    
    43   20   22 1    
    44   22   23 1    
    45   22   24 1    
    46   22   80 1    
    47   23   81 1    
    48   23   82 1    
    49   23   83 1    
    50   24   25 am   BACKBONE|DICT|INTERRES
    51   24   84 1    
    52   25   26 2    
    53   27   28 2    
    54   27   29 am   BACKBONE|DICT|INTERRES
    55   29   30 1    
    56   29   85 1    
    57   30   31 1    
    58   30   32 1    
    59   30   86 1    
    60   31   87 1    
    61   31   88 1    
    62   31   89 1    
    63   32   33 2    
    64   32   34 am   BACKBONE|DICT|INTERRES
    65   34   35 1    
    66   34   90 1    
    67   35   36 1    
    68   35   37 1    
    69   35   91 1    
    70   36   92 1    
    71   36   93 1    
    72   36   94 1    
    73   37   38 2    
    74   37   39 am   BACKBONE|DICT|INTERRES
    75   39   40 1    
    76   39   95 1    
    77   40   41 1    
    78   40   42 1    
    79   40   96 1    
    80   41   97 1    
    81   41   98 1    
    82   41   99 1    
    83   42   43 2    
    84   42   44 am   BACKBONE|DICT|INTERRES
    85   44   45 1    
    86   44  100 1    
    87   45   46 1    
    88   45   47 1    
    89   45  101 1    
    90   46  102 1    
    91   46  103 1    
    92   46  104 1    
    93   47   48 2    
    94   47   49 am   BACKBONE|DICT|INTERRES
    95   49   50 1    
    96   49  105 1    
    97   50   51 1    
    98   50   52 1    
    99   50  106 1    
   100   51  107 1    
   101   51  108 1    
   102   51  109 1    
   103   52   53 2    
   104   52   54 am   BACKBONE|DICT|INTERRES
   105   54   55 1    
   106   54  110 1    
   107   55   56 1    
   108   55   59 1    
   109   55  111 1    
   110   56   57 am   BACKBONE|DICT|INTERRES
   111   56   58 2    
   112   57  112 1    
   113   57  113 1    
   114   59   60 1    
   115   59  114 1    
   116   59  115 1    
   117   60   61 1    
   118   61  116 1    
   119   61  117 1    
@<TRIPOS>SUBSTRUCTURE
     1 UNK         1 GROUP             0       ****    0 ROOT    
