@<TRIPOS>MOLECULE
3R8
117   119    1
SMALL
USER_CHARGES


@<TRIPOS>ATOM
      1 CA         17.3914  -23.3673  -40.3660 C.3       0 UNK        -0.2013 
      2 C          17.7067  -23.6344  -41.8302 C.2       0 UNK         0.4866 
      3 O          18.1665  -22.7326  -42.5318 O.2       0 UNK        -0.5176 
      4 N          17.4563  -24.8644  -42.2973 N.am      1 UNK        -0.4884 
      5 CA         17.7907  -25.3277  -43.6489 C.3       1 UNK         0.0853 
      6 C6         17.0003  -26.6115  -44.0046 C.3       10 UNK        -0.0849 
      7 S7         16.7165  -26.7590  -45.7988 S.3       10 UNK        -0.2776 
      8 C8         15.7053  -28.2708  -45.8680 C.3       10 UNK         0.0316 
      9 C9         16.5201  -29.5084  -45.5236 C.ar      10 UNK        -0.0863 
     10 C10        16.3206  -30.1788  -44.3117 C.ar      10 UNK        -0.1009 
     11 C11        17.0629  -31.3239  -44.0023 C.ar      10 UNK        -0.0712 
     12 C12        17.9999  -31.7998  -44.9230 C.ar      10 UNK        -0.0894 
     13 C13        18.2458  -31.1062  -46.1130 C.ar      10 UNK        -0.0745 
     14 C14        17.4859  -29.9756  -46.4190 C.ar      10 UNK        -0.0972 
     15 C15        19.3771  -31.5410  -47.0354 C.3       10 UNK         0.0209 
     16 S16        20.8363  -30.4470  -46.8930 S.3       10 UNK        -0.2568 
     17 C17        21.2261  -30.5686  -45.1113 C.3       10 UNK        -0.0983 
     18 CA         21.8553  -29.3059  -44.4687 C.3       3 UNK         0.0876 
     19 N          21.3193  -28.0390  -44.9801 N.am      3 UNK        -0.4424 
     20 C          21.9371  -26.8608  -44.8175 C.2       2 UNK         0.4918 
     21 O          22.9941  -26.7223  -44.2010 O.2       2 UNK        -0.4875 
     22 CA         21.2323  -25.6206  -45.3940 C.3       2 UNK         0.0481 
     23 CB         21.3973  -25.5646  -46.9211 C.3       2 UNK        -0.1831 
     24 N          19.8098  -25.5196  -45.0458 N.am      2 UNK        -0.4498 
     25 C          19.3141  -25.5351  -43.8002 C.2       1 UNK         0.5027 
     26 O          20.0049  -25.7344  -42.7986 O.2       1 UNK        -0.4969 
     27 C          21.7291  -29.4060  -42.9344 C.2       3 UNK         0.5005 
     28 O          22.4994  -30.1386  -42.3199 O.2       3 UNK        -0.5279 
     29 N          20.7520  -28.7069  -42.3376 N.am      4 UNK        -0.4463 
     30 CA         20.5605  -28.6427  -40.8877 C.3       4 UNK         0.0283 
     31 CB         19.1423  -28.1503  -40.5567 C.3       4 UNK        -0.1875 
     32 C          21.6264  -27.7514  -40.2356 C.2       4 UNK         0.4949 
     33 O          22.2017  -28.1401  -39.2188 O.2       4 UNK        -0.5039 
     34 N          21.8936  -26.5967  -40.8600 N.am      5 UNK        -0.4663 
     35 CA         22.9248  -25.6395  -40.4620 C.3       5 UNK         0.0242 
     36 CB         22.7429  -24.3408  -41.2639 C.3       5 UNK        -0.1982 
     37 C          24.3531  -26.1842  -40.6280 C.2       5 UNK         0.5017 
     38 O          25.1996  -25.9022  -39.7791 O.2       5 UNK        -0.5012 
     39 N          24.5937  -26.9556  -41.6964 N.am      6 UNK        -0.4439 
     40 CA         25.8821  -27.5739  -42.0003 C.3       6 UNK         0.0297 
     41 CB         26.6350  -26.6846  -43.0092 C.3       6 UNK        -0.2006 
     42 C          25.6718  -29.0087  -42.5220 C.2       6 UNK         0.4892 
     43 O          25.7058  -29.2113  -43.7352 O.2       6 UNK        -0.5089 
     44 N          25.4486  -30.0112  -41.6611 N.am      7 UNK        -0.4243 
     45 CA         25.2152  -29.9477  -40.2209 C.3       7 UNK         0.0196 
     46 CB         26.5484  -30.0158  -39.4500 C.3       7 UNK        -0.2007 
     47 C          24.3136  -31.1309  -39.8429 C.2       7 UNK         0.5020 
     48 O          24.6827  -32.2738  -40.1177 O.2       7 UNK        -0.5147 
     49 N          23.1731  -30.8371  -39.2042 N.am      8 UNK        -0.4734 
     50 CA         22.2013  -31.7770  -38.6249 C.3       8 UNK         0.0238 
     51 CB         22.8301  -32.5260  -37.4296 C.3       8 UNK        -0.1912 
     52 C          21.5116  -32.7345  -39.6242 C.2       8 UNK         0.5038 
     53 O          21.0573  -33.8028  -39.2087 O.2       8 UNK        -0.5046 
     54 N          21.4033  -32.3298  -40.8973 N.am      9 UNK        -0.4200 
     55 CA         20.7695  -33.0659  -42.0071 C.3       9 UNK         0.0839 
     56 C          21.5549  -34.3436  -42.4354 C.2       9 UNK         0.5513 
     57 N          21.0552  -35.0908  -43.4119 N.am      9 UNK        -0.7519 
     58 O          22.6314  -34.6561  -41.9318 O.2       9 UNK        -0.4960 
     59 C59        19.2470  -33.3287  -41.7866 C.3       10 UNK        -0.0876 
     60 S60        18.2712  -31.8015  -41.5372 S.3       10 UNK        -0.2414 
     61 C61        16.8589  -32.0376  -42.6717 C.3       10 UNK         0.0169 
     62 H62        18.2981  -23.0774  -39.8355 H         1 UNK         0.0903 
     63 H63        16.6705  -22.5549  -40.2789 H         1 UNK         0.0903 
     64 H64        16.9754  -24.2446  -39.8708 H         1 UNK         0.0903 
     65 H65        17.0975  -25.5669  -41.6673 H         1 UNK         0.3096 
     66 H66        17.4964  -24.5303  -44.3360 H         1 UNK         0.1121 
     67 H67        17.4938  -27.5094  -43.6263 H         1 UNK         0.0849 
     68 H68        16.0163  -26.5897  -43.5325 H         1 UNK         0.0849 
     69 H69        14.8458  -28.1681  -45.2035 H         1 UNK         0.0865 
     70 H70        15.2992  -28.3786  -46.8749 H         1 UNK         0.0865 
     71 H71        15.5892  -29.8070  -43.6071 H         1 UNK         0.1346 
     72 H72        18.5846  -32.6764  -44.6849 H         1 UNK         0.1412 
     73 H73        17.6693  -29.4387  -47.3401 H         1 UNK         0.1426 
     74 H74        19.0279  -31.5357  -48.0689 H         1 UNK         0.0716 
     75 H75        19.6788  -32.5671  -46.8190 H         1 UNK         0.0716 
     76 H76        20.3185  -30.8206  -44.5716 H         1 UNK         0.0695 
     77 H77        21.8915  -31.4228  -44.9728 H         1 UNK         0.0695 
     78 H78        22.9234  -29.3219  -44.7002 H         1 UNK         0.0983 
     79 H79        20.4611  -28.0882  -45.5101 H         1 UNK         0.3095 
     80 H80        21.7259  -24.7430  -44.9714 H         1 UNK         0.0454 
     81 H81        22.4495  -25.6289  -47.2025 H         1 UNK         0.0851 
     82 H82        20.8773  -26.3851  -47.4172 H         1 UNK         0.0851 
     83 H83        21.0135  -24.6291  -47.3281 H         1 UNK         0.0851 
     84 H84        19.1654  -25.3951  -45.8145 H         1 UNK         0.2976 
     85 H85        20.1804  -28.0955  -42.9023 H         1 UNK         0.3116 
     86 H86        20.6614  -29.6496  -40.4802 H         1 UNK         0.0646 
     87 H87        18.9586  -28.2039  -39.4830 H         1 UNK         0.0847 
     88 H88        18.3839  -28.7626  -41.0446 H         1 UNK         0.0847 
     89 H89        18.9829  -27.1157  -40.8577 H         1 UNK         0.0847 
     90 H90        21.3226  -26.3400  -41.6634 H         1 UNK         0.3040 
     91 H91        22.7797  -25.4138  -39.4032 H         1 UNK         0.1015 
     92 H92        22.8506  -24.5112  -42.3361 H         1 UNK         0.0786 
     93 H93        23.4834  -23.5942  -40.9740 H         1 UNK         0.0786 
     94 H94        21.7577  -23.9053  -41.0944 H         1 UNK         0.0786 
     95 H95        23.8555  -27.1011  -42.3791 H         1 UNK         0.3172 
     96 H96        26.4973  -27.6319  -41.1034 H         1 UNK         0.0595 
     97 H97        27.5873  -27.1343  -43.2928 H         1 UNK         0.0839 
     98 H98        26.0576  -26.5331  -43.9224 H         1 UNK         0.0839 
     99 H99        26.8526  -25.7037  -42.5862 H         1 UNK         0.0839 
    100 H100       25.2808  -30.9312  -42.0461 H         1 UNK         0.2998 
    101 H101       24.6993  -29.0231  -39.9637 H         1 UNK         0.0822 
    102 H102       26.3713  -30.0138  -38.3737 H         1 UNK         0.0787 
    103 H103       27.1011  -30.9262  -39.6856 H         1 UNK         0.0787 
    104 H104       27.1995  -29.1709  -39.6669 H         1 UNK         0.0787 
    105 H105       22.9352  -29.8530  -39.0885 H         1 UNK         0.3055 
    106 H106       21.3967  -31.1558  -38.2278 H         1 UNK         0.1106 
    107 H107       23.6048  -33.2218  -37.7532 H         1 UNK         0.0828 
    108 H108       23.2770  -31.8332  -36.7166 H         1 UNK         0.0828 
    109 H109       22.0808  -33.1039  -36.8871 H         1 UNK         0.0828 
    110 H110       21.8687  -31.4691  -41.1746 H         1 UNK         0.2931 
    111 H111       20.8585  -32.3960  -42.8604 H         1 UNK         0.0412 
    112 H112       21.5664  -35.9100  -43.7026 H         1 UNK         0.3472 
    113 H113       20.1901  -34.8574  -43.8710 H         1 UNK         0.3472 
    114 H114       19.0900  -33.9795  -40.9256 H         1 UNK         0.0970 
    115 H115       18.8267  -33.8694  -42.6337 H         1 UNK         0.0970 
    116 H116       15.9647  -31.6556  -42.1771 H         1 UNK         0.0612 
    117 H117       16.6725  -33.0986  -42.8414 H         1 UNK         0.0612 
@<TRIPOS>BOND
     1    1    2 1    
     2    1   62 1    
     3    1   63 1    
     4    1   64 1    
     5    2    3 2    
     6    2    4 am   BACKBONE|DICT|INTERRES
     7    4    5 1    
     8    4   65 1    
     9    5    6 1    
    10    5   25 1    
    11    5   66 1    
    12    6    7 1    
    13    6   67 1    
    14    6   68 1    
    15    7    8 1    
    16    8    9 1    
    17    8   69 1    
    18    8   70 1    
    19    9   10 ar   
    20    9   14 ar   
    21   10   11 ar   
    22   10   71 1    
    23   11   12 ar   
    24   11   61 1    
    25   12   13 ar   
    26   12   72 1    
    27   13   14 ar   
    28   13   15 1    
    29   14   73 1    
    30   15   16 1    
    31   15   74 1    
    32   15   75 1    
    33   16   17 1    
    34   17   18 1    
    35   17   76 1    
    36   17   77 1    
    37   18   19 1    
    38   18   27 1    
    39   18   78 1    
    40   19   20 am   BACKBONE|DICT|INTERRES
    41   19   79 1    
    42   20   21 2    
    43   20   22 1    
    44   22   23 1    
    45   22   24 1    
    46   22   80 1    
    47   23   81 1    
    48   23   82 1    
    49   23   83 1    
    50   24   25 am   BACKBONE|DICT|INTERRES
    51   24   84 1    
    52   25   26 2    
    53   27   28 2    
    54   27   29 am   BACKBONE|DICT|INTERRES
    55   29   30 1    
    56   29   85 1    
    57   30   31 1    
    58   30   32 1    
    59   30   86 1    
    60   31   87 1    
    61   31   88 1    
    62   31   89 1    
    63   32   33 2    
    64   32   34 am   BACKBONE|DICT|INTERRES
    65   34   35 1    
    66   34   90 1    
    67   35   36 1    
    68   35   37 1    
    69   35   91 1    
    70   36   92 1    
    71   36   93 1    
    72   36   94 1    
    73   37   38 2    
    74   37   39 am   BACKBONE|DICT|INTERRES
    75   39   40 1    
    76   39   95 1    
    77   40   41 1    
    78   40   42 1    
    79   40   96 1    
    80   41   97 1    
    81   41   98 1    
    82   41   99 1    
    83   42   43 2    
    84   42   44 am   BACKBONE|DICT|INTERRES
    85   44   45 1    
    86   44  100 1    
    87   45   46 1    
    88   45   47 1    
    89   45  101 1    
    90   46  102 1    
    91   46  103 1    
    92   46  104 1    
    93   47   48 2    
    94   47   49 am   BACKBONE|DICT|INTERRES
    95   49   50 1    
    96   49  105 1    
    97   50   51 1    
    98   50   52 1    
    99   50  106 1    
   100   51  107 1    
   101   51  108 1    
   102   51  109 1    
   103   52   53 2    
   104   52   54 am   BACKBONE|DICT|INTERRES
   105   54   55 1    
   106   54  110 1    
   107   55   56 1    
   108   55   59 1    
   109   55  111 1    
   110   56   57 am   BACKBONE|DICT|INTERRES
   111   56   58 2    
   112   57  112 1    
   113   57  113 1    
   114   59   60 1    
   115   59  114 1    
   116   59  115 1    
   117   60   61 1    
   118   61  116 1    
   119   61  117 1    
@<TRIPOS>SUBSTRUCTURE
     1 UNK         1 GROUP             0       ****    0 ROOT    
