@<TRIPOS>MOLECULE
3R8
117   119    1
SMALL
USER_CHARGES


@<TRIPOS>ATOM
      1 CA         20.3258  -23.2720  -41.5263 C.3       0 UNK        -0.2013 
      2 C          19.7199  -24.3148  -42.4516 C.2       0 UNK         0.4866 
      3 O          20.4191  -25.2406  -42.8645 O.2       0 UNK        -0.5176 
      4 N          18.4301  -24.1672  -42.7943 N.am      1 UNK        -0.4884 
      5 CA         17.6547  -25.0861  -43.6472 C.3       1 UNK         0.0853 
      6 C6         17.5440  -26.4970  -43.0021 C.3       10 UNK        -0.0849 
      7 S7         16.0733  -27.4397  -43.5162 S.3       10 UNK        -0.2776 
      8 C8         16.2957  -28.9570  -42.5238 C.3       10 UNK         0.0316 
      9 C9         17.2724  -30.0063  -43.0687 C.ar      10 UNK        -0.0863 
     10 C10        17.3117  -31.2415  -42.4148 C.ar      10 UNK        -0.1009 
     11 C11        18.1205  -32.2794  -42.8803 C.ar      10 UNK        -0.0712 
     12 C12        18.9256  -32.0652  -44.0002 C.ar      10 UNK        -0.0894 
     13 C13        18.9325  -30.8322  -44.6592 C.ar      10 UNK        -0.0745 
     14 C14        18.0941  -29.8074  -44.1907 C.ar      10 UNK        -0.0972 
     15 C15        19.8189  -30.7025  -45.9025 C.3       10 UNK         0.0209 
     16 S16        20.0163  -29.0265  -46.5971 S.3       10 UNK        -0.2568 
     17 C17        21.3365  -28.3312  -45.5476 C.3       10 UNK        -0.0983 
     18 CA         21.8917  -27.0064  -46.1328 C.3       3 UNK         0.0876 
     19 N          20.8334  -26.0031  -46.2588 N.am      3 UNK        -0.4424 
     20 C          20.9043  -24.8102  -46.8593 C.2       2 UNK         0.4918 
     21 O          21.9066  -24.3974  -47.4426 O.2       2 UNK        -0.4875 
     22 CA         19.6546  -23.9058  -46.7772 C.3       2 UNK         0.0481 
     23 CB         18.7760  -24.0606  -48.0336 C.3       2 UNK        -0.1831 
     24 N          18.8705  -24.0606  -45.5381 N.am      2 UNK        -0.4498 
     25 C          18.1755  -25.1273  -45.1062 C.2       1 UNK         0.5027 
     26 O          18.0100  -26.1362  -45.7910 O.2       1 UNK        -0.4969 
     27 C          23.0914  -26.5043  -45.3023 C.2       3 UNK         0.5005 
     28 O          24.2202  -26.9157  -45.5734 O.2       3 UNK        -0.5279 
     29 N          22.8254  -25.6363  -44.3112 N.am      4 UNK        -0.4463 
     30 CA         23.7738  -25.0182  -43.3729 C.3       4 UNK         0.0283 
     31 CB         24.8184  -24.1561  -44.1126 C.3       4 UNK        -0.1875 
     32 C          24.4123  -26.0207  -42.3909 C.2       4 UNK         0.4949 
     33 O          25.4567  -25.7278  -41.8074 O.2       4 UNK        -0.5039 
     34 N          23.7617  -27.1749  -42.2085 N.am      5 UNK        -0.4663 
     35 CA         24.1806  -28.2686  -41.3345 C.3       5 UNK         0.0242 
     36 CB         25.2564  -29.1243  -42.0347 C.3       5 UNK        -0.1982 
     37 C          22.9522  -29.0869  -40.9111 C.2       5 UNK         0.5017 
     38 O          23.0226  -30.3138  -40.8568 O.2       5 UNK        -0.5012 
     39 N          21.8369  -28.3978  -40.6280 N.am      6 UNK        -0.4439 
     40 CA         20.5143  -28.9725  -40.3422 C.3       6 UNK         0.0297 
     41 CB         19.5196  -27.8230  -40.1228 C.3       6 UNK        -0.2006 
     42 C          20.4577  -29.9522  -39.1530 C.2       6 UNK         0.4892 
     43 O          19.5704  -30.8036  -39.1195 O.2       6 UNK        -0.5089 
     44 N          21.3927  -29.8170  -38.2028 N.am      7 UNK        -0.4243 
     45 CA         21.5475  -30.7206  -37.0607 C.3       7 UNK         0.0196 
     46 CB         22.3217  -29.9929  -35.9492 C.3       7 UNK        -0.2007 
     47 C          22.2501  -32.0430  -37.4226 C.2       7 UNK         0.5020 
     48 O          22.0628  -33.0292  -36.7094 O.2       7 UNK        -0.5147 
     49 N          23.0582  -32.0425  -38.4914 N.am      8 UNK        -0.4734 
     50 CA         23.8316  -33.1984  -38.9541 C.3       8 UNK         0.0238 
     51 CB         25.2630  -32.7436  -39.2839 C.3       8 UNK        -0.1912 
     52 C          23.1947  -33.8676  -40.1812 C.2       8 UNK         0.5038 
     53 O          23.3136  -35.0858  -40.3213 O.2       8 UNK        -0.5046 
     54 N          22.5419  -33.0680  -41.0358 N.am      9 UNK        -0.4200 
     55 CA         21.9344  -33.4548  -42.3184 C.3       9 UNK         0.0839 
     56 C          22.9926  -33.8535  -43.3933 C.2       9 UNK         0.5513 
     57 N          22.5758  -34.4105  -44.5236 N.am      9 UNK        -0.7519 
     58 O          24.1912  -33.6227  -43.2435 O.2       9 UNK        -0.4960 
     59 C59        20.7807  -34.4903  -42.1593 C.3       10 UNK        -0.0876 
     60 S60        19.4515  -33.9076  -41.0496 S.3       10 UNK        -0.2414 
     61 C61        18.0709  -33.6451  -42.2067 C.3       10 UNK         0.0169 
     62 H62        19.5921  -22.5310  -41.2098 H         1 UNK         0.0903 
     63 H63        21.1399  -22.7519  -42.0301 H         1 UNK         0.0903 
     64 H64        20.7282  -23.7530  -40.6352 H         1 UNK         0.0903 
     65 H65        17.9121  -23.3779  -42.4303 H         1 UNK         0.3096 
     66 H66        16.6512  -24.6608  -43.7048 H         1 UNK         0.1121 
     67 H67        18.4447  -27.0855  -43.1859 H         1 UNK         0.0849 
     68 H68        17.4721  -26.3911  -41.9188 H         1 UNK         0.0849 
     69 H69        16.5937  -28.6832  -41.5111 H         1 UNK         0.0865 
     70 H70        15.3141  -29.4243  -42.4307 H         1 UNK         0.0865 
     71 H71        16.6818  -31.4082  -41.5512 H         1 UNK         0.1346 
     72 H72        19.5390  -32.8713  -44.3759 H         1 UNK         0.1412 
     73 H73        18.0650  -28.8640  -44.7151 H         1 UNK         0.1426 
     74 H74        20.8073  -31.1142  -45.6918 H         1 UNK         0.0716 
     75 H75        19.3892  -31.3315  -46.6832 H         1 UNK         0.0716 
     76 H76        22.1334  -29.0725  -45.4597 H         1 UNK         0.0695 
     77 H77        20.9373  -28.1789  -44.5424 H         1 UNK         0.0695 
     78 H78        22.2674  -27.2050  -47.1389 H         1 UNK         0.0983 
     79 H79        19.9257  -26.2745  -45.8946 H         1 UNK         0.3095 
     80 H80        20.0200  -22.8778  -46.7608 H         1 UNK         0.0454 
     81 H81        17.9144  -23.3941  -48.0006 H         1 UNK         0.0851 
     82 H82        18.4084  -25.0797  -48.1554 H         1 UNK         0.0851 
     83 H83        19.3415  -23.8147  -48.9332 H         1 UNK         0.0851 
     84 H84        18.9680  -23.3000  -44.8796 H         1 UNK         0.2976 
     85 H85        21.8480  -25.4300  -44.1125 H         1 UNK         0.3116 
     86 H86        23.1778  -24.3442  -42.7564 H         1 UNK         0.0646 
     87 H87        24.3415  -23.4576  -44.8001 H         1 UNK         0.0847 
     88 H88        25.4069  -23.5659  -43.4092 H         1 UNK         0.0847 
     89 H89        25.5176  -24.7665  -44.6845 H         1 UNK         0.0847 
     90 H90        22.9070  -27.3219  -42.7276 H         1 UNK         0.3040 
     91 H91        24.6089  -27.8517  -40.4203 H         1 UNK         0.1015 
     92 H92        24.8688  -29.5917  -42.9408 H         1 UNK         0.0786 
     93 H93        25.6131  -29.9208  -41.3811 H         1 UNK         0.0786 
     94 H94        26.1244  -28.5262  -42.3123 H         1 UNK         0.0786 
     95 H95        21.8836  -27.3895  -40.6707 H         1 UNK         0.3172 
     96 H96        20.2058  -29.5271  -41.2316 H         1 UNK         0.0595 
     97 H97        18.5040  -28.2026  -40.0049 H         1 UNK         0.0839 
     98 H98        19.5172  -27.1379  -40.9687 H         1 UNK         0.0839 
     99 H99        19.7585  -27.2469  -39.2280 H         1 UNK         0.0839 
    100 H100       22.0698  -29.0746  -38.2979 H         1 UNK         0.2998 
    101 H101       20.5561  -30.9707  -36.6762 H         1 UNK         0.0822 
    102 H102       21.8038  -29.0876  -35.6317 H         1 UNK         0.0787 
    103 H103       22.4290  -30.6282  -35.0687 H         1 UNK         0.0787 
    104 H104       23.3251  -29.7120  -36.2720 H         1 UNK         0.0787 
    105 H105       23.1040  -31.2109  -39.0699 H         1 UNK         0.3055 
    106 H106       23.8915  -33.9521  -38.1655 H         1 UNK         0.1106 
    107 H107       25.7521  -32.3085  -38.4124 H         1 UNK         0.0828 
    108 H108       25.8735  -33.5860  -39.6120 H         1 UNK         0.0828 
    109 H109       25.2768  -32.0018  -40.0832 H         1 UNK         0.0828 
    110 H110       22.5830  -32.0656  -40.8729 H         1 UNK         0.2931 
    111 H111       21.4965  -32.5308  -42.6967 H         1 UNK         0.0412 
    112 H112       23.2604  -34.6510  -45.2238 H         1 UNK         0.3472 
    113 H113       21.6026  -34.6027  -44.6950 H         1 UNK         0.3472 
    114 H114       20.3421  -34.7413  -43.1242 H         1 UNK         0.0970 
    115 H115       21.1637  -35.4329  -41.7664 H         1 UNK         0.0970 
    116 H116       18.0498  -34.4363  -42.9573 H         1 UNK         0.0612 
    117 H117       17.1396  -33.7463  -41.6475 H         1 UNK         0.0612 
@<TRIPOS>BOND
     1    1    2 1    
     2    1   62 1    
     3    1   63 1    
     4    1   64 1    
     5    2    3 2    
     6    2    4 am   BACKBONE|DICT|INTERRES
     7    4    5 1    
     8    4   65 1    
     9    5    6 1    
    10    5   25 1    
    11    5   66 1    
    12    6    7 1    
    13    6   67 1    
    14    6   68 1    
    15    7    8 1    
    16    8    9 1    
    17    8   69 1    
    18    8   70 1    
    19    9   10 ar   
    20    9   14 ar   
    21   10   11 ar   
    22   10   71 1    
    23   11   12 ar   
    24   11   61 1    
    25   12   13 ar   
    26   12   72 1    
    27   13   14 ar   
    28   13   15 1    
    29   14   73 1    
    30   15   16 1    
    31   15   74 1    
    32   15   75 1    
    33   16   17 1    
    34   17   18 1    
    35   17   76 1    
    36   17   77 1    
    37   18   19 1    
    38   18   27 1    
    39   18   78 1    
    40   19   20 am   BACKBONE|DICT|INTERRES
    41   19   79 1    
    42   20   21 2    
    43   20   22 1    
    44   22   23 1    
    45   22   24 1    
    46   22   80 1    
    47   23   81 1    
    48   23   82 1    
    49   23   83 1    
    50   24   25 am   BACKBONE|DICT|INTERRES
    51   24   84 1    
    52   25   26 2    
    53   27   28 2    
    54   27   29 am   BACKBONE|DICT|INTERRES
    55   29   30 1    
    56   29   85 1    
    57   30   31 1    
    58   30   32 1    
    59   30   86 1    
    60   31   87 1    
    61   31   88 1    
    62   31   89 1    
    63   32   33 2    
    64   32   34 am   BACKBONE|DICT|INTERRES
    65   34   35 1    
    66   34   90 1    
    67   35   36 1    
    68   35   37 1    
    69   35   91 1    
    70   36   92 1    
    71   36   93 1    
    72   36   94 1    
    73   37   38 2    
    74   37   39 am   BACKBONE|DICT|INTERRES
    75   39   40 1    
    76   39   95 1    
    77   40   41 1    
    78   40   42 1    
    79   40   96 1    
    80   41   97 1    
    81   41   98 1    
    82   41   99 1    
    83   42   43 2    
    84   42   44 am   BACKBONE|DICT|INTERRES
    85   44   45 1    
    86   44  100 1    
    87   45   46 1    
    88   45   47 1    
    89   45  101 1    
    90   46  102 1    
    91   46  103 1    
    92   46  104 1    
    93   47   48 2    
    94   47   49 am   BACKBONE|DICT|INTERRES
    95   49   50 1    
    96   49  105 1    
    97   50   51 1    
    98   50   52 1    
    99   50  106 1    
   100   51  107 1    
   101   51  108 1    
   102   51  109 1    
   103   52   53 2    
   104   52   54 am   BACKBONE|DICT|INTERRES
   105   54   55 1    
   106   54  110 1    
   107   55   56 1    
   108   55   59 1    
   109   55  111 1    
   110   56   57 am   BACKBONE|DICT|INTERRES
   111   56   58 2    
   112   57  112 1    
   113   57  113 1    
   114   59   60 1    
   115   59  114 1    
   116   59  115 1    
   117   60   61 1    
   118   61  116 1    
   119   61  117 1    
@<TRIPOS>SUBSTRUCTURE
     1 UNK         1 GROUP             0       ****    0 ROOT    
