@<TRIPOS>MOLECULE
3R8
117   119    1
SMALL
USER_CHARGES


@<TRIPOS>ATOM
      1 CA         15.6602  -23.3168  -41.3512 C.3       0 UNK        -0.2013 
      2 C          15.9866  -23.5858  -42.8127 C.2       0 UNK         0.4866 
      3 O          15.7079  -22.7441  -43.6678 O.2       0 UNK        -0.5176 
      4 N          16.5656  -24.7564  -43.1066 N.am      1 UNK        -0.4884 
      5 CA         16.9955  -25.1663  -44.4484 C.3       1 UNK         0.0853 
      6 C6         17.2997  -26.6813  -44.5174 C.3       10 UNK        -0.0849 
      7 S7         15.9465  -27.7603  -43.9286 S.3       10 UNK        -0.2776 
      8 C8         16.2934  -29.3239  -44.8090 C.3       10 UNK         0.0316 
      9 C9         17.6288  -29.9342  -44.3982 C.ar      10 UNK        -0.0863 
     10 C10        17.6960  -30.9326  -43.4227 C.ar      10 UNK        -0.1009 
     11 C11        18.9316  -31.4721  -43.0511 C.ar      10 UNK        -0.0712 
     12 C12        20.1035  -30.9902  -43.6449 C.ar      10 UNK        -0.0894 
     13 C13        20.0585  -29.9738  -44.6031 C.ar      10 UNK        -0.0745 
     14 C14        18.8070  -29.4865  -44.9981 C.ar      10 UNK        -0.0972 
     15 C15        21.3738  -29.3944  -45.1372 C.3       10 UNK         0.0209 
     16 S16        21.1875  -28.2701  -46.5666 S.3       10 UNK        -0.2568 
     17 C17        22.6684  -27.2114  -46.4568 C.3       10 UNK        -0.0983 
     18 CA         22.4211  -25.7964  -45.8540 C.3       3 UNK         0.0876 
     19 N          21.1557  -25.1964  -46.3023 N.am      3 UNK        -0.4424 
     20 C          20.9388  -23.8851  -46.4679 C.2       2 UNK         0.4918 
     21 O          21.8036  -23.0235  -46.3098 O.2       2 UNK        -0.4875 
     22 CA         19.5086  -23.4546  -46.8509 C.3       2 UNK         0.0481 
     23 CB         19.3360  -23.4819  -48.3779 C.3       2 UNK        -0.1831 
     24 N          18.4308  -24.2342  -46.2227 N.am      2 UNK        -0.4498 
     25 C          18.2395  -24.3678  -44.9011 C.2       1 UNK         0.5027 
     26 O          19.0265  -23.9353  -44.0555 O.2       1 UNK        -0.4969 
     27 C          22.6096  -25.7533  -44.3188 C.2       3 UNK         0.5005 
     28 O          23.6784  -26.1445  -43.8483 O.2       3 UNK        -0.5279 
     29 N          21.6088  -25.2570  -43.5688 N.am      4 UNK        -0.4463 
     30 CA         21.6174  -25.0092  -42.1204 C.3       4 UNK         0.0283 
     31 CB         22.5354  -23.8137  -41.7894 C.3       4 UNK        -0.1875 
     32 C          21.9465  -26.2624  -41.2885 C.2       4 UNK         0.4949 
     33 O          22.8286  -26.2220  -40.4290 O.2       4 UNK        -0.5039 
     34 N          21.2530  -27.3686  -41.5940 N.am      5 UNK        -0.4663 
     35 CA         21.3579  -28.7149  -41.0058 C.3       5 UNK         0.0242 
     36 CB         21.0698  -28.6982  -39.4913 C.3       5 UNK        -0.1982 
     37 C          22.6748  -29.4565  -41.3029 C.2       5 UNK         0.5017 
     38 O          22.6458  -30.6731  -41.4883 O.2       5 UNK        -0.5012 
     39 N          23.8035  -28.7333  -41.3254 N.am      6 UNK        -0.4439 
     40 CA         25.1639  -29.1761  -41.6702 C.3       6 UNK         0.0297 
     41 CB         25.2330  -29.5125  -43.1752 C.3       6 UNK        -0.2006 
     42 C          25.7148  -30.3310  -40.8034 C.2       6 UNK         0.4892 
     43 O          26.6785  -30.9820  -41.2096 O.2       6 UNK        -0.5089 
     44 N          25.0740  -30.5859  -39.6507 N.am      7 UNK        -0.4243 
     45 CA         25.2241  -31.7595  -38.7786 C.3       7 UNK         0.0196 
     46 CB         26.6182  -31.7818  -38.1162 C.3       7 UNK        -0.2007 
     47 C          24.8749  -33.0960  -39.4748 C.2       7 UNK         0.5020 
     48 O          25.3078  -34.1517  -39.0106 O.2       7 UNK        -0.5147 
     49 N          24.1030  -33.0389  -40.5700 N.am      8 UNK        -0.4734 
     50 CA         23.7328  -34.1943  -41.3904 C.3       8 UNK         0.0238 
     51 CB         23.6552  -33.7486  -42.8604 C.3       8 UNK        -0.1912 
     52 C          22.4031  -34.8303  -40.9574 C.2       8 UNK         0.5038 
     53 O          22.1582  -35.9884  -41.2986 O.2       8 UNK        -0.5046 
     54 N          21.5624  -34.0671  -40.2476 N.am      9 UNK        -0.4200 
     55 CA         20.2396  -34.4901  -39.7672 C.3       9 UNK         0.0839 
     56 C          20.3212  -35.6083  -38.6925 C.2       9 UNK         0.5513 
     57 N          19.3699  -36.5320  -38.6847 N.am      9 UNK        -0.7519 
     58 O          21.2081  -35.6176  -37.8412 O.2       9 UNK        -0.4960 
     59 C59        19.4095  -33.2891  -39.2392 C.3       10 UNK        -0.0876 
     60 S60        19.2973  -31.8394  -40.3488 S.3       10 UNK        -0.2414 
     61 C61        19.0094  -32.5614  -41.9941 C.3       10 UNK         0.0169 
     62 H62        14.5906  -23.1472  -41.2304 H         1 UNK         0.0903 
     63 H63        15.9459  -24.1499  -40.7093 H         1 UNK         0.0903 
     64 H64        16.1877  -22.4275  -41.0072 H         1 UNK         0.0903 
     65 H65        16.7697  -25.4127  -42.3669 H         1 UNK         0.3096 
     66 H66        16.1795  -24.9441  -45.1402 H         1 UNK         0.1121 
     67 H67        17.5110  -26.9439  -45.5544 H         1 UNK         0.0849 
     68 H68        18.1944  -26.9213  -43.9387 H         1 UNK         0.0849 
     69 H69        15.4843  -30.0273  -44.6064 H         1 UNK         0.0865 
     70 H70        16.2759  -29.1487  -45.8859 H         1 UNK         0.0865 
     71 H71        16.7900  -31.2868  -42.9499 H         1 UNK         0.1346 
     72 H72        21.0580  -31.3914  -43.3358 H         1 UNK         0.1412 
     73 H73        18.7348  -28.7272  -45.7587 H         1 UNK         0.1426 
     74 H74        22.0468  -30.2059  -45.4177 H         1 UNK         0.0716 
     75 H75        21.8593  -28.8538  -44.3235 H         1 UNK         0.0716 
     76 H76        23.0283  -27.0897  -47.4795 H         1 UNK         0.0695 
     77 H77        23.4691  -27.7447  -45.9405 H         1 UNK         0.0695 
     78 H78        23.2292  -25.1669  -46.2341 H         1 UNK         0.0983 
     79 H79        20.4024  -25.8459  -46.4774 H         1 UNK         0.3095 
     80 H80        19.3865  -22.4212  -46.5197 H         1 UNK         0.0454 
     81 H81        20.1100  -22.8904  -48.8693 H         1 UNK         0.0851 
     82 H82        18.3753  -23.0633  -48.6779 H         1 UNK         0.0851 
     83 H83        19.4007  -24.4957  -48.7752 H         1 UNK         0.0851 
     84 H84        17.7507  -24.6362  -46.8526 H         1 UNK         0.2976 
     85 H85        20.7745  -24.9256  -44.0424 H         1 UNK         0.3116 
     86 H86        20.5994  -24.7240  -41.8504 H         1 UNK         0.0646 
     87 H87        23.5804  -24.0320  -42.0121 H         1 UNK         0.0847 
     88 H88        22.2498  -22.9272  -42.3556 H         1 UNK         0.0847 
     89 H89        22.4753  -23.5549  -40.7316 H         1 UNK         0.0847 
     90 H90        20.5865  -27.2897  -42.3493 H         1 UNK         0.3040 
     91 H91        20.5668  -29.2997  -41.4760 H         1 UNK         0.1015 
     92 H92        21.0725  -29.7099  -39.0839 H         1 UNK         0.0786 
     93 H93        20.0898  -28.2698  -39.2813 H         1 UNK         0.0786 
     94 H94        21.8128  -28.1277  -38.9340 H         1 UNK         0.0786 
     95 H95        23.7022  -27.7462  -41.0965 H         1 UNK         0.3172 
     96 H96        25.8157  -28.3207  -41.4881 H         1 UNK         0.0595 
     97 H97        24.6446  -30.3983  -43.4179 H         1 UNK         0.0839 
     98 H98        26.2588  -29.7067  -43.4904 H         1 UNK         0.0839 
     99 H99        24.8618  -28.6872  -43.7829 H         1 UNK         0.0839 
    100 H100       24.3022  -29.9752  -39.4229 H         1 UNK         0.2998 
    101 H101       24.4860  -31.6393  -37.9842 H         1 UNK         0.0822 
    102 H102       26.6761  -32.5570  -37.3511 H         1 UNK         0.0787 
    103 H103       26.8420  -30.8324  -37.6298 H         1 UNK         0.0787 
    104 H104       27.4083  -31.9829  -38.8402 H         1 UNK         0.0787 
    105 H105       23.7552  -32.1351  -40.8826 H         1 UNK         0.3055 
    106 H106       24.5046  -34.9633  -41.3090 H         1 UNK         0.1106 
    107 H107       24.6049  -33.3336  -43.1988 H         1 UNK         0.0828 
    108 H108       23.4181  -34.5901  -43.5128 H         1 UNK         0.0828 
    109 H109       22.8863  -32.9908  -43.0130 H         1 UNK         0.0828 
    110 H110       21.8442  -33.1266  -40.0165 H         1 UNK         0.2931 
    111 H111       19.7123  -34.9109  -40.6252 H         1 UNK         0.0412 
    112 H112       19.3959  -37.2566  -37.9837 H         1 UNK         0.3472 
    113 H113       18.6319  -36.5280  -39.3720 H         1 UNK         0.3472 
    114 H114       18.3909  -33.6119  -39.0156 H         1 UNK         0.0970 
    115 H115       19.8224  -32.9357  -38.2922 H         1 UNK         0.0970 
    116 H116       19.8169  -33.2463  -42.2530 H         1 UNK         0.0612 
    117 H117       18.0900  -33.1484  -41.9788 H         1 UNK         0.0612 
@<TRIPOS>BOND
     1    1    2 1    
     2    1   62 1    
     3    1   63 1    
     4    1   64 1    
     5    2    3 2    
     6    2    4 am   BACKBONE|DICT|INTERRES
     7    4    5 1    
     8    4   65 1    
     9    5    6 1    
    10    5   25 1    
    11    5   66 1    
    12    6    7 1    
    13    6   67 1    
    14    6   68 1    
    15    7    8 1    
    16    8    9 1    
    17    8   69 1    
    18    8   70 1    
    19    9   10 ar   
    20    9   14 ar   
    21   10   11 ar   
    22   10   71 1    
    23   11   12 ar   
    24   11   61 1    
    25   12   13 ar   
    26   12   72 1    
    27   13   14 ar   
    28   13   15 1    
    29   14   73 1    
    30   15   16 1    
    31   15   74 1    
    32   15   75 1    
    33   16   17 1    
    34   17   18 1    
    35   17   76 1    
    36   17   77 1    
    37   18   19 1    
    38   18   27 1    
    39   18   78 1    
    40   19   20 am   BACKBONE|DICT|INTERRES
    41   19   79 1    
    42   20   21 2    
    43   20   22 1    
    44   22   23 1    
    45   22   24 1    
    46   22   80 1    
    47   23   81 1    
    48   23   82 1    
    49   23   83 1    
    50   24   25 am   BACKBONE|DICT|INTERRES
    51   24   84 1    
    52   25   26 2    
    53   27   28 2    
    54   27   29 am   BACKBONE|DICT|INTERRES
    55   29   30 1    
    56   29   85 1    
    57   30   31 1    
    58   30   32 1    
    59   30   86 1    
    60   31   87 1    
    61   31   88 1    
    62   31   89 1    
    63   32   33 2    
    64   32   34 am   BACKBONE|DICT|INTERRES
    65   34   35 1    
    66   34   90 1    
    67   35   36 1    
    68   35   37 1    
    69   35   91 1    
    70   36   92 1    
    71   36   93 1    
    72   36   94 1    
    73   37   38 2    
    74   37   39 am   BACKBONE|DICT|INTERRES
    75   39   40 1    
    76   39   95 1    
    77   40   41 1    
    78   40   42 1    
    79   40   96 1    
    80   41   97 1    
    81   41   98 1    
    82   41   99 1    
    83   42   43 2    
    84   42   44 am   BACKBONE|DICT|INTERRES
    85   44   45 1    
    86   44  100 1    
    87   45   46 1    
    88   45   47 1    
    89   45  101 1    
    90   46  102 1    
    91   46  103 1    
    92   46  104 1    
    93   47   48 2    
    94   47   49 am   BACKBONE|DICT|INTERRES
    95   49   50 1    
    96   49  105 1    
    97   50   51 1    
    98   50   52 1    
    99   50  106 1    
   100   51  107 1    
   101   51  108 1    
   102   51  109 1    
   103   52   53 2    
   104   52   54 am   BACKBONE|DICT|INTERRES
   105   54   55 1    
   106   54  110 1    
   107   55   56 1    
   108   55   59 1    
   109   55  111 1    
   110   56   57 am   BACKBONE|DICT|INTERRES
   111   56   58 2    
   112   57  112 1    
   113   57  113 1    
   114   59   60 1    
   115   59  114 1    
   116   59  115 1    
   117   60   61 1    
   118   61  116 1    
   119   61  117 1    
@<TRIPOS>SUBSTRUCTURE
     1 UNK         1 GROUP             0       ****    0 ROOT    
