@<TRIPOS>MOLECULE
3R8
117   119    1
SMALL
USER_CHARGES


@<TRIPOS>ATOM
      1 CA         15.8259  -23.3668  -47.8857 C.3       0 UNK        -0.2013 
      2 C          17.0097  -24.2532  -47.5282 C.2       0 UNK         0.4866 
      3 O          18.0693  -24.1387  -48.1457 O.2       0 UNK        -0.5176 
      4 N          16.8360  -25.1426  -46.5430 N.am      1 UNK        -0.4884 
      5 CA         17.8760  -26.0443  -46.0359 C.3       1 UNK         0.0853 
      6 C6         17.2873  -27.1448  -45.1179 C.3       10 UNK        -0.0849 
      7 S7         16.0844  -28.2207  -45.9622 S.3       10 UNK        -0.2776 
      8 C8         15.2199  -28.9525  -44.5336 C.3       10 UNK         0.0316 
      9 C9         16.1512  -29.8001  -43.6763 C.ar      10 UNK        -0.0863 
     10 C10        16.5366  -31.0705  -44.1123 C.ar      10 UNK        -0.1009 
     11 C11        17.3861  -31.8579  -43.3325 C.ar      10 UNK        -0.0712 
     12 C12        17.8533  -31.3652  -42.1112 C.ar      10 UNK        -0.0894 
     13 C13        17.4780  -30.0983  -41.6549 C.ar      10 UNK        -0.0745 
     14 C14        16.6164  -29.3230  -42.4452 C.ar      10 UNK        -0.0972 
     15 C15        18.0067  -29.6415  -40.2916 C.3       10 UNK         0.0209 
     16 S16        17.8438  -27.8602  -39.9122 S.3       10 UNK        -0.2568 
     17 C17        18.8892  -26.9819  -41.1325 C.3       10 UNK        -0.0983 
     18 CA         20.1257  -27.7239  -41.7277 C.3       3 UNK         0.0876 
     19 N          20.5830  -27.0694  -42.9550 N.am      3 UNK        -0.4424 
     20 C          21.1272  -25.8457  -43.0474 C.2       2 UNK         0.4918 
     21 O          21.4309  -25.1494  -42.0790 O.2       2 UNK        -0.4875 
     22 CA         21.3023  -25.2845  -44.4711 C.3       2 UNK         0.0481 
     23 CB         22.6564  -25.7031  -45.0611 C.3       2 UNK        -0.1831 
     24 N          20.2130  -25.7119  -45.3581 N.am      2 UNK        -0.4498 
     25 C          18.9516  -25.2661  -45.2525 C.2       1 UNK         0.5027 
     26 O          18.6121  -24.3380  -44.5133 O.2       1 UNK        -0.4969 
     27 C          21.2995  -27.9389  -40.7447 C.2       3 UNK         0.5005 
     28 O          22.3618  -28.4027  -41.1669 O.2       3 UNK        -0.5279 
     29 N          21.0996  -27.5907  -39.4671 N.am      4 UNK        -0.4463 
     30 CA         22.0650  -27.7151  -38.3712 C.3       4 UNK         0.0283 
     31 CB         21.3507  -27.4066  -37.0453 C.3       4 UNK        -0.1875 
     32 C          23.3339  -26.8519  -38.5163 C.2       4 UNK         0.4949 
     33 O          24.3007  -27.0981  -37.7952 O.2       4 UNK        -0.5039 
     34 N          23.3321  -25.8733  -39.4349 N.am      5 UNK        -0.4663 
     35 CA         24.5253  -25.1065  -39.8107 C.3       5 UNK         0.0242 
     36 CB         24.1014  -23.7820  -40.4664 C.3       5 UNK        -0.1982 
     37 C          25.4712  -25.8951  -40.7385 C.2       5 UNK         0.5017 
     38 O          26.6176  -25.4785  -40.9109 O.2       5 UNK        -0.5012 
     39 N          24.9860  -27.0035  -41.3131 N.am      6 UNK        -0.4439 
     40 CA         25.7426  -27.9509  -42.1247 C.3       6 UNK         0.0297 
     41 CB         25.1888  -27.9281  -43.5638 C.3       6 UNK        -0.2006 
     42 C          25.6785  -29.3364  -41.4561 C.2       6 UNK         0.4892 
     43 O          25.6507  -29.4236  -40.2270 O.2       6 UNK        -0.5089 
     44 N          25.6746  -30.4004  -42.2683 N.am      7 UNK        -0.4243 
     45 CA         25.6562  -31.7970  -41.8244 C.3       7 UNK         0.0196 
     46 CB         26.2164  -32.6756  -42.9573 C.3       7 UNK        -0.2007 
     47 C          24.2685  -32.3072  -41.3902 C.2       7 UNK         0.5020 
     48 O          24.1796  -33.4530  -40.9481 O.2       7 UNK        -0.5147 
     49 N          23.2095  -31.4986  -41.5679 N.am      8 UNK        -0.4734 
     50 CA         21.7964  -31.8251  -41.3097 C.3       8 UNK         0.0238 
     51 CB         21.5239  -31.8868  -39.7923 C.3       8 UNK        -0.1912 
     52 C          21.3210  -33.0882  -42.0598 C.2       8 UNK         0.5038 
     53 O          20.5787  -33.8990  -41.5035 O.2       8 UNK        -0.5046 
     54 N          21.7884  -33.2241  -43.3077 N.am      9 UNK        -0.4200 
     55 CA         21.5917  -34.3693  -44.2132 C.3       9 UNK         0.0839 
     56 C          22.3814  -35.6544  -43.8175 C.2       9 UNK         0.5513 
     57 N          23.2693  -35.6254  -42.8300 N.am      9 UNK        -0.7519 
     58 O          22.2100  -36.6979  -44.4426 O.2       9 UNK        -0.4960 
     59 C59        20.1010  -34.6779  -44.5440 C.3       10 UNK        -0.0876 
     60 S60        19.1345  -33.1960  -45.0081 S.3       10 UNK        -0.2414 
     61 C61        17.7805  -33.2517  -43.7915 C.3       10 UNK         0.0169 
     62 H62        15.5504  -23.5115  -48.9300 H         1 UNK         0.0903 
     63 H63        14.9523  -23.5852  -47.2716 H         1 UNK         0.0903 
     64 H64        16.0864  -22.3183  -47.7438 H         1 UNK         0.0903 
     65 H65        15.9475  -25.1914  -46.0653 H         1 UNK         0.3096 
     66 H66        18.3512  -26.5231  -46.8954 H         1 UNK         0.1121 
     67 H67        16.8068  -26.6950  -44.2463 H         1 UNK         0.0849 
     68 H68        18.0792  -27.7889  -44.7303 H         1 UNK         0.0849 
     69 H69        14.7596  -28.1599  -43.9414 H         1 UNK         0.0865 
     70 H70        14.3989  -29.5724  -44.8972 H         1 UNK         0.0865 
     71 H71        16.1764  -31.4462  -45.0606 H         1 UNK         0.1346 
     72 H72        18.5016  -31.9822  -41.5039 H         1 UNK         0.1412 
     73 H73        16.2967  -28.3475  -42.1082 H         1 UNK         0.1426 
     74 H74        17.4577  -30.1897  -39.5248 H         1 UNK         0.0716 
     75 H75        19.0499  -29.9357  -40.1736 H         1 UNK         0.0716 
     76 H76        19.1850  -26.0243  -40.6998 H         1 UNK         0.0695 
     77 H77        18.2176  -26.7160  -41.9504 H         1 UNK         0.0695 
     78 H78        19.8208  -28.7176  -42.0507 H         1 UNK         0.0983 
     79 H79        20.4272  -27.5839  -43.8080 H         1 UNK         0.3095 
     80 H80        21.2867  -24.1944  -44.4056 H         1 UNK         0.0454 
     81 H81        22.8112  -25.2666  -46.0479 H         1 UNK         0.0851 
     82 H82        23.4735  -25.3587  -44.4261 H         1 UNK         0.0851 
     83 H83        22.7448  -26.7858  -45.1549 H         1 UNK         0.0851 
     84 H84        20.4210  -26.4546  -46.0108 H         1 UNK         0.2976 
     85 H85        20.1870  -27.2289  -39.2223 H         1 UNK         0.3116 
     86 H86        22.3961  -28.7551  -38.3452 H         1 UNK         0.0646 
     87 H87        20.5065  -28.0769  -36.8820 H         1 UNK         0.0847 
     88 H88        22.0267  -27.5305  -36.1979 H         1 UNK         0.0847 
     89 H89        20.9784  -26.3818  -37.0167 H         1 UNK         0.0847 
     90 H90        22.5022  -25.7266  -39.9958 H         1 UNK         0.3040 
     91 H91        25.0856  -24.8682  -38.9037 H         1 UNK         0.1015 
     92 H92        23.6269  -23.9415  -41.4343 H         1 UNK         0.0786 
     93 H93        24.9671  -23.1405  -40.6360 H         1 UNK         0.0786 
     94 H94        23.4064  -23.2273  -39.8358 H         1 UNK         0.0786 
     95 H95        24.0486  -27.3088  -41.0661 H         1 UNK         0.3172 
     96 H96        26.7970  -27.6703  -42.1577 H         1 UNK         0.0595 
     97 H97        24.1506  -28.2613  -43.6031 H         1 UNK         0.0839 
     98 H98        25.7732  -28.5588  -44.2342 H         1 UNK         0.0839 
     99 H99        25.2316  -26.9206  -43.9761 H         1 UNK         0.0839 
    100 H100       25.6983  -30.2438  -43.2657 H         1 UNK         0.2998 
    101 H101       26.3165  -31.8959  -40.9599 H         1 UNK         0.0822 
    102 H102       26.2740  -33.7217  -42.6526 H         1 UNK         0.0787 
    103 H103       25.5916  -32.6319  -43.8503 H         1 UNK         0.0787 
    104 H104       27.2248  -32.3690  -43.2364 H         1 UNK         0.0787 
    105 H105       23.3852  -30.5582  -41.8979 H         1 UNK         0.3055 
    106 H106       21.2084  -31.0013  -41.7162 H         1 UNK         0.1106 
    107 H107       20.4623  -32.0289  -39.5871 H         1 UNK         0.0828 
    108 H108       22.0588  -32.7113  -39.3200 H         1 UNK         0.0828 
    109 H109       21.8279  -30.9639  -39.2993 H         1 UNK         0.0828 
    110 H110       22.4029  -32.5043  -43.6574 H         1 UNK         0.2931 
    111 H111       22.0542  -34.0491  -45.1475 H         1 UNK         0.0412 
    112 H112       23.7736  -36.4680  -42.6041 H         1 UNK         0.3472 
    113 H113       23.4241  -34.7886  -42.2790 H         1 UNK         0.3472 
    114 H114       20.0435  -35.3767  -45.3805 H         1 UNK         0.0970 
    115 H115       19.6317  -35.1931  -43.7052 H         1 UNK         0.0970 
    116 H116       18.0661  -33.8469  -42.9235 H         1 UNK         0.0612 
    117 H117       16.9220  -33.7565  -44.2368 H         1 UNK         0.0612 
@<TRIPOS>BOND
     1    1    2 1    
     2    1   62 1    
     3    1   63 1    
     4    1   64 1    
     5    2    3 2    
     6    2    4 am   BACKBONE|DICT|INTERRES
     7    4    5 1    
     8    4   65 1    
     9    5    6 1    
    10    5   25 1    
    11    5   66 1    
    12    6    7 1    
    13    6   67 1    
    14    6   68 1    
    15    7    8 1    
    16    8    9 1    
    17    8   69 1    
    18    8   70 1    
    19    9   10 ar   
    20    9   14 ar   
    21   10   11 ar   
    22   10   71 1    
    23   11   12 ar   
    24   11   61 1    
    25   12   13 ar   
    26   12   72 1    
    27   13   14 ar   
    28   13   15 1    
    29   14   73 1    
    30   15   16 1    
    31   15   74 1    
    32   15   75 1    
    33   16   17 1    
    34   17   18 1    
    35   17   76 1    
    36   17   77 1    
    37   18   19 1    
    38   18   27 1    
    39   18   78 1    
    40   19   20 am   BACKBONE|DICT|INTERRES
    41   19   79 1    
    42   20   21 2    
    43   20   22 1    
    44   22   23 1    
    45   22   24 1    
    46   22   80 1    
    47   23   81 1    
    48   23   82 1    
    49   23   83 1    
    50   24   25 am   BACKBONE|DICT|INTERRES
    51   24   84 1    
    52   25   26 2    
    53   27   28 2    
    54   27   29 am   BACKBONE|DICT|INTERRES
    55   29   30 1    
    56   29   85 1    
    57   30   31 1    
    58   30   32 1    
    59   30   86 1    
    60   31   87 1    
    61   31   88 1    
    62   31   89 1    
    63   32   33 2    
    64   32   34 am   BACKBONE|DICT|INTERRES
    65   34   35 1    
    66   34   90 1    
    67   35   36 1    
    68   35   37 1    
    69   35   91 1    
    70   36   92 1    
    71   36   93 1    
    72   36   94 1    
    73   37   38 2    
    74   37   39 am   BACKBONE|DICT|INTERRES
    75   39   40 1    
    76   39   95 1    
    77   40   41 1    
    78   40   42 1    
    79   40   96 1    
    80   41   97 1    
    81   41   98 1    
    82   41   99 1    
    83   42   43 2    
    84   42   44 am   BACKBONE|DICT|INTERRES
    85   44   45 1    
    86   44  100 1    
    87   45   46 1    
    88   45   47 1    
    89   45  101 1    
    90   46  102 1    
    91   46  103 1    
    92   46  104 1    
    93   47   48 2    
    94   47   49 am   BACKBONE|DICT|INTERRES
    95   49   50 1    
    96   49  105 1    
    97   50   51 1    
    98   50   52 1    
    99   50  106 1    
   100   51  107 1    
   101   51  108 1    
   102   51  109 1    
   103   52   53 2    
   104   52   54 am   BACKBONE|DICT|INTERRES
   105   54   55 1    
   106   54  110 1    
   107   55   56 1    
   108   55   59 1    
   109   55  111 1    
   110   56   57 am   BACKBONE|DICT|INTERRES
   111   56   58 2    
   112   57  112 1    
   113   57  113 1    
   114   59   60 1    
   115   59  114 1    
   116   59  115 1    
   117   60   61 1    
   118   61  116 1    
   119   61  117 1    
@<TRIPOS>SUBSTRUCTURE
     1 UNK         1 GROUP             0       ****    0 ROOT    
