@<TRIPOS>MOLECULE
3R8
117   119    1
SMALL
USER_CHARGES


@<TRIPOS>ATOM
      1 CA         16.5106  -23.5428  -44.8650 C.3       0 UNK        -0.2013 
      2 C          17.1644  -24.8709  -44.5164 C.2       0 UNK         0.4866 
      3 O          18.0880  -24.9048  -43.7041 O.2       0 UNK        -0.5176 
      4 N          16.6782  -25.9713  -45.1042 N.am      1 UNK        -0.4884 
      5 CA         17.1916  -27.3462  -44.9730 C.3       1 UNK         0.0853 
      6 C6         16.7619  -28.2100  -46.1906 C.3       10 UNK        -0.0849 
      7 S7         17.4023  -27.5242  -47.7633 S.3       10 UNK        -0.2776 
      8 C8         18.5718  -28.8010  -48.3443 C.3       10 UNK         0.0316 
      9 C9         19.5283  -29.2694  -47.2560 C.ar      10 UNK        -0.0863 
     10 C10        19.4768  -30.5930  -46.8089 C.ar      10 UNK        -0.1009 
     11 C11        20.3021  -31.0244  -45.7681 C.ar      10 UNK        -0.0712 
     12 C12        21.2018  -30.1271  -45.1886 C.ar      10 UNK        -0.0894 
     13 C13        21.2536  -28.7983  -45.6178 C.ar      10 UNK        -0.0745 
     14 C14        20.4306  -28.3783  -46.6667 C.ar      10 UNK        -0.0972 
     15 C15        22.1465  -27.8031  -44.8945 C.3       10 UNK         0.0209 
     16 S16        21.1932  -26.8245  -43.6888 S.3       10 UNK        -0.2568 
     17 C17        20.5189  -28.1357  -42.6167 C.3       10 UNK        -0.0983 
     18 CA         19.8216  -27.5973  -41.3462 C.3       3 UNK         0.0876 
     19 N          18.9877  -28.6338  -40.7336 N.am      3 UNK        -0.4424 
     20 C          17.6568  -28.6930  -40.5723 C.2       2 UNK         0.4918 
     21 O          17.1437  -29.6268  -39.9599 O.2       2 UNK        -0.4875 
     22 CA         16.7123  -27.6106  -41.1410 C.3       2 UNK         0.0481 
     23 CB         16.6860  -26.3615  -40.2432 C.3       2 UNK        -0.1831 
     24 N          16.9678  -27.2285  -42.5291 N.am      2 UNK        -0.4498 
     25 C          16.8209  -27.9969  -43.6148 C.2       1 UNK         0.5027 
     26 O          16.3958  -29.1522  -43.5718 O.2       1 UNK        -0.4969 
     27 C          20.8222  -27.0653  -40.3073 C.2       3 UNK         0.5005 
     28 O          20.8348  -25.8597  -40.0541 O.2       3 UNK        -0.5279 
     29 N          21.6133  -27.9698  -39.7059 N.am      4 UNK        -0.4463 
     30 CA         22.6843  -27.6957  -38.7370 C.3       4 UNK         0.0283 
     31 CB         22.0965  -27.2152  -37.3934 C.3       4 UNK        -0.1875 
     32 C          23.7640  -26.7504  -39.3023 C.2       4 UNK         0.4949 
     33 O          24.1345  -25.7706  -38.6526 O.2       4 UNK        -0.5039 
     34 N          24.2339  -27.0605  -40.5157 N.am      5 UNK        -0.4663 
     35 CA         25.2237  -26.2783  -41.2544 C.3       5 UNK         0.0242 
     36 CB         24.5072  -25.2895  -42.1981 C.3       5 UNK        -0.1982 
     37 C          26.1833  -27.2476  -41.9542 C.2       5 UNK         0.5017 
     38 O          26.9997  -27.8691  -41.2730 O.2       5 UNK        -0.5012 
     39 N          26.0610  -27.3845  -43.2840 N.am      6 UNK        -0.4439 
     40 CA         26.8302  -28.3197  -44.1189 C.3       6 UNK         0.0297 
     41 CB         26.4924  -28.0720  -45.5981 C.3       6 UNK        -0.2006 
     42 C          26.6025  -29.8013  -43.7583 C.2       6 UNK         0.4892 
     43 O          27.4968  -30.6236  -43.9592 O.2       6 UNK        -0.5089 
     44 N          25.4230  -30.0946  -43.2062 N.am      7 UNK        -0.4243 
     45 CA         25.0498  -31.3355  -42.5462 C.3       7 UNK         0.0196 
     46 CB         24.4453  -32.3158  -43.5673 C.3       7 UNK        -0.2007 
     47 C          24.0487  -30.9694  -41.4437 C.2       7 UNK         0.5020 
     48 O          23.5383  -29.8428  -41.4271 O.2       7 UNK        -0.5147 
     49 N          23.7769  -31.9237  -40.5454 N.am      8 UNK        -0.4734 
     50 CA         22.7662  -31.7897  -39.4931 C.3       8 UNK         0.0238 
     51 CB         22.9084  -32.9312  -38.4719 C.3       8 UNK        -0.1912 
     52 C          21.3489  -31.7329  -40.0822 C.2       8 UNK         0.5038 
     53 O          20.6420  -30.7471  -39.8683 O.2       8 UNK        -0.5046 
     54 N          21.0064  -32.7647  -40.8631 N.am      9 UNK        -0.4200 
     55 CA         19.7080  -32.9747  -41.5173 C.3       9 UNK         0.0839 
     56 C          18.5354  -33.2423  -40.5256 C.2       9 UNK         0.5513 
     57 N          17.3005  -33.2623  -41.0079 N.am      9 UNK        -0.7519 
     58 O          18.7328  -33.4860  -39.3366 O.2       9 UNK        -0.4960 
     59 C59        19.3986  -31.8855  -42.5892 C.3       10 UNK        -0.0876 
     60 S60        18.7541  -32.6190  -44.1308 S.3       10 UNK        -0.2414 
     61 C61        20.1827  -32.4480  -45.2481 C.3       10 UNK         0.0169 
     62 H62        15.7069  -23.6614  -45.5914 H         1 UNK         0.0903 
     63 H63        16.0941  -23.0832  -43.9691 H         1 UNK         0.0903 
     64 H64        17.2497  -22.8615  -45.2855 H         1 UNK         0.0903 
     65 H65        15.9063  -25.8727  -45.7486 H         1 UNK         0.3096 
     66 H66        18.2831  -27.2946  -44.9794 H         1 UNK         0.1121 
     67 H67        15.6736  -28.2618  -46.2545 H         1 UNK         0.0849 
     68 H68        17.0985  -29.2415  -46.0781 H         1 UNK         0.0849 
     69 H69        17.9999  -29.6399  -48.7441 H         1 UNK         0.0865 
     70 H70        19.1480  -28.4010  -49.1797 H         1 UNK         0.0865 
     71 H71        18.7691  -31.2845  -47.2458 H         1 UNK         0.1346 
     72 H72        21.8280  -30.4452  -44.3681 H         1 UNK         0.1412 
     73 H73        20.4548  -27.3462  -46.9896 H         1 UNK         0.1426 
     74 H74        22.6116  -27.1295  -45.6157 H         1 UNK         0.0716 
     75 H75        22.9605  -28.3162  -44.3801 H         1 UNK         0.0716 
     76 H76        21.3052  -28.8496  -42.3696 H         1 UNK         0.0695 
     77 H77        19.7907  -28.6885  -43.2115 H         1 UNK         0.0695 
     78 H78        19.2256  -26.7343  -41.6320 H         1 UNK         0.0983 
     79 H79        19.5197  -29.3986  -40.3233 H         1 UNK         0.3095 
     80 H80        15.7054  -28.0331  -41.1212 H         1 UNK         0.0454 
     81 H81        17.6359  -25.8273  -40.2426 H         1 UNK         0.0851 
     82 H82        16.4668  -26.6313  -39.2092 H         1 UNK         0.0851 
     83 H83        15.9126  -25.6630  -40.5625 H         1 UNK         0.0851 
     84 H84        17.3414  -26.2962  -42.6903 H         1 UNK         0.2976 
     85 H85        21.5137  -28.9430  -39.9764 H         1 UNK         0.3116 
     86 H86        23.1886  -28.6428  -38.5499 H         1 UNK         0.0646 
     87 H87        21.6091  -26.2443  -37.4869 H         1 UNK         0.0847 
     88 H88        22.8783  -27.1137  -36.6398 H         1 UNK         0.0847 
     89 H89        21.3636  -27.9226  -37.0059 H         1 UNK         0.0847 
     90 H90        23.9203  -27.9272  -40.9453 H         1 UNK         0.3040 
     91 H91        25.8352  -25.6999  -40.5579 H         1 UNK         0.1015 
     92 H92        23.8416  -25.7945  -42.8973 H         1 UNK         0.0786 
     93 H93        25.2232  -24.7033  -42.7758 H         1 UNK         0.0786 
     94 H94        23.9019  -24.5825  -41.6301 H         1 UNK         0.0786 
     95 H95        25.3771  -26.8114  -43.7566 H         1 UNK         0.3172 
     96 H96        27.8898  -28.1045  -43.9668 H         1 UNK         0.0595 
     97 H97        25.4376  -28.2528  -45.8093 H         1 UNK         0.0839 
     98 H98        27.0706  -28.7334  -46.2451 H         1 UNK         0.0839 
     99 H99        26.7256  -27.0492  -45.8947 H         1 UNK         0.0839 
    100 H100       24.7725  -29.3409  -43.0261 H         1 UNK         0.2998 
    101 H101       25.9311  -31.7792  -42.0779 H         1 UNK         0.0822 
    102 H102       25.1619  -32.5571  -44.3526 H         1 UNK         0.0787 
    103 H103       24.1592  -33.2553  -43.0935 H         1 UNK         0.0787 
    104 H104       23.5564  -31.9066  -44.0453 H         1 UNK         0.0787 
    105 H105       24.2490  -32.8139  -40.6191 H         1 UNK         0.3055 
    106 H106       22.9427  -30.8523  -38.9655 H         1 UNK         0.1106 
    107 H107       22.8007  -33.9139  -38.9321 H         1 UNK         0.0828 
    108 H108       22.1487  -32.8522  -37.6926 H         1 UNK         0.0828 
    109 H109       23.8796  -32.8992  -37.9777 H         1 UNK         0.0828 
    110 H110       21.6677  -33.5194  -40.9670 H         1 UNK         0.2931 
    111 H111       19.8505  -33.9284  -42.0270 H         1 UNK         0.0412 
    112 H112       17.1305  -33.0853  -41.9866 H         1 UNK         0.3472 
    113 H113       16.5296  -33.4470  -40.3854 H         1 UNK         0.3472 
    114 H114       20.2954  -31.3139  -42.8226 H         1 UNK         0.0970 
    115 H115       18.6851  -31.1464  -42.2208 H         1 UNK         0.0970 
    116 H116       20.0567  -33.1325  -46.0881 H         1 UNK         0.0612 
    117 H117       21.0945  -32.7572  -44.7343 H         1 UNK         0.0612 
@<TRIPOS>BOND
     1    1    2 1    
     2    1   62 1    
     3    1   63 1    
     4    1   64 1    
     5    2    3 2    
     6    2    4 am   BACKBONE|DICT|INTERRES
     7    4    5 1    
     8    4   65 1    
     9    5    6 1    
    10    5   25 1    
    11    5   66 1    
    12    6    7 1    
    13    6   67 1    
    14    6   68 1    
    15    7    8 1    
    16    8    9 1    
    17    8   69 1    
    18    8   70 1    
    19    9   10 ar   
    20    9   14 ar   
    21   10   11 ar   
    22   10   71 1    
    23   11   12 ar   
    24   11   61 1    
    25   12   13 ar   
    26   12   72 1    
    27   13   14 ar   
    28   13   15 1    
    29   14   73 1    
    30   15   16 1    
    31   15   74 1    
    32   15   75 1    
    33   16   17 1    
    34   17   18 1    
    35   17   76 1    
    36   17   77 1    
    37   18   19 1    
    38   18   27 1    
    39   18   78 1    
    40   19   20 am   BACKBONE|DICT|INTERRES
    41   19   79 1    
    42   20   21 2    
    43   20   22 1    
    44   22   23 1    
    45   22   24 1    
    46   22   80 1    
    47   23   81 1    
    48   23   82 1    
    49   23   83 1    
    50   24   25 am   BACKBONE|DICT|INTERRES
    51   24   84 1    
    52   25   26 2    
    53   27   28 2    
    54   27   29 am   BACKBONE|DICT|INTERRES
    55   29   30 1    
    56   29   85 1    
    57   30   31 1    
    58   30   32 1    
    59   30   86 1    
    60   31   87 1    
    61   31   88 1    
    62   31   89 1    
    63   32   33 2    
    64   32   34 am   BACKBONE|DICT|INTERRES
    65   34   35 1    
    66   34   90 1    
    67   35   36 1    
    68   35   37 1    
    69   35   91 1    
    70   36   92 1    
    71   36   93 1    
    72   36   94 1    
    73   37   38 2    
    74   37   39 am   BACKBONE|DICT|INTERRES
    75   39   40 1    
    76   39   95 1    
    77   40   41 1    
    78   40   42 1    
    79   40   96 1    
    80   41   97 1    
    81   41   98 1    
    82   41   99 1    
    83   42   43 2    
    84   42   44 am   BACKBONE|DICT|INTERRES
    85   44   45 1    
    86   44  100 1    
    87   45   46 1    
    88   45   47 1    
    89   45  101 1    
    90   46  102 1    
    91   46  103 1    
    92   46  104 1    
    93   47   48 2    
    94   47   49 am   BACKBONE|DICT|INTERRES
    95   49   50 1    
    96   49  105 1    
    97   50   51 1    
    98   50   52 1    
    99   50  106 1    
   100   51  107 1    
   101   51  108 1    
   102   51  109 1    
   103   52   53 2    
   104   52   54 am   BACKBONE|DICT|INTERRES
   105   54   55 1    
   106   54  110 1    
   107   55   56 1    
   108   55   59 1    
   109   55  111 1    
   110   56   57 am   BACKBONE|DICT|INTERRES
   111   56   58 2    
   112   57  112 1    
   113   57  113 1    
   114   59   60 1    
   115   59  114 1    
   116   59  115 1    
   117   60   61 1    
   118   61  116 1    
   119   61  117 1    
@<TRIPOS>SUBSTRUCTURE
     1 UNK         1 GROUP             0       ****    0 ROOT    
