@<TRIPOS>MOLECULE
3R8
117   119    1
SMALL
USER_CHARGES


@<TRIPOS>ATOM
      1 CA         14.8757  -23.6227  -41.9204 C.3       0 UNK        -0.2013 
      2 C          15.7926  -23.8051  -43.1208 C.2       0 UNK         0.4866 
      3 O          16.1647  -22.8217  -43.7624 O.2       0 UNK        -0.5176 
      4 N          16.1521  -25.0557  -43.4345 N.am      1 UNK        -0.4884 
      5 CA         17.0738  -25.4144  -44.5168 C.3       1 UNK         0.0853 
      6 C6         17.0392  -26.9323  -44.8128 C.3       10 UNK        -0.0849 
      7 S7         15.4641  -27.4762  -45.5606 S.3       10 UNK        -0.2776 
      8 C8         15.1918  -29.1190  -44.7966 C.3       10 UNK         0.0316 
      9 C9         16.4425  -29.9950  -44.7256 C.ar      10 UNK        -0.0863 
     10 C10        16.7298  -30.6938  -43.5469 C.ar      10 UNK        -0.1009 
     11 C11        17.9075  -31.4382  -43.4293 C.ar      10 UNK        -0.0712 
     12 C12        18.7961  -31.4904  -44.5048 C.ar      10 UNK        -0.0894 
     13 C13        18.5315  -30.7833  -45.6804 C.ar      10 UNK        -0.0745 
     14 C14        17.3361  -30.0710  -45.8012 C.ar      10 UNK        -0.0972 
     15 C15        19.5931  -30.6952  -46.7675 C.3       10 UNK         0.0209 
     16 S16        20.5165  -29.1179  -46.6736 S.3       10 UNK        -0.2568 
     17 C17        20.9480  -29.0529  -44.8994 C.3       10 UNK        -0.0983 
     18 CA         21.7859  -27.8288  -44.4698 C.3       3 UNK         0.0876 
     19 N          21.1704  -26.5729  -44.9104 N.am      3 UNK        -0.4424 
     20 C          21.6133  -25.3298  -44.6745 C.2       2 UNK         0.4918 
     21 O          22.6660  -25.0757  -44.0888 O.2       2 UNK        -0.4875 
     22 CA         20.6888  -24.1761  -45.1099 C.3       2 UNK         0.0481 
     23 CB         21.1530  -23.6014  -46.4571 C.3       2 UNK        -0.1831 
     24 N          19.2685  -24.5486  -45.2005 N.am      2 UNK        -0.4498 
     25 C          18.5176  -24.9909  -44.1790 C.2       1 UNK         0.5027 
     26 O          18.9474  -25.1458  -43.0329 O.2       1 UNK        -0.4969 
     27 C          22.0033  -27.9050  -42.9415 C.2       3 UNK         0.5005 
     28 O          22.8953  -28.6309  -42.5001 O.2       3 UNK        -0.5279 
     29 N          21.2084  -27.1578  -42.1569 N.am      4 UNK        -0.4463 
     30 CA         21.3108  -27.0606  -40.6978 C.3       4 UNK         0.0283 
     31 CB         20.1305  -26.2383  -40.1584 C.3       4 UNK        -0.1875 
     32 C          22.6450  -26.4742  -40.1999 C.2       4 UNK         0.4949 
     33 O          23.0243  -26.7489  -39.0622 O.2       4 UNK        -0.5039 
     34 N          23.3502  -25.7142  -41.0530 N.am      5 UNK        -0.4663 
     35 CA         24.7062  -25.2247  -40.7863 C.3       5 UNK         0.0242 
     36 CB         25.0691  -24.1384  -41.8111 C.3       5 UNK        -0.1982 
     37 C          25.7557  -26.3517  -40.7975 C.2       5 UNK         0.5017 
     38 O          26.7274  -26.2763  -40.0451 O.2       5 UNK        -0.5012 
     39 N          25.5339  -27.3752  -41.6347 N.am      6 UNK        -0.4439 
     40 CA         26.3419  -28.5957  -41.6933 C.3       6 UNK         0.0297 
     41 CB         26.3325  -29.1369  -43.1330 C.3       6 UNK        -0.2006 
     42 C          25.8338  -29.6731  -40.7187 C.2       6 UNK         0.4892 
     43 O          26.6219  -30.5280  -40.3139 O.2       6 UNK        -0.5089 
     44 N          24.5346  -29.6171  -40.3835 N.am      7 UNK        -0.4243 
     45 CA         23.7596  -30.5813  -39.5952 C.3       7 UNK         0.0196 
     46 CB         24.2790  -30.6752  -38.1450 C.3       7 UNK        -0.2007 
     47 C          23.6743  -31.9422  -40.3088 C.2       7 UNK         0.5020 
     48 O          23.9108  -32.9846  -39.6965 O.2       7 UNK        -0.5147 
     49 N          23.3481  -31.8985  -41.6097 N.am      8 UNK        -0.4734 
     50 CA         23.3689  -33.0407  -42.5338 C.3       8 UNK         0.0238 
     51 CB         23.0414  -32.5452  -43.9510 C.3       8 UNK        -0.1912 
     52 C          22.4527  -34.2199  -42.1529 C.2       8 UNK         0.5038 
     53 O          22.7614  -35.3543  -42.5207 O.2       8 UNK        -0.5046 
     54 N          21.3640  -33.9412  -41.4243 N.am      9 UNK        -0.4200 
     55 CA         20.4558  -34.9562  -40.8627 C.3       9 UNK         0.0839 
     56 C          20.9764  -35.6164  -39.5509 C.2       9 UNK         0.5513 
     57 N          22.0912  -35.1870  -38.9703 N.am      9 UNK        -0.7519 
     58 O          20.3562  -36.5517  -39.0514 O.2       9 UNK        -0.4960 
     59 C59        19.0109  -34.4157  -40.6869 C.3       10 UNK        -0.0876 
     60 S60        18.2480  -33.9310  -42.2726 S.3       10 UNK        -0.2414 
     61 C61        18.2699  -32.1208  -42.1196 C.3       10 UNK         0.0169 
     62 H62        13.9526  -23.1300  -42.2245 H         1 UNK         0.0903 
     63 H63        14.6152  -24.5744  -41.4574 H         1 UNK         0.0903 
     64 H64        15.3620  -23.0019  -41.1684 H         1 UNK         0.0903 
     65 H65        15.8253  -25.8246  -42.8676 H         1 UNK         0.3096 
     66 H66        16.7621  -24.8749  -45.4144 H         1 UNK         0.1121 
     67 H67        17.2332  -27.4976  -43.8987 H         1 UNK         0.0849 
     68 H68        17.8303  -27.2101  -45.5125 H         1 UNK         0.0849 
     69 H69        14.4227  -29.6477  -45.3609 H         1 UNK         0.0865 
     70 H70        14.7835  -28.9606  -43.7972 H         1 UNK         0.0865 
     71 H71        16.0518  -30.6329  -42.7064 H         1 UNK         0.1346 
     72 H72        19.7218  -32.0380  -44.4018 H         1 UNK         0.1412 
     73 H73        17.1390  -29.5146  -46.7073 H         1 UNK         0.1426 
     74 H74        19.1271  -30.7815  -47.7501 H         1 UNK         0.0716 
     75 H75        20.2959  -31.5258  -46.6851 H         1 UNK         0.0716 
     76 H76        21.4724  -29.9758  -44.6493 H         1 UNK         0.0695 
     77 H77        20.0172  -29.0562  -44.3295 H         1 UNK         0.0695 
     78 H78        22.7687  -27.8925  -44.9411 H         1 UNK         0.0983 
     79 H79        20.3145  -26.6757  -45.4340 H         1 UNK         0.3095 
     80 H80        20.7746  -23.3908  -44.3561 H         1 UNK         0.0454 
     81 H81        21.0675  -24.3334  -47.2612 H         1 UNK         0.0851 
     82 H82        22.1980  -23.2915  -46.4095 H         1 UNK         0.0851 
     83 H83        20.5711  -22.7232  -46.7371 H         1 UNK         0.0851 
     84 H84        18.8426  -24.4585  -46.1125 H         1 UNK         0.2976 
     85 H85        20.5003  -26.5768  -42.5929 H         1 UNK         0.3116 
     86 H86        21.2317  -28.0731  -40.2966 H         1 UNK         0.0646 
     87 H87        19.1746  -26.6752  -40.4480 H         1 UNK         0.0847 
     88 H88        20.1538  -25.2115  -40.5260 H         1 UNK         0.0847 
     89 H89        20.1495  -26.1947  -39.0685 H         1 UNK         0.0847 
     90 H90        22.9675  -25.5213  -41.9721 H         1 UNK         0.3040 
     91 H91        24.7172  -24.7742  -39.7911 H         1 UNK         0.1015 
     92 H92        26.0577  -23.7247  -41.6070 H         1 UNK         0.0786 
     93 H93        24.3594  -23.3114  -41.7815 H         1 UNK         0.0786 
     94 H94        25.0837  -24.5307  -42.8288 H         1 UNK         0.0786 
     95 H95        24.6899  -27.3661  -42.1928 H         1 UNK         0.3172 
     96 H96        27.3748  -28.3624  -41.4263 H         1 UNK         0.0595 
     97 H97        25.3280  -29.4075  -43.4606 H         1 UNK         0.0839 
     98 H98        26.9519  -30.0311  -43.2161 H         1 UNK         0.0839 
     99 H99        26.7286  -28.4034  -43.8353 H         1 UNK         0.0839 
    100 H100       23.9772  -28.9215  -40.8669 H         1 UNK         0.2998 
    101 H101       22.7410  -30.1926  -39.5530 H         1 UNK         0.0822 
    102 H102       24.3186  -29.6920  -37.6759 H         1 UNK         0.0787 
    103 H103       23.6226  -31.2992  -37.5373 H         1 UNK         0.0787 
    104 H104       25.2766  -31.1123  -38.0952 H         1 UNK         0.0787 
    105 H105       23.1761  -30.9890  -42.0200 H         1 UNK         0.3055 
    106 H106       24.3905  -33.4272  -42.5368 H         1 UNK         0.1106 
    107 H107       22.0270  -32.1543  -44.0109 H         1 UNK         0.0828 
    108 H108       23.1197  -33.3564  -44.6763 H         1 UNK         0.0828 
    109 H109       23.7270  -31.7598  -44.2702 H         1 UNK         0.0828 
    110 H110       21.2026  -32.9853  -41.1484 H         1 UNK         0.2931 
    111 H111       20.3942  -35.7743  -41.5832 H         1 UNK         0.0412 
    112 H112       22.4051  -35.6375  -38.1255 H         1 UNK         0.3472 
    113 H113       22.6378  -34.4260  -39.3616 H         1 UNK         0.3472 
    114 H114       18.3679  -35.1822  -40.2499 H         1 UNK         0.0970 
    115 H115       18.9939  -33.5794  -39.9858 H         1 UNK         0.0970 
    116 H116       19.2649  -31.7927  -41.8159 H         1 UNK         0.0612 
    117 H117       17.5868  -31.8221  -41.3228 H         1 UNK         0.0612 
@<TRIPOS>BOND
     1    1    2 1    
     2    1   62 1    
     3    1   63 1    
     4    1   64 1    
     5    2    3 2    
     6    2    4 am   BACKBONE|DICT|INTERRES
     7    4    5 1    
     8    4   65 1    
     9    5    6 1    
    10    5   25 1    
    11    5   66 1    
    12    6    7 1    
    13    6   67 1    
    14    6   68 1    
    15    7    8 1    
    16    8    9 1    
    17    8   69 1    
    18    8   70 1    
    19    9   10 ar   
    20    9   14 ar   
    21   10   11 ar   
    22   10   71 1    
    23   11   12 ar   
    24   11   61 1    
    25   12   13 ar   
    26   12   72 1    
    27   13   14 ar   
    28   13   15 1    
    29   14   73 1    
    30   15   16 1    
    31   15   74 1    
    32   15   75 1    
    33   16   17 1    
    34   17   18 1    
    35   17   76 1    
    36   17   77 1    
    37   18   19 1    
    38   18   27 1    
    39   18   78 1    
    40   19   20 am   BACKBONE|DICT|INTERRES
    41   19   79 1    
    42   20   21 2    
    43   20   22 1    
    44   22   23 1    
    45   22   24 1    
    46   22   80 1    
    47   23   81 1    
    48   23   82 1    
    49   23   83 1    
    50   24   25 am   BACKBONE|DICT|INTERRES
    51   24   84 1    
    52   25   26 2    
    53   27   28 2    
    54   27   29 am   BACKBONE|DICT|INTERRES
    55   29   30 1    
    56   29   85 1    
    57   30   31 1    
    58   30   32 1    
    59   30   86 1    
    60   31   87 1    
    61   31   88 1    
    62   31   89 1    
    63   32   33 2    
    64   32   34 am   BACKBONE|DICT|INTERRES
    65   34   35 1    
    66   34   90 1    
    67   35   36 1    
    68   35   37 1    
    69   35   91 1    
    70   36   92 1    
    71   36   93 1    
    72   36   94 1    
    73   37   38 2    
    74   37   39 am   BACKBONE|DICT|INTERRES
    75   39   40 1    
    76   39   95 1    
    77   40   41 1    
    78   40   42 1    
    79   40   96 1    
    80   41   97 1    
    81   41   98 1    
    82   41   99 1    
    83   42   43 2    
    84   42   44 am   BACKBONE|DICT|INTERRES
    85   44   45 1    
    86   44  100 1    
    87   45   46 1    
    88   45   47 1    
    89   45  101 1    
    90   46  102 1    
    91   46  103 1    
    92   46  104 1    
    93   47   48 2    
    94   47   49 am   BACKBONE|DICT|INTERRES
    95   49   50 1    
    96   49  105 1    
    97   50   51 1    
    98   50   52 1    
    99   50  106 1    
   100   51  107 1    
   101   51  108 1    
   102   51  109 1    
   103   52   53 2    
   104   52   54 am   BACKBONE|DICT|INTERRES
   105   54   55 1    
   106   54  110 1    
   107   55   56 1    
   108   55   59 1    
   109   55  111 1    
   110   56   57 am   BACKBONE|DICT|INTERRES
   111   56   58 2    
   112   57  112 1    
   113   57  113 1    
   114   59   60 1    
   115   59  114 1    
   116   59  115 1    
   117   60   61 1    
   118   61  116 1    
   119   61  117 1    
@<TRIPOS>SUBSTRUCTURE
     1 UNK         1 GROUP             0       ****    0 ROOT    
