@<TRIPOS>MOLECULE
3R8
117   119    1
SMALL
USER_CHARGES


@<TRIPOS>ATOM
      1 CA         21.4639  -24.6457  -41.8947 C.3       0 UNK        -0.2013 
      2 C          20.3919  -25.0229  -42.9047 C.2       0 UNK         0.4866 
      3 O          20.6491  -25.8343  -43.7993 O.2       0 UNK        -0.5176 
      4 N          19.1957  -24.4341  -42.7676 N.am      1 UNK        -0.4884 
      5 CA         18.0362  -24.6065  -43.6543 C.3       1 UNK         0.0853 
      6 C6         17.4438  -26.0468  -43.6087 C.3       10 UNK        -0.0849 
      7 S7         16.9101  -26.5264  -41.9312 S.3       10 UNK        -0.2776 
      8 C8         15.8255  -27.9454  -42.2878 C.3       10 UNK         0.0316 
      9 C9         16.6095  -29.1531  -42.7831 C.ar      10 UNK        -0.0863 
     10 C10        17.1640  -30.0567  -41.8718 C.ar      10 UNK        -0.1009 
     11 C11        17.8651  -31.1858  -42.3109 C.ar      10 UNK        -0.0712 
     12 C12        18.0243  -31.3852  -43.6892 C.ar      10 UNK        -0.0894 
     13 C13        17.4840  -30.4850  -44.6127 C.ar      10 UNK        -0.0745 
     14 C14        16.7643  -29.3791  -44.1526 C.ar      10 UNK        -0.0972 
     15 C15        17.6591  -30.7259  -46.1076 C.3       10 UNK         0.0209 
     16 S16        18.4124  -29.3090  -46.9710 S.3       10 UNK        -0.2568 
     17 C17        20.0497  -29.2175  -46.1703 C.3       10 UNK        -0.0983 
     18 CA         20.9514  -28.1121  -46.7835 C.3       3 UNK         0.0876 
     19 N          20.3179  -26.7921  -46.6697 N.am      3 UNK        -0.4424 
     20 C          19.8958  -26.0506  -47.7049 C.2       2 UNK         0.4918 
     21 O          20.1552  -26.3093  -48.8810 O.2       2 UNK        -0.4875 
     22 CA         18.9994  -24.8398  -47.3770 C.3       2 UNK         0.0481 
     23 CB         17.8956  -24.6303  -48.4299 C.3       2 UNK        -0.1831 
     24 N          18.3836  -25.0124  -46.0602 N.am      2 UNK        -0.4498 
     25 C          18.4120  -24.1133  -45.0707 C.2       1 UNK         0.5027 
     26 O          18.7728  -22.9435  -45.2200 O.2       1 UNK        -0.4969 
     27 C          22.3489  -28.1381  -46.1310 C.2       3 UNK         0.5005 
     28 O          23.0217  -29.1661  -46.2162 O.2       3 UNK        -0.5279 
     29 N          22.7522  -27.0362  -45.4756 N.am      4 UNK        -0.4463 
     30 CA         23.9066  -26.9114  -44.5753 C.3       4 UNK         0.0283 
     31 CB         25.2435  -27.1413  -45.3119 C.3       4 UNK        -0.1875 
     32 C          23.7404  -27.7912  -43.3202 C.2       4 UNK         0.4949 
     33 O          24.7014  -28.4029  -42.8499 O.2       4 UNK        -0.5039 
     34 N          22.5094  -27.8285  -42.7913 N.am      5 UNK        -0.4663 
     35 CA         22.0849  -28.6020  -41.6236 C.3       5 UNK         0.0242 
     36 CB         20.5537  -28.7638  -41.6713 C.3       5 UNK        -0.1982 
     37 C          22.5784  -27.9914  -40.2968 C.2       5 UNK         0.5017 
     38 O          21.7722  -27.6454  -39.4326 O.2       5 UNK        -0.5012 
     39 N          23.9045  -27.8625  -40.1642 N.am      6 UNK        -0.4439 
     40 CA         24.5960  -27.3942  -38.9579 C.3       6 UNK         0.0297 
     41 CB         26.0337  -26.9970  -39.3293 C.3       6 UNK        -0.2006 
     42 C          24.5989  -28.4345  -37.8201 C.2       6 UNK         0.4892 
     43 O          24.8037  -28.0649  -36.6632 O.2       6 UNK        -0.5089 
     44 N          24.3709  -29.7044  -38.1709 N.am      7 UNK        -0.4243 
     45 CA         24.2036  -30.8376  -37.2678 C.3       7 UNK         0.0196 
     46 CB         25.5433  -31.5908  -37.1263 C.3       7 UNK        -0.2007 
     47 C          23.0438  -31.6920  -37.8047 C.2       7 UNK         0.5020 
     48 O          22.0326  -31.1327  -38.2350 O.2       7 UNK        -0.5147 
     49 N          23.1964  -33.0224  -37.8061 N.am      8 UNK        -0.4734 
     50 CA         22.2199  -33.9927  -38.3154 C.3       8 UNK         0.0238 
     51 CB         22.5416  -35.3778  -37.7228 C.3       8 UNK        -0.1912 
     52 C          22.1641  -34.0081  -39.8574 C.2       8 UNK         0.5038 
     53 O          22.5622  -34.9944  -40.4798 O.2       8 UNK        -0.5046 
     54 N          21.6957  -32.8948  -40.4348 N.am      9 UNK        -0.4200 
     55 CA         21.5520  -32.6344  -41.8786 C.3       9 UNK         0.0839 
     56 C          22.8997  -32.4799  -42.6475 C.2       9 UNK         0.5513 
     57 N          24.0308  -32.3079  -41.9737 N.am      9 UNK        -0.7519 
     58 O          22.9182  -32.4824  -43.8749 O.2       9 UNK        -0.4960 
     59 C59        20.5737  -33.6176  -42.5868 C.3       10 UNK        -0.0876 
     60 S60        18.9113  -33.8126  -41.8352 S.3       10 UNK        -0.2414 
     61 C61        18.4175  -32.1467  -41.2529 C.3       10 UNK         0.0169 
     62 H62        21.4514  -25.3418  -41.0576 H         1 UNK         0.0903 
     63 H63        21.3084  -23.6399  -41.5050 H         1 UNK         0.0903 
     64 H64        22.4511  -24.6777  -42.3544 H         1 UNK         0.0903 
     65 H65        19.0614  -23.7687  -42.0190 H         1 UNK         0.3096 
     66 H66        17.2655  -23.9203  -43.2989 H         1 UNK         0.1121 
     67 H67        16.5780  -26.1189  -44.2697 H         1 UNK         0.0849 
     68 H68        18.1684  -26.7877  -43.9513 H         1 UNK         0.0849 
     69 H69        15.2835  -28.2093  -41.3783 H         1 UNK         0.0865 
     70 H70        15.0656  -27.6555  -43.0151 H         1 UNK         0.0865 
     71 H71        17.0410  -29.8828  -40.8113 H         1 UNK         0.1346 
     72 H72        18.5553  -32.2467  -44.0603 H         1 UNK         0.1412 
     73 H73        16.3329  -28.6897  -44.8653 H         1 UNK         0.1426 
     74 H74        18.2672  -31.6126  -46.2936 H         1 UNK         0.0716 
     75 H75        16.6814  -30.9256  -46.5478 H         1 UNK         0.0716 
     76 H76        20.5219  -30.1978  -46.2608 H         1 UNK         0.0695 
     77 H77        19.9049  -29.0413  -45.1025 H         1 UNK         0.0695 
     78 H78        21.1142  -28.3594  -47.8347 H         1 UNK         0.0983 
     79 H79        20.1243  -26.4745  -45.7262 H         1 UNK         0.3095 
     80 H80        19.6525  -23.9649  -47.3805 H         1 UNK         0.0454 
     81 H81        17.2707  -23.7722  -48.1824 H         1 UNK         0.0851 
     82 H82        17.2484  -25.5043  -48.5128 H         1 UNK         0.0851 
     83 H83        18.3219  -24.4433  -49.4162 H         1 UNK         0.0851 
     84 H84        18.0480  -25.9441  -45.8590 H         1 UNK         0.2976 
     85 H85        22.1059  -26.2581  -45.4450 H         1 UNK         0.3116 
     86 H86        23.9035  -25.8792  -44.2224 H         1 UNK         0.0646 
     87 H87        25.3201  -26.5165  -46.2015 H         1 UNK         0.0847 
     88 H88        26.0878  -26.8932  -44.6678 H         1 UNK         0.0847 
     89 H89        25.3692  -28.1801  -45.6178 H         1 UNK         0.0847 
     90 H90        21.7961  -27.2451  -43.2207 H         1 UNK         0.3040 
     91 H91        22.5279  -29.5967  -41.6956 H         1 UNK         0.1015 
     92 H92        20.0401  -27.8030  -41.6203 H         1 UNK         0.0786 
     93 H93        20.1970  -29.3652  -40.8345 H         1 UNK         0.0786 
     94 H94        20.2331  -29.2620  -42.5864 H         1 UNK         0.0786 
     95 H95        24.4781  -28.1242  -40.9632 H         1 UNK         0.3172 
     96 H96        24.0794  -26.5053  -38.5897 H         1 UNK         0.0595 
     97 H97        26.6005  -27.8452  -39.7156 H         1 UNK         0.0839 
     98 H98        26.5704  -26.6153  -38.4595 H         1 UNK         0.0839 
     99 H99        26.0462  -26.2121  -40.0858 H         1 UNK         0.0839 
    100 H100       24.1595  -29.8877  -39.1407 H         1 UNK         0.2998 
    101 H101       23.8954  -30.4802  -36.2829 H         1 UNK         0.0822 
    102 H102       26.3314  -30.9209  -36.7815 H         1 UNK         0.0787 
    103 H103       25.4740  -32.3959  -36.3938 H         1 UNK         0.0787 
    104 H104       25.8708  -32.0216  -38.0735 H         1 UNK         0.0787 
    105 H105       24.0684  -33.4017  -37.4650 H         1 UNK         0.3055 
    106 H106       21.2263  -33.7060  -37.9622 H         1 UNK         0.1106 
    107 H107       22.4987  -35.3637  -36.6336 H         1 UNK         0.0828 
    108 H108       21.8223  -36.1243  -38.0629 H         1 UNK         0.0828 
    109 H109       23.5335  -35.7244  -38.0156 H         1 UNK         0.0828 
    110 H110       21.4810  -32.1179  -39.8169 H         1 UNK         0.2931 
    111 H111       21.1105  -31.6419  -41.9493 H         1 UNK         0.0412 
    112 H112       24.0389  -32.3418  -40.9686 H         1 UNK         0.3472 
    113 H113       24.8924  -32.1936  -42.4843 H         1 UNK         0.3472 
    114 H114       20.4365  -33.3209  -43.6268 H         1 UNK         0.0970 
    115 H115       21.0233  -34.6105  -42.6366 H         1 UNK         0.0970 
    116 H116       17.6341  -32.3066  -40.5105 H         1 UNK         0.0612 
    117 H117       19.2307  -31.6681  -40.7106 H         1 UNK         0.0612 
@<TRIPOS>BOND
     1    1    2 1    
     2    1   62 1    
     3    1   63 1    
     4    1   64 1    
     5    2    3 2    
     6    2    4 am   BACKBONE|DICT|INTERRES
     7    4    5 1    
     8    4   65 1    
     9    5    6 1    
    10    5   25 1    
    11    5   66 1    
    12    6    7 1    
    13    6   67 1    
    14    6   68 1    
    15    7    8 1    
    16    8    9 1    
    17    8   69 1    
    18    8   70 1    
    19    9   10 ar   
    20    9   14 ar   
    21   10   11 ar   
    22   10   71 1    
    23   11   12 ar   
    24   11   61 1    
    25   12   13 ar   
    26   12   72 1    
    27   13   14 ar   
    28   13   15 1    
    29   14   73 1    
    30   15   16 1    
    31   15   74 1    
    32   15   75 1    
    33   16   17 1    
    34   17   18 1    
    35   17   76 1    
    36   17   77 1    
    37   18   19 1    
    38   18   27 1    
    39   18   78 1    
    40   19   20 am   BACKBONE|DICT|INTERRES
    41   19   79 1    
    42   20   21 2    
    43   20   22 1    
    44   22   23 1    
    45   22   24 1    
    46   22   80 1    
    47   23   81 1    
    48   23   82 1    
    49   23   83 1    
    50   24   25 am   BACKBONE|DICT|INTERRES
    51   24   84 1    
    52   25   26 2    
    53   27   28 2    
    54   27   29 am   BACKBONE|DICT|INTERRES
    55   29   30 1    
    56   29   85 1    
    57   30   31 1    
    58   30   32 1    
    59   30   86 1    
    60   31   87 1    
    61   31   88 1    
    62   31   89 1    
    63   32   33 2    
    64   32   34 am   BACKBONE|DICT|INTERRES
    65   34   35 1    
    66   34   90 1    
    67   35   36 1    
    68   35   37 1    
    69   35   91 1    
    70   36   92 1    
    71   36   93 1    
    72   36   94 1    
    73   37   38 2    
    74   37   39 am   BACKBONE|DICT|INTERRES
    75   39   40 1    
    76   39   95 1    
    77   40   41 1    
    78   40   42 1    
    79   40   96 1    
    80   41   97 1    
    81   41   98 1    
    82   41   99 1    
    83   42   43 2    
    84   42   44 am   BACKBONE|DICT|INTERRES
    85   44   45 1    
    86   44  100 1    
    87   45   46 1    
    88   45   47 1    
    89   45  101 1    
    90   46  102 1    
    91   46  103 1    
    92   46  104 1    
    93   47   48 2    
    94   47   49 am   BACKBONE|DICT|INTERRES
    95   49   50 1    
    96   49  105 1    
    97   50   51 1    
    98   50   52 1    
    99   50  106 1    
   100   51  107 1    
   101   51  108 1    
   102   51  109 1    
   103   52   53 2    
   104   52   54 am   BACKBONE|DICT|INTERRES
   105   54   55 1    
   106   54  110 1    
   107   55   56 1    
   108   55   59 1    
   109   55  111 1    
   110   56   57 am   BACKBONE|DICT|INTERRES
   111   56   58 2    
   112   57  112 1    
   113   57  113 1    
   114   59   60 1    
   115   59  114 1    
   116   59  115 1    
   117   60   61 1    
   118   61  116 1    
   119   61  117 1    
@<TRIPOS>SUBSTRUCTURE
     1 UNK         1 GROUP             0       ****    0 ROOT    
