@<TRIPOS>MOLECULE
3R8
117   119    1
SMALL
USER_CHARGES


@<TRIPOS>ATOM
      1 CA         18.3828  -24.9675  -39.1399 C.3       0 UNK        -0.2013 
      2 C          18.2701  -24.7754  -40.6450 C.2       0 UNK         0.4866 
      3 O          18.2058  -23.6374  -41.1117 O.2       0 UNK        -0.5176 
      4 N          18.2230  -25.8753  -41.4063 N.am      1 UNK        -0.4884 
      5 CA         18.0948  -25.8698  -42.8684 C.3       1 UNK         0.0853 
      6 C6         17.6232  -27.2353  -43.4259 C.3       10 UNK        -0.0849 
      7 S7         16.1752  -27.9488  -42.5678 S.3       10 UNK        -0.2776 
      8 C8         15.5297  -29.1263  -43.8043 C.3       10 UNK         0.0316 
      9 C9         16.6115  -30.0563  -44.3388 C.ar      10 UNK        -0.0863 
     10 C10        16.9674  -31.2169  -43.6485 C.ar      10 UNK        -0.1009 
     11 C11        17.9761  -32.0528  -44.1394 C.ar      10 UNK        -0.0712 
     12 C12        18.6459  -31.7049  -45.3190 C.ar      10 UNK        -0.0894 
     13 C13        18.2970  -30.5475  -46.0268 C.ar      10 UNK        -0.0745 
     14 C14        17.2584  -29.7466  -45.5360 C.ar      10 UNK        -0.0972 
     15 C15        19.0393  -30.2063  -47.3228 C.3       10 UNK         0.0209 
     16 S16        18.9239  -28.4465  -47.8211 S.3       10 UNK        -0.2568 
     17 C17        20.6304  -28.0487  -48.3343 C.3       10 UNK        -0.0983 
     18 CA         21.5063  -27.4380  -47.2067 C.3       3 UNK         0.0876 
     19 N          20.8287  -26.3248  -46.5297 N.am      3 UNK        -0.4424 
     20 C          21.4473  -25.2716  -45.9822 C.2       2 UNK         0.4918 
     21 O          22.6690  -25.1209  -45.9776 O.2       2 UNK        -0.4875 
     22 CA         20.5518  -24.1951  -45.3396 C.3       2 UNK         0.0481 
     23 CB         20.1011  -23.1754  -46.3979 C.3       2 UNK        -0.1831 
     24 N          19.3748  -24.7230  -44.6368 N.am      2 UNK        -0.4498 
     25 C          19.4338  -25.4684  -43.5238 C.2       1 UNK         0.5027 
     26 O          20.4909  -25.8689  -43.0330 O.2       1 UNK        -0.4969 
     27 C          21.9979  -28.5318  -46.2358 C.2       3 UNK         0.5005 
     28 O          22.7949  -29.3773  -46.6478 O.2       3 UNK        -0.5279 
     29 N          21.4960  -28.5379  -44.9933 N.am      4 UNK        -0.4463 
     30 CA         21.8005  -29.5542  -43.9884 C.3       4 UNK         0.0283 
     31 CB         20.7799  -29.4571  -42.8432 C.3       4 UNK        -0.1875 
     32 C          23.2364  -29.4251  -43.4599 C.2       4 UNK         0.4949 
     33 O          23.6925  -28.3098  -43.1982 O.2       4 UNK        -0.5039 
     34 N          23.9094  -30.5699  -43.2735 N.am      5 UNK        -0.4663 
     35 CA         25.2518  -30.6634  -42.6908 C.3       5 UNK         0.0242 
     36 CB         25.7358  -32.1217  -42.7342 C.3       5 UNK        -0.1982 
     37 C          25.2524  -30.1284  -41.2514 C.2       5 UNK         0.5017 
     38 O          24.4643  -30.6118  -40.4343 O.2       5 UNK        -0.5012 
     39 N          26.0621  -29.0889  -41.0002 N.am      6 UNK        -0.4439 
     40 CA         26.1214  -28.2956  -39.7615 C.3       6 UNK         0.0297 
     41 CB         26.7144  -29.1393  -38.6127 C.3       6 UNK        -0.2006 
     42 C          24.7736  -27.6448  -39.3703 C.2       6 UNK         0.4892 
     43 O          24.5621  -27.3536  -38.1925 O.2       6 UNK        -0.5089 
     44 N          23.8772  -27.4700  -40.3566 N.am      7 UNK        -0.4243 
     45 CA         22.4661  -27.0834  -40.2381 C.3       7 UNK         0.0196 
     46 CB         22.3265  -25.6548  -39.6738 C.3       7 UNK        -0.2007 
     47 C          21.5939  -28.1082  -39.4771 C.2       7 UNK         0.5020 
     48 O          20.4687  -27.7734  -39.1062 O.2       7 UNK        -0.5147 
     49 N          22.1078  -29.3273  -39.2552 N.am      8 UNK        -0.4734 
     50 CA         21.4859  -30.3624  -38.4255 C.3       8 UNK         0.0238 
     51 CB         22.4376  -30.6949  -37.2639 C.3       8 UNK        -0.1912 
     52 C          21.1447  -31.6404  -39.2066 C.2       8 UNK         0.5038 
     53 O          20.1757  -32.3029  -38.8354 O.2       8 UNK        -0.5046 
     54 N          21.9403  -31.9639  -40.2392 N.am      9 UNK        -0.4200 
     55 CA         21.8804  -33.1822  -41.0691 C.3       9 UNK         0.0839 
     56 C          21.8888  -34.5158  -40.2578 C.2       9 UNK         0.5513 
     57 N          21.2557  -35.5775  -40.7399 N.am      9 UNK        -0.7519 
     58 O          22.5344  -34.6160  -39.2164 O.2       9 UNK        -0.4960 
     59 C59        20.8716  -33.0996  -42.2599 C.3       10 UNK        -0.0876 
     60 S60        19.1043  -33.0782  -41.8075 S.3       10 UNK        -0.2414 
     61 C61        18.2963  -33.3541  -43.4153 C.3       10 UNK         0.0169 
     62 H62        19.2720  -24.4665  -38.7592 H         1 UNK         0.0903 
     63 H63        17.5130  -24.5398  -38.6422 H         1 UNK         0.0903 
     64 H64        18.4431  -26.0208  -38.8674 H         1 UNK         0.0903 
     65 H65        18.3029  -26.7864  -40.9770 H         1 UNK         0.3096 
     66 H66        17.3440  -25.1206  -43.1305 H         1 UNK         0.1121 
     67 H67        17.3789  -27.1243  -44.4834 H         1 UNK         0.0849 
     68 H68        18.4238  -27.9721  -43.3730 H         1 UNK         0.0849 
     69 H69        14.7291  -29.7132  -43.3515 H         1 UNK         0.0865 
     70 H70        15.0688  -28.5689  -44.6214 H         1 UNK         0.0865 
     71 H71        16.4581  -31.4732  -42.7294 H         1 UNK         0.1346 
     72 H72        19.4290  -32.3472  -45.6981 H         1 UNK         0.1412 
     73 H73        16.9498  -28.8621  -46.0734 H         1 UNK         0.1426 
     74 H74        18.6382  -30.8213  -48.1292 H         1 UNK         0.0716 
     75 H75        20.0873  -30.4876  -47.2160 H         1 UNK         0.0716 
     76 H76        20.5548  -27.3260  -49.1481 H         1 UNK         0.0695 
     77 H77        21.1003  -28.9286  -48.7787 H         1 UNK         0.0695 
     78 H78        22.4073  -27.0456  -47.6842 H         1 UNK         0.0983 
     79 H79        19.8199  -26.3689  -46.5133 H         1 UNK         0.3095 
     80 H80        21.1606  -23.6644  -44.6044 H         1 UNK         0.0454 
     81 H81        20.9594  -22.7490  -46.9192 H         1 UNK         0.0851 
     82 H82        19.5575  -22.3461  -45.9451 H         1 UNK         0.0851 
     83 H83        19.4564  -23.6295  -47.1513 H         1 UNK         0.0851 
     84 H84        18.4724  -24.4397  -44.9921 H         1 UNK         0.2976 
     85 H85        20.9186  -27.7631  -44.7020 H         1 UNK         0.3116 
     86 H86        21.6918  -30.5337  -44.4588 H         1 UNK         0.0646 
     87 H87        20.6603  -28.4358  -42.4874 H         1 UNK         0.0847 
     88 H88        19.8026  -29.8224  -43.1582 H         1 UNK         0.0847 
     89 H89        21.0793  -30.0554  -41.9849 H         1 UNK         0.0847 
     90 H90        23.4671  -31.4423  -43.5208 H         1 UNK         0.3040 
     91 H91        25.9245  -30.0590  -43.3034 H         1 UNK         0.1015 
     92 H92        26.7538  -32.2030  -42.3507 H         1 UNK         0.0786 
     93 H93        25.7438  -32.5089  -43.7533 H         1 UNK         0.0786 
     94 H94        25.1108  -32.7785  -42.1290 H         1 UNK         0.0786 
     95 H95        26.6445  -28.7496  -41.7544 H         1 UNK         0.3172 
     96 H96        26.8086  -27.4715  -39.9580 H         1 UNK         0.0595 
     97 H97        26.0415  -29.9433  -38.3121 H         1 UNK         0.0839 
     98 H98        26.9005  -28.5261  -37.7301 H         1 UNK         0.0839 
     99 H99        27.6660  -29.5875  -38.8983 H         1 UNK         0.0839 
    100 H100       24.1496  -27.7418  -41.2969 H         1 UNK         0.2998 
    101 H101       22.0855  -27.0629  -41.2587 H         1 UNK         0.0822 
    102 H102       21.3047  -25.2946  -39.7881 H         1 UNK         0.0787 
    103 H103       22.9727  -24.9541  -40.2021 H         1 UNK         0.0787 
    104 H104       22.5728  -25.6098  -38.6126 H         1 UNK         0.0787 
    105 H105       23.0331  -29.5384  -39.6156 H         1 UNK         0.3055 
    106 H106       20.5502  -29.9942  -37.9985 H         1 UNK         0.1106 
    107 H107       22.6350  -29.8152  -36.6509 H         1 UNK         0.0828 
    108 H108       22.0087  -31.4565  -36.6112 H         1 UNK         0.0828 
    109 H109       23.3958  -31.0732  -37.6233 H         1 UNK         0.0828 
    110 H110       22.7730  -31.3996  -40.3785 H         1 UNK         0.2931 
    111 H111       22.8617  -33.1941  -41.5423 H         1 UNK         0.0412 
    112 H112       21.2872  -36.4433  -40.2244 H         1 UNK         0.3472 
    113 H113       20.7018  -35.5119  -41.5789 H         1 UNK         0.3472 
    114 H114       21.0738  -32.2114  -42.8526 H         1 UNK         0.0970 
    115 H115       21.0462  -33.9310  -42.9444 H         1 UNK         0.0970 
    116 H116       18.9089  -34.0096  -44.0358 H         1 UNK         0.0612 
    117 H117       17.3638  -33.8927  -43.2408 H         1 UNK         0.0612 
@<TRIPOS>BOND
     1    1    2 1    
     2    1   62 1    
     3    1   63 1    
     4    1   64 1    
     5    2    3 2    
     6    2    4 am   BACKBONE|DICT|INTERRES
     7    4    5 1    
     8    4   65 1    
     9    5    6 1    
    10    5   25 1    
    11    5   66 1    
    12    6    7 1    
    13    6   67 1    
    14    6   68 1    
    15    7    8 1    
    16    8    9 1    
    17    8   69 1    
    18    8   70 1    
    19    9   10 ar   
    20    9   14 ar   
    21   10   11 ar   
    22   10   71 1    
    23   11   12 ar   
    24   11   61 1    
    25   12   13 ar   
    26   12   72 1    
    27   13   14 ar   
    28   13   15 1    
    29   14   73 1    
    30   15   16 1    
    31   15   74 1    
    32   15   75 1    
    33   16   17 1    
    34   17   18 1    
    35   17   76 1    
    36   17   77 1    
    37   18   19 1    
    38   18   27 1    
    39   18   78 1    
    40   19   20 am   BACKBONE|DICT|INTERRES
    41   19   79 1    
    42   20   21 2    
    43   20   22 1    
    44   22   23 1    
    45   22   24 1    
    46   22   80 1    
    47   23   81 1    
    48   23   82 1    
    49   23   83 1    
    50   24   25 am   BACKBONE|DICT|INTERRES
    51   24   84 1    
    52   25   26 2    
    53   27   28 2    
    54   27   29 am   BACKBONE|DICT|INTERRES
    55   29   30 1    
    56   29   85 1    
    57   30   31 1    
    58   30   32 1    
    59   30   86 1    
    60   31   87 1    
    61   31   88 1    
    62   31   89 1    
    63   32   33 2    
    64   32   34 am   BACKBONE|DICT|INTERRES
    65   34   35 1    
    66   34   90 1    
    67   35   36 1    
    68   35   37 1    
    69   35   91 1    
    70   36   92 1    
    71   36   93 1    
    72   36   94 1    
    73   37   38 2    
    74   37   39 am   BACKBONE|DICT|INTERRES
    75   39   40 1    
    76   39   95 1    
    77   40   41 1    
    78   40   42 1    
    79   40   96 1    
    80   41   97 1    
    81   41   98 1    
    82   41   99 1    
    83   42   43 2    
    84   42   44 am   BACKBONE|DICT|INTERRES
    85   44   45 1    
    86   44  100 1    
    87   45   46 1    
    88   45   47 1    
    89   45  101 1    
    90   46  102 1    
    91   46  103 1    
    92   46  104 1    
    93   47   48 2    
    94   47   49 am   BACKBONE|DICT|INTERRES
    95   49   50 1    
    96   49  105 1    
    97   50   51 1    
    98   50   52 1    
    99   50  106 1    
   100   51  107 1    
   101   51  108 1    
   102   51  109 1    
   103   52   53 2    
   104   52   54 am   BACKBONE|DICT|INTERRES
   105   54   55 1    
   106   54  110 1    
   107   55   56 1    
   108   55   59 1    
   109   55  111 1    
   110   56   57 am   BACKBONE|DICT|INTERRES
   111   56   58 2    
   112   57  112 1    
   113   57  113 1    
   114   59   60 1    
   115   59  114 1    
   116   59  115 1    
   117   60   61 1    
   118   61  116 1    
   119   61  117 1    
@<TRIPOS>SUBSTRUCTURE
     1 UNK         1 GROUP             0       ****    0 ROOT    
