@<TRIPOS>MOLECULE
3R8
117   119    1
SMALL
USER_CHARGES


@<TRIPOS>ATOM
      1 CA         17.8522  -24.3854  -40.4438 C.3       0 UNK        -0.2013 
      2 C          17.0097  -24.3469  -41.7103 C.2       0 UNK         0.4866 
      3 O          15.9282  -23.7575  -41.7126 O.2       0 UNK        -0.5176 
      4 N          17.4981  -24.9752  -42.7811 N.am      1 UNK        -0.4884 
      5 CA         16.8448  -25.0805  -44.0875 C.3       1 UNK         0.0853 
      6 C6         16.0116  -26.3917  -44.2243 C.3       10 UNK        -0.0849 
      7 S7         16.9367  -27.8980  -43.7543 S.3       10 UNK        -0.2776 
      8 C8         16.7396  -29.0004  -45.1871 C.3       10 UNK         0.0316 
      9 C9         17.6775  -30.1844  -45.0257 C.ar      10 UNK        -0.0863 
     10 C10        17.3145  -31.2557  -44.2063 C.ar      10 UNK        -0.1009 
     11 C11        18.2057  -32.3028  -43.9574 C.ar      10 UNK        -0.0712 
     12 C12        19.4771  -32.2635  -44.5471 C.ar      10 UNK        -0.0894 
     13 C13        19.8576  -31.1957  -45.3684 C.ar      10 UNK        -0.0745 
     14 C14        18.9384  -30.1736  -45.6266 C.ar      10 UNK        -0.0972 
     15 C15        21.2744  -31.1626  -45.9423 C.3       10 UNK         0.0209 
     16 S16        22.0545  -29.5088  -46.0511 S.3       10 UNK        -0.2568 
     17 C17        21.7707  -28.7504  -44.4091 C.3       10 UNK        -0.0983 
     18 CA         21.5157  -27.2225  -44.5127 C.3       3 UNK         0.0876 
     19 N          20.3843  -26.8992  -45.3779 N.am      3 UNK        -0.4424 
     20 C          20.4401  -26.2144  -46.5263 C.2       2 UNK         0.4918 
     21 O          21.4869  -25.8891  -47.0871 O.2       2 UNK        -0.4875 
     22 CA         19.0926  -25.7926  -47.1481 C.3       2 UNK         0.0481 
     23 CB         18.7052  -26.7405  -48.2946 C.3       2 UNK        -0.1831 
     24 N          18.0014  -25.7374  -46.1683 N.am      2 UNK        -0.4498 
     25 C          17.9277  -24.8559  -45.1603 C.2       1 UNK         0.5027 
     26 O          18.7007  -23.9016  -45.0435 O.2       1 UNK        -0.4969 
     27 C          21.1906  -26.6089  -43.1381 C.2       3 UNK         0.5005 
     28 O          20.0122  -26.4768  -42.7884 O.2       3 UNK        -0.5279 
     29 N          22.2243  -26.2340  -42.3808 N.am      4 UNK        -0.4463 
     30 CA         22.1201  -25.6278  -41.0562 C.3       4 UNK         0.0283 
     31 CB         21.6827  -24.1540  -41.1649 C.3       4 UNK        -0.1875 
     32 C          23.4882  -25.7372  -40.3808 C.2       4 UNK         0.4949 
     33 O          24.5059  -25.7030  -41.0764 O.2       4 UNK        -0.5039 
     34 N          23.4886  -25.8790  -39.0480 N.am      5 UNK        -0.4663 
     35 CA         24.6365  -26.0447  -38.1358 C.3       5 UNK         0.0242 
     36 CB         25.5883  -24.8336  -38.1994 C.3       5 UNK        -0.1982 
     37 C          25.4143  -27.3672  -38.2977 C.2       5 UNK         0.5017 
     38 O          25.8314  -27.9443  -37.2929 O.2       5 UNK        -0.5012 
     39 N          25.5755  -27.8330  -39.5374 N.am      6 UNK        -0.4439 
     40 CA         26.1569  -29.1096  -39.9308 C.3       6 UNK         0.0297 
     41 CB         27.6442  -28.9099  -40.2701 C.3       6 UNK        -0.2006 
     42 C          25.3770  -29.6431  -41.1397 C.2       6 UNK         0.4892 
     43 O          24.6414  -28.8870  -41.7792 O.2       6 UNK        -0.5089 
     44 N          25.5429  -30.9434  -41.4172 N.am      7 UNK        -0.4243 
     45 CA         24.9706  -31.7199  -42.5308 C.3       7 UNK         0.0196 
     46 CB         25.4060  -31.1419  -43.8936 C.3       7 UNK        -0.2007 
     47 C          23.4440  -31.9323  -42.4924 C.2       7 UNK         0.5020 
     48 O          22.9516  -32.7772  -43.2396 O.2       7 UNK        -0.5147 
     49 N          22.7180  -31.2107  -41.6282 N.am      8 UNK        -0.4734 
     50 CA         21.2562  -31.2075  -41.4896 C.3       8 UNK         0.0238 
     51 CB         20.8375  -29.9294  -40.7381 C.3       8 UNK        -0.1912 
     52 C          20.6721  -32.4914  -40.8573 C.2       8 UNK         0.5038 
     53 O          19.8859  -32.4096  -39.9122 O.2       8 UNK        -0.5046 
     54 N          21.0665  -33.6509  -41.3961 N.am      9 UNK        -0.4200 
     55 CA         20.6321  -35.0095  -41.0269 C.3       9 UNK         0.0839 
     56 C          21.0392  -35.4630  -39.5913 C.2       9 UNK         0.5513 
     57 N          21.9978  -34.8147  -38.9405 N.am      9 UNK        -0.7519 
     58 O          20.5049  -36.4381  -39.0686 O.2       9 UNK        -0.4960 
     59 C59        19.1313  -35.2765  -41.3421 C.3       10 UNK        -0.0876 
     60 S60        18.7078  -34.9671  -43.0947 S.3       10 UNK        -0.2414 
     61 C61        17.7712  -33.4014  -42.9856 C.3       10 UNK         0.0169 
     62 H62        18.2655  -23.3989  -40.2365 H         1 UNK         0.0903 
     63 H63        17.2407  -24.6864  -39.5937 H         1 UNK         0.0903 
     64 H64        18.6779  -25.0922  -40.5302 H         1 UNK         0.0903 
     65 H65        18.4019  -25.4439  -42.7260 H         1 UNK         0.3096 
     66 H66        16.1577  -24.2402  -44.2105 H         1 UNK         0.1121 
     67 H67        15.1520  -26.3279  -43.5552 H         1 UNK         0.0849 
     68 H68        15.5822  -26.4934  -45.2224 H         1 UNK         0.0849 
     69 H69        15.7046  -29.3404  -45.2510 H         1 UNK         0.0865 
     70 H70        16.9531  -28.4696  -46.1147 H         1 UNK         0.0865 
     71 H71        16.3452  -31.2515  -43.7261 H         1 UNK         0.1346 
     72 H72        20.1946  -33.0458  -44.3431 H         1 UNK         0.1412 
     73 H73        19.2271  -29.3429  -46.2536 H         1 UNK         0.1426 
     74 H74        21.9335  -31.8002  -45.3554 H         1 UNK         0.0716 
     75 H75        21.2492  -31.5960  -46.9427 H         1 UNK         0.0716 
     76 H76        22.6460  -28.9501  -43.7885 H         1 UNK         0.0695 
     77 H77        20.9316  -29.2370  -43.9127 H         1 UNK         0.0695 
     78 H78        22.4210  -26.7409  -44.8889 H         1 UNK         0.0983 
     79 H79        19.4842  -27.0464  -44.9419 H         1 UNK         0.3095 
     80 H80        19.2222  -24.7919  -47.5657 H         1 UNK         0.0454 
     81 H81        18.5584  -27.7634  -47.9486 H         1 UNK         0.0851 
     82 H82        17.7883  -26.4159  -48.7867 H         1 UNK         0.0851 
     83 H83        19.4859  -26.7667  -49.0561 H         1 UNK         0.0851 
     84 H84        17.3200  -26.4799  -46.2038 H         1 UNK         0.2976 
     85 H85        23.1779  -26.4003  -42.6833 H         1 UNK         0.3116 
     86 H86        21.3881  -26.1872  -40.4693 H         1 UNK         0.0646 
     87 H87        20.7127  -24.0542  -41.6516 H         1 UNK         0.0847 
     88 H88        22.4014  -23.5644  -41.7355 H         1 UNK         0.0847 
     89 H89        21.5965  -23.6978  -40.1780 H         1 UNK         0.0847 
     90 H90        22.5872  -25.9143  -38.5903 H         1 UNK         0.3040 
     91 H91        24.2095  -26.0669  -37.1314 H         1 UNK         0.1015 
     92 H92        26.3684  -24.9137  -37.4411 H         1 UNK         0.0786 
     93 H93        25.0555  -23.9002  -38.0182 H         1 UNK         0.0786 
     94 H94        26.0869  -24.7538  -39.1658 H         1 UNK         0.0786 
     95 H95        25.1804  -27.2900  -40.3040 H         1 UNK         0.3172 
     96 H96        26.0578  -29.8281  -39.1143 H         1 UNK         0.0595 
     97 H97        27.7769  -28.2089  -41.0954 H         1 UNK         0.0839 
     98 H98        28.1143  -29.8501  -40.5607 H         1 UNK         0.0839 
     99 H99        28.1969  -28.5245  -39.4130 H         1 UNK         0.0839 
    100 H100       26.1458  -31.4736  -40.8023 H         1 UNK         0.2998 
    101 H101       25.4080  -32.7160  -42.4462 H         1 UNK         0.0822 
    102 H102       26.4895  -31.0415  -43.9557 H         1 UNK         0.0787 
    103 H103       25.0939  -31.7932  -44.7112 H         1 UNK         0.0787 
    104 H104       24.9656  -30.1621  -44.0814 H         1 UNK         0.0787 
    105 H105       23.2184  -30.5230  -41.0826 H         1 UNK         0.3055 
    106 H106       20.8330  -31.1438  -42.4917 H         1 UNK         0.1106 
    107 H107       21.2172  -29.0343  -41.2305 H         1 UNK         0.0828 
    108 H108       19.7511  -29.8359  -40.7009 H         1 UNK         0.0828 
    109 H109       21.2028  -29.9278  -39.7106 H         1 UNK         0.0828 
    110 H110       21.7391  -33.5928  -42.1574 H         1 UNK         0.2931 
    111 H111       21.2078  -35.6650  -41.6812 H         1 UNK         0.0412 
    112 H112       22.2631  -35.1206  -38.0173 H         1 UNK         0.3472 
    113 H113       22.4471  -34.0161  -39.3583 H         1 UNK         0.3472 
    114 H114       18.4887  -34.6960  -40.6789 H         1 UNK         0.0970 
    115 H115       18.8873  -36.3212  -41.1416 H         1 UNK         0.0970 
    116 H116       17.8392  -32.9901  -41.9785 H         1 UNK         0.0612 
    117 H117       16.7181  -33.6361  -43.1479 H         1 UNK         0.0612 
@<TRIPOS>BOND
     1    1    2 1    
     2    1   62 1    
     3    1   63 1    
     4    1   64 1    
     5    2    3 2    
     6    2    4 am   BACKBONE|DICT|INTERRES
     7    4    5 1    
     8    4   65 1    
     9    5    6 1    
    10    5   25 1    
    11    5   66 1    
    12    6    7 1    
    13    6   67 1    
    14    6   68 1    
    15    7    8 1    
    16    8    9 1    
    17    8   69 1    
    18    8   70 1    
    19    9   10 ar   
    20    9   14 ar   
    21   10   11 ar   
    22   10   71 1    
    23   11   12 ar   
    24   11   61 1    
    25   12   13 ar   
    26   12   72 1    
    27   13   14 ar   
    28   13   15 1    
    29   14   73 1    
    30   15   16 1    
    31   15   74 1    
    32   15   75 1    
    33   16   17 1    
    34   17   18 1    
    35   17   76 1    
    36   17   77 1    
    37   18   19 1    
    38   18   27 1    
    39   18   78 1    
    40   19   20 am   BACKBONE|DICT|INTERRES
    41   19   79 1    
    42   20   21 2    
    43   20   22 1    
    44   22   23 1    
    45   22   24 1    
    46   22   80 1    
    47   23   81 1    
    48   23   82 1    
    49   23   83 1    
    50   24   25 am   BACKBONE|DICT|INTERRES
    51   24   84 1    
    52   25   26 2    
    53   27   28 2    
    54   27   29 am   BACKBONE|DICT|INTERRES
    55   29   30 1    
    56   29   85 1    
    57   30   31 1    
    58   30   32 1    
    59   30   86 1    
    60   31   87 1    
    61   31   88 1    
    62   31   89 1    
    63   32   33 2    
    64   32   34 am   BACKBONE|DICT|INTERRES
    65   34   35 1    
    66   34   90 1    
    67   35   36 1    
    68   35   37 1    
    69   35   91 1    
    70   36   92 1    
    71   36   93 1    
    72   36   94 1    
    73   37   38 2    
    74   37   39 am   BACKBONE|DICT|INTERRES
    75   39   40 1    
    76   39   95 1    
    77   40   41 1    
    78   40   42 1    
    79   40   96 1    
    80   41   97 1    
    81   41   98 1    
    82   41   99 1    
    83   42   43 2    
    84   42   44 am   BACKBONE|DICT|INTERRES
    85   44   45 1    
    86   44  100 1    
    87   45   46 1    
    88   45   47 1    
    89   45  101 1    
    90   46  102 1    
    91   46  103 1    
    92   46  104 1    
    93   47   48 2    
    94   47   49 am   BACKBONE|DICT|INTERRES
    95   49   50 1    
    96   49  105 1    
    97   50   51 1    
    98   50   52 1    
    99   50  106 1    
   100   51  107 1    
   101   51  108 1    
   102   51  109 1    
   103   52   53 2    
   104   52   54 am   BACKBONE|DICT|INTERRES
   105   54   55 1    
   106   54  110 1    
   107   55   56 1    
   108   55   59 1    
   109   55  111 1    
   110   56   57 am   BACKBONE|DICT|INTERRES
   111   56   58 2    
   112   57  112 1    
   113   57  113 1    
   114   59   60 1    
   115   59  114 1    
   116   59  115 1    
   117   60   61 1    
   118   61  116 1    
   119   61  117 1    
@<TRIPOS>SUBSTRUCTURE
     1 UNK         1 GROUP             0       ****    0 ROOT    
