@<TRIPOS>MOLECULE
3R8
117   119    1
SMALL
USER_CHARGES


@<TRIPOS>ATOM
      1 CA         16.2366  -22.8459  -44.4233 C.3       0 UNK        -0.2013 
      2 C          17.1120  -23.6765  -45.3489 C.2       0 UNK         0.4866 
      3 O          18.1698  -23.2130  -45.7758 O.2       0 UNK        -0.5176 
      4 N          16.6929  -24.9110  -45.6515 N.am      1 UNK        -0.4884 
      5 CA         17.3607  -25.8798  -46.5341 C.3       1 UNK         0.0853 
      6 C6         16.3476  -26.8894  -47.1493 C.3       10 UNK        -0.0849 
      7 S7         15.0996  -27.5445  -45.9794 S.3       10 UNK        -0.2776 
      8 C8         15.2991  -29.3518  -46.1227 C.3       10 UNK         0.0316 
      9 C9         16.2300  -29.9176  -45.0590 C.ar      10 UNK        -0.0863 
     10 C10        17.4124  -30.5708  -45.4166 C.ar      10 UNK        -0.1009 
     11 C11        18.2501  -31.1151  -44.4372 C.ar      10 UNK        -0.0712 
     12 C12        17.8960  -31.0058  -43.0877 C.ar      10 UNK        -0.0894 
     13 C13        16.7121  -30.3568  -42.7185 C.ar      10 UNK        -0.0745 
     14 C14        15.8844  -29.8210  -43.7090 C.ar      10 UNK        -0.0972 
     15 C15        16.2973  -30.2453  -41.2565 C.3       10 UNK         0.0209 
     16 S16        17.4759  -29.3103  -40.2282 S.3       10 UNK        -0.2568 
     17 C17        17.7190  -27.7482  -41.1481 C.3       10 UNK        -0.0983 
     18 CA         19.2256  -27.5110  -41.4331 C.3       3 UNK         0.0876 
     19 N          19.4633  -26.8792  -42.7411 N.am      3 UNK        -0.4424 
     20 C          20.6572  -26.8370  -43.3539 C.2       2 UNK         0.4918 
     21 O          21.6774  -27.3186  -42.8601 O.2       2 UNK        -0.4875 
     22 CA         20.7682  -26.0557  -44.6779 C.3       2 UNK         0.0481 
     23 CB         21.7297  -26.7360  -45.6754 C.3       2 UNK        -0.1831 
     24 N          19.4862  -25.7154  -45.3096 N.am      2 UNK        -0.4498 
     25 C          18.6011  -26.5418  -45.8854 C.2       1 UNK         0.5027 
     26 O          18.7461  -27.7606  -45.9277 O.2       1 UNK        -0.4969 
     27 C          19.9273  -26.7802  -40.2604 C.2       3 UNK         0.5005 
     28 O          20.0772  -27.3570  -39.1835 O.2       3 UNK        -0.5279 
     29 N          20.4081  -25.5484  -40.4937 N.am      4 UNK        -0.4463 
     30 CA         21.3234  -24.8231  -39.6052 C.3       4 UNK         0.0283 
     31 CB         21.5330  -23.4006  -40.1484 C.3       4 UNK        -0.1875 
     32 C          22.6819  -25.5318  -39.4155 C.2       4 UNK         0.4949 
     33 O          23.3445  -25.2961  -38.4053 O.2       4 UNK        -0.5039 
     34 N          23.0571  -26.3977  -40.3667 N.am      5 UNK        -0.4663 
     35 CA         24.2184  -27.2788  -40.3127 C.3       5 UNK         0.0242 
     36 CB         25.2398  -26.8304  -41.3751 C.3       5 UNK        -0.1982 
     37 C          23.7460  -28.7271  -40.5171 C.2       5 UNK         0.5017 
     38 O          24.2697  -29.4271  -41.3846 O.2       5 UNK        -0.5012 
     39 N          22.7564  -29.1595  -39.7185 N.am      6 UNK        -0.4439 
     40 CA         22.1160  -30.4827  -39.7824 C.3       6 UNK         0.0297 
     41 CB         21.0723  -30.6152  -38.6621 C.3       6 UNK        -0.2006 
     42 C          23.0830  -31.6802  -39.7365 C.2       6 UNK         0.4892 
     43 O          22.8170  -32.6895  -40.3882 O.2       6 UNK        -0.5089 
     44 N          24.1964  -31.5354  -39.0037 N.am      7 UNK        -0.4243 
     45 CA         25.2771  -32.5222  -38.9217 C.3       7 UNK         0.0196 
     46 CB         26.2537  -32.1108  -37.8081 C.3       7 UNK        -0.2007 
     47 C          26.0307  -32.7253  -40.2501 C.2       7 UNK         0.5020 
     48 O          26.5357  -33.8225  -40.4884 O.2       7 UNK        -0.5147 
     49 N          26.0922  -31.6807  -41.0874 N.am      8 UNK        -0.4734 
     50 CA         26.6475  -31.7395  -42.4405 C.3       8 UNK         0.0238 
     51 CB         27.2864  -30.3864  -42.7958 C.3       8 UNK        -0.1912 
     52 C          25.5678  -32.1160  -43.4666 C.2       8 UNK         0.5038 
     53 O          25.8681  -32.8528  -44.4068 O.2       8 UNK        -0.5046 
     54 N          24.3425  -31.6067  -43.2705 N.am      9 UNK        -0.4200 
     55 CA         23.1655  -31.8976  -44.1012 C.3       9 UNK         0.0839 
     56 C          22.7394  -33.3929  -44.0757 C.2       9 UNK         0.5513 
     57 N          22.7062  -34.0347  -42.9147 N.am      9 UNK        -0.7519 
     58 O          22.4474  -33.9762  -45.1163 O.2       9 UNK        -0.4960 
     59 C59        21.9794  -30.9547  -43.7589 C.3       10 UNK        -0.0876 
     60 S60        20.8825  -30.6832  -45.1897 S.3       10 UNK        -0.2414 
     61 C61        19.5193  -31.8428  -44.8535 C.3       10 UNK         0.0169 
     62 H62        15.3403  -23.3852  -44.1170 H         1 UNK         0.0903 
     63 H63        16.7918  -22.5728  -43.5263 H         1 UNK         0.0903 
     64 H64        15.9262  -21.9294  -44.9244 H         1 UNK         0.0903 
     65 H65        15.8270  -25.2511  -45.2542 H         1 UNK         0.3096 
     66 H66        17.7701  -25.3157  -47.3757 H         1 UNK         0.1121 
     67 H67        15.7889  -26.3795  -47.9357 H         1 UNK         0.0849 
     68 H68        16.8602  -27.7059  -47.6609 H         1 UNK         0.0849 
     69 H69        14.3193  -29.8164  -46.0037 H         1 UNK         0.0865 
     70 H70        15.6341  -29.6174  -47.1263 H         1 UNK         0.0865 
     71 H71        17.6891  -30.6510  -46.4589 H         1 UNK         0.1346 
     72 H72        18.5371  -31.4256  -42.3247 H         1 UNK         0.1412 
     73 H73        14.9646  -29.3233  -43.4329 H         1 UNK         0.1426 
     74 H74        16.1908  -31.2485  -40.8419 H         1 UNK         0.0716 
     75 H75        15.3169  -29.7745  -41.1668 H         1 UNK         0.0716 
     76 H76        17.2763  -26.9250  -40.5838 H         1 UNK         0.0695 
     77 H77        17.1564  -27.7932  -42.0806 H         1 UNK         0.0695 
     78 H78        19.7128  -28.4874  -41.5007 H         1 UNK         0.0983 
     79 H79        18.6682  -26.4646  -43.2037 H         1 UNK         0.3095 
     80 H80        21.2158  -25.0981  -44.4088 H         1 UNK         0.0454 
     81 H81        22.7280  -26.8415  -45.2489 H         1 UNK         0.0851 
     82 H82        21.3914  -27.7358  -45.9477 H         1 UNK         0.0851 
     83 H83        21.8309  -26.1540  -46.5910 H         1 UNK         0.0851 
     84 H84        19.2583  -24.7241  -45.3463 H         1 UNK         0.2976 
     85 H85        20.2257  -25.1326  -41.3950 H         1 UNK         0.3116 
     86 H86        20.8504  -24.7516  -38.6236 H         1 UNK         0.0646 
     87 H87        22.1865  -22.8253  -39.4909 H         1 UNK         0.0847 
     88 H88        20.5903  -22.8576  -40.2188 H         1 UNK         0.0847 
     89 H89        21.9933  -23.4084  -41.1373 H         1 UNK         0.0847 
     90 H90        22.4428  -26.5550  -41.1607 H         1 UNK         0.3040 
     91 H91        24.6964  -27.2341  -39.3317 H         1 UNK         0.1015 
     92 H92        25.5555  -25.8002  -41.2101 H         1 UNK         0.0786 
     93 H93        24.8264  -26.8974  -42.3826 H         1 UNK         0.0786 
     94 H94        26.1352  -27.4524  -41.3450 H         1 UNK         0.0786 
     95 H95        22.3526  -28.5002  -39.0660 H         1 UNK         0.3172 
     96 H96        21.5879  -30.5297  -40.7351 H         1 UNK         0.0595 
     97 H97        20.2636  -29.8958  -38.7806 H         1 UNK         0.0839 
     98 H98        21.5141  -30.4676  -37.6760 H         1 UNK         0.0839 
     99 H99        20.6134  -31.6052  -38.6689 H         1 UNK         0.0839 
    100 H100       24.3258  -30.6715  -38.4978 H         1 UNK         0.2998 
    101 H101       24.8316  -33.4818  -38.6501 H         1 UNK         0.0822 
    102 H102       25.7513  -32.0451  -36.8428 H         1 UNK         0.0787 
    103 H103       27.0565  -32.8423  -37.7040 H         1 UNK         0.0787 
    104 H104       26.7177  -31.1452  -38.0137 H         1 UNK         0.0787 
    105 H105       25.6006  -30.8279  -40.8433 H         1 UNK         0.3055 
    106 H106       27.4286  -32.5023  -42.4835 H         1 UNK         0.1106 
    107 H107       26.5541  -29.5785  -42.8051 H         1 UNK         0.0828 
    108 H108       28.0704  -30.1199  -42.0869 H         1 UNK         0.0828 
    109 H109       27.7430  -30.4212  -43.7858 H         1 UNK         0.0828 
    110 H110       24.2080  -30.9604  -42.4994 H         1 UNK         0.2931 
    111 H111       23.4780  -31.6760  -45.1240 H         1 UNK         0.0412 
    112 H112       22.8897  -33.5458  -42.0415 H         1 UNK         0.3472 
    113 H113       22.4398  -35.0059  -42.8958 H         1 UNK         0.3472 
    114 H114       22.3536  -29.9710  -43.4692 H         1 UNK         0.0970 
    115 H115       21.4096  -31.3160  -42.9020 H         1 UNK         0.0970 
    116 H116       19.8088  -32.5721  -44.0959 H         1 UNK         0.0612 
    117 H117       19.3261  -32.4180  -45.7601 H         1 UNK         0.0612 
@<TRIPOS>BOND
     1    1    2 1    
     2    1   62 1    
     3    1   63 1    
     4    1   64 1    
     5    2    3 2    
     6    2    4 am   BACKBONE|DICT|INTERRES
     7    4    5 1    
     8    4   65 1    
     9    5    6 1    
    10    5   25 1    
    11    5   66 1    
    12    6    7 1    
    13    6   67 1    
    14    6   68 1    
    15    7    8 1    
    16    8    9 1    
    17    8   69 1    
    18    8   70 1    
    19    9   10 ar   
    20    9   14 ar   
    21   10   11 ar   
    22   10   71 1    
    23   11   12 ar   
    24   11   61 1    
    25   12   13 ar   
    26   12   72 1    
    27   13   14 ar   
    28   13   15 1    
    29   14   73 1    
    30   15   16 1    
    31   15   74 1    
    32   15   75 1    
    33   16   17 1    
    34   17   18 1    
    35   17   76 1    
    36   17   77 1    
    37   18   19 1    
    38   18   27 1    
    39   18   78 1    
    40   19   20 am   BACKBONE|DICT|INTERRES
    41   19   79 1    
    42   20   21 2    
    43   20   22 1    
    44   22   23 1    
    45   22   24 1    
    46   22   80 1    
    47   23   81 1    
    48   23   82 1    
    49   23   83 1    
    50   24   25 am   BACKBONE|DICT|INTERRES
    51   24   84 1    
    52   25   26 2    
    53   27   28 2    
    54   27   29 am   BACKBONE|DICT|INTERRES
    55   29   30 1    
    56   29   85 1    
    57   30   31 1    
    58   30   32 1    
    59   30   86 1    
    60   31   87 1    
    61   31   88 1    
    62   31   89 1    
    63   32   33 2    
    64   32   34 am   BACKBONE|DICT|INTERRES
    65   34   35 1    
    66   34   90 1    
    67   35   36 1    
    68   35   37 1    
    69   35   91 1    
    70   36   92 1    
    71   36   93 1    
    72   36   94 1    
    73   37   38 2    
    74   37   39 am   BACKBONE|DICT|INTERRES
    75   39   40 1    
    76   39   95 1    
    77   40   41 1    
    78   40   42 1    
    79   40   96 1    
    80   41   97 1    
    81   41   98 1    
    82   41   99 1    
    83   42   43 2    
    84   42   44 am   BACKBONE|DICT|INTERRES
    85   44   45 1    
    86   44  100 1    
    87   45   46 1    
    88   45   47 1    
    89   45  101 1    
    90   46  102 1    
    91   46  103 1    
    92   46  104 1    
    93   47   48 2    
    94   47   49 am   BACKBONE|DICT|INTERRES
    95   49   50 1    
    96   49  105 1    
    97   50   51 1    
    98   50   52 1    
    99   50  106 1    
   100   51  107 1    
   101   51  108 1    
   102   51  109 1    
   103   52   53 2    
   104   52   54 am   BACKBONE|DICT|INTERRES
   105   54   55 1    
   106   54  110 1    
   107   55   56 1    
   108   55   59 1    
   109   55  111 1    
   110   56   57 am   BACKBONE|DICT|INTERRES
   111   56   58 2    
   112   57  112 1    
   113   57  113 1    
   114   59   60 1    
   115   59  114 1    
   116   59  115 1    
   117   60   61 1    
   118   61  116 1    
   119   61  117 1    
@<TRIPOS>SUBSTRUCTURE
     1 UNK         1 GROUP             0       ****    0 ROOT    
