@<TRIPOS>MOLECULE
3R8
117   119    1
SMALL
USER_CHARGES


@<TRIPOS>ATOM
      1 CA         18.7494  -24.3396  -45.8380 C.3       0 UNK        -0.2013 
      2 C          17.5159  -24.2561  -46.7344 C.2       0 UNK         0.4866 
      3 O          17.4638  -23.3909  -47.6064 O.2       0 UNK        -0.5176 
      4 N          16.5091  -25.1272  -46.5787 N.am      1 UNK        -0.4884 
      5 CA         16.3830  -26.1658  -45.5478 C.3       1 UNK         0.0853 
      6 C6         15.2481  -27.1649  -45.8824 C.3       10 UNK        -0.0849 
      7 S7         15.5135  -28.0320  -47.4622 S.3       10 UNK        -0.2776 
      8 C8         15.8676  -29.7286  -46.8942 C.3       10 UNK         0.0316 
      9 C9         17.2304  -29.8805  -46.2243 C.ar      10 UNK        -0.0863 
     10 C10        17.3494  -30.6051  -45.0328 C.ar      10 UNK        -0.1009 
     11 C11        18.6058  -30.8475  -44.4652 C.ar      10 UNK        -0.0712 
     12 C12        19.7466  -30.3530  -45.1018 C.ar      10 UNK        -0.0894 
     13 C13        19.6413  -29.5910  -46.2681 C.ar      10 UNK        -0.0745 
     14 C14        18.3822  -29.3662  -46.8288 C.ar      10 UNK        -0.0972 
     15 C15        20.8851  -29.0327  -46.9423 C.3       10 UNK         0.0209 
     16 S16        21.2972  -27.3702  -46.3235 S.3       10 UNK        -0.2568 
     17 C17        22.0453  -27.7569  -44.7053 C.3       10 UNK        -0.0983 
     18 CA         21.2884  -27.1388  -43.5004 C.3       3 UNK         0.0876 
     19 N          19.8568  -27.4788  -43.4876 N.am      3 UNK        -0.4424 
     20 C          18.9071  -26.7250  -42.9220 C.2       2 UNK         0.4918 
     21 O          19.1408  -25.6512  -42.3619 O.2       2 UNK        -0.4875 
     22 CA         17.4691  -27.2644  -42.9354 C.3       2 UNK         0.0481 
     23 CB         17.1725  -28.0078  -41.6242 C.3       2 UNK        -0.1831 
     24 N          16.5338  -26.1435  -43.0482 N.am      2 UNK        -0.4498 
     25 C          16.1017  -25.5370  -44.1617 C.2       1 UNK         0.5027 
     26 O          15.4313  -24.5053  -44.1024 O.2       1 UNK        -0.4969 
     27 C          21.9396  -27.5167  -42.1489 C.2       3 UNK         0.5005 
     28 O          22.8708  -28.3249  -42.1101 O.2       3 UNK        -0.5279 
     29 N          21.4018  -26.9563  -41.0569 N.am      4 UNK        -0.4463 
     30 CA         21.7360  -27.2659  -39.6675 C.3       4 UNK         0.0283 
     31 CB         20.8927  -26.3845  -38.7325 C.3       4 UNK        -0.1875 
     32 C          23.2349  -27.1136  -39.3644 C.2       4 UNK         0.4949 
     33 O          23.7820  -26.0216  -39.5223 O.2       4 UNK        -0.5039 
     34 N          23.8552  -28.2302  -38.9637 N.am      5 UNK        -0.4663 
     35 CA         25.2685  -28.4283  -38.6090 C.3       5 UNK         0.0242 
     36 CB         25.7292  -27.4458  -37.5121 C.3       5 UNK        -0.1982 
     37 C          26.2406  -28.4501  -39.8037 C.2       5 UNK         0.5017 
     38 O          27.3922  -28.8457  -39.6162 O.2       5 UNK        -0.5012 
     39 N          25.7783  -28.0736  -41.0031 N.am      6 UNK        -0.4439 
     40 CA         26.4956  -28.2808  -42.2619 C.3       6 UNK         0.0297 
     41 CB         26.0718  -27.2161  -43.2852 C.3       6 UNK        -0.2006 
     42 C          26.2342  -29.7003  -42.7896 C.2       6 UNK         0.4892 
     43 O          27.1712  -30.3704  -43.2254 O.2       6 UNK        -0.5089 
     44 N          24.9721  -30.1353  -42.7012 N.am      7 UNK        -0.4243 
     45 CA         24.5171  -31.5000  -42.9408 C.3       7 UNK         0.0196 
     46 CB         23.2441  -31.4347  -43.7991 C.3       7 UNK        -0.2007 
     47 C          24.2268  -32.1957  -41.6012 C.2       7 UNK         0.5020 
     48 O          24.2774  -31.5690  -40.5382 O.2       7 UNK        -0.5147 
     49 N          23.8830  -33.4881  -41.6838 N.am      8 UNK        -0.4734 
     50 CA         23.5610  -34.3642  -40.5492 C.3       8 UNK         0.0238 
     51 CB         23.3420  -35.7952  -41.0678 C.3       8 UNK        -0.1912 
     52 C          22.3597  -33.9139  -39.6948 C.2       8 UNK         0.5038 
     53 O          22.2606  -34.3377  -38.5425 O.2       8 UNK        -0.5046 
     54 N          21.4878  -33.0627  -40.2530 N.am      9 UNK        -0.4200 
     55 CA         20.4067  -32.3784  -39.5293 C.3       9 UNK         0.0839 
     56 C          20.8718  -31.2447  -38.5662 C.2       9 UNK         0.5513 
     57 N          22.1508  -30.8876  -38.5063 N.am      9 UNK        -0.7519 
     58 O          20.0585  -30.7045  -37.8216 O.2       9 UNK        -0.4960 
     59 C59        19.2467  -31.9483  -40.4659 C.3       10 UNK        -0.0876 
     60 S60        19.7370  -30.9213  -41.8972 S.3       10 UNK        -0.2414 
     61 C61        18.7263  -31.6975  -43.2045 C.3       10 UNK         0.0169 
     62 H62        19.5436  -23.7015  -46.2251 H         1 UNK         0.0903 
     63 H63        18.5201  -24.0042  -44.8270 H         1 UNK         0.0903 
     64 H64        19.1438  -25.3531  -45.7945 H         1 UNK         0.0903 
     65 H65        15.7102  -25.0452  -47.1909 H         1 UNK         0.3096 
     66 H66        17.3247  -26.7131  -45.5343 H         1 UNK         0.1121 
     67 H67        15.1397  -27.9045  -45.0862 H         1 UNK         0.0849 
     68 H68        14.2873  -26.6491  -45.9412 H         1 UNK         0.0849 
     69 H69        15.0653  -30.0583  -46.2319 H         1 UNK         0.0865 
     70 H70        15.8377  -30.3939  -47.7581 H         1 UNK         0.0865 
     71 H71        16.4641  -31.0142  -44.5649 H         1 UNK         0.1346 
     72 H72        20.7180  -30.5684  -44.6864 H         1 UNK         0.1412 
     73 H73        18.3008  -28.8051  -47.7500 H         1 UNK         0.1426 
     74 H74        20.7250  -28.9729  -48.0199 H         1 UNK         0.0716 
     75 H75        21.7339  -29.7040  -46.8019 H         1 UNK         0.0716 
     76 H76        23.0675  -27.3790  -44.7334 H         1 UNK         0.0695 
     77 H77        22.1377  -28.8352  -44.5930 H         1 UNK         0.0695 
     78 H78        21.3831  -26.0546  -43.5963 H         1 UNK         0.0983 
     79 H79        19.6097  -28.3656  -43.9060 H         1 UNK         0.3095 
     80 H80        17.3409  -27.9712  -43.7552 H         1 UNK         0.0454 
     81 H81        17.2944  -27.3627  -40.7529 H         1 UNK         0.0851 
     82 H82        17.8420  -28.8555  -41.4917 H         1 UNK         0.0851 
     83 H83        16.1551  -28.3990  -41.6119 H         1 UNK         0.0851 
     84 H84        16.3256  -25.6853  -42.1728 H         1 UNK         0.2976 
     85 H85        20.6433  -26.2991  -41.2062 H         1 UNK         0.3116 
     86 H86        21.4432  -28.3039  -39.4996 H         1 UNK         0.0646 
     87 H87        19.8259  -26.5482  -38.8860 H         1 UNK         0.0847 
     88 H88        21.0964  -25.3239  -38.8858 H         1 UNK         0.0847 
     89 H89        21.1066  -26.6100  -37.6868 H         1 UNK         0.0847 
     90 H90        23.3081  -29.0814  -38.9838 H         1 UNK         0.3040 
     91 H91        25.3172  -29.4323  -38.1834 H         1 UNK         0.1015 
     92 H92        25.7856  -26.4205  -37.8783 H         1 UNK         0.0786 
     93 H93        26.7227  -27.7098  -37.1475 H         1 UNK         0.0786 
     94 H94        25.0560  -27.4617  -36.6550 H         1 UNK         0.0786 
     95 H95        24.8082  -27.7905  -41.0691 H         1 UNK         0.3172 
     96 H96        27.5693  -28.1732  -42.0933 H         1 UNK         0.0595 
     97 H97        25.0006  -27.2430  -43.4777 H         1 UNK         0.0839 
     98 H98        26.5800  -27.3669  -44.2386 H         1 UNK         0.0839 
     99 H99        26.3228  -26.2136  -42.9383 H         1 UNK         0.0839 
    100 H100       24.2659  -29.5061  -42.3239 H         1 UNK         0.2998 
    101 H101       25.2813  -32.0722  -43.4709 H         1 UNK         0.0822 
    102 H102       23.4282  -30.9116  -44.7376 H         1 UNK         0.0787 
    103 H103       22.8736  -32.4281  -44.0536 H         1 UNK         0.0787 
    104 H104       22.4480  -30.9106  -43.2702 H         1 UNK         0.0787 
    105 H105       23.8580  -33.9184  -42.5976 H         1 UNK         0.3055 
    106 H106       24.4296  -34.3687  -39.8868 H         1 UNK         0.1106 
    107 H107       22.5008  -35.8495  -41.7599 H         1 UNK         0.0828 
    108 H108       23.1316  -36.4815  -40.2460 H         1 UNK         0.0828 
    109 H109       24.2265  -36.1729  -41.5810 H         1 UNK         0.0828 
    110 H110       21.6541  -32.7491  -41.1972 H         1 UNK         0.2931 
    111 H111       19.9730  -33.1247  -38.8605 H         1 UNK         0.0412 
    112 H112       22.4267  -30.2522  -37.7761 H         1 UNK         0.3472 
    113 H113       22.8396  -31.3179  -39.1148 H         1 UNK         0.3472 
    114 H114       18.4739  -31.4158  -39.9082 H         1 UNK         0.0970 
    115 H115       18.7578  -32.8514  -40.8340 H         1 UNK         0.0970 
    116 H116       19.1626  -32.6626  -43.4656 H         1 UNK         0.0612 
    117 H117       17.7333  -31.9022  -42.8010 H         1 UNK         0.0612 
@<TRIPOS>BOND
     1    1    2 1    
     2    1   62 1    
     3    1   63 1    
     4    1   64 1    
     5    2    3 2    
     6    2    4 am   BACKBONE|DICT|INTERRES
     7    4    5 1    
     8    4   65 1    
     9    5    6 1    
    10    5   25 1    
    11    5   66 1    
    12    6    7 1    
    13    6   67 1    
    14    6   68 1    
    15    7    8 1    
    16    8    9 1    
    17    8   69 1    
    18    8   70 1    
    19    9   10 ar   
    20    9   14 ar   
    21   10   11 ar   
    22   10   71 1    
    23   11   12 ar   
    24   11   61 1    
    25   12   13 ar   
    26   12   72 1    
    27   13   14 ar   
    28   13   15 1    
    29   14   73 1    
    30   15   16 1    
    31   15   74 1    
    32   15   75 1    
    33   16   17 1    
    34   17   18 1    
    35   17   76 1    
    36   17   77 1    
    37   18   19 1    
    38   18   27 1    
    39   18   78 1    
    40   19   20 am   BACKBONE|DICT|INTERRES
    41   19   79 1    
    42   20   21 2    
    43   20   22 1    
    44   22   23 1    
    45   22   24 1    
    46   22   80 1    
    47   23   81 1    
    48   23   82 1    
    49   23   83 1    
    50   24   25 am   BACKBONE|DICT|INTERRES
    51   24   84 1    
    52   25   26 2    
    53   27   28 2    
    54   27   29 am   BACKBONE|DICT|INTERRES
    55   29   30 1    
    56   29   85 1    
    57   30   31 1    
    58   30   32 1    
    59   30   86 1    
    60   31   87 1    
    61   31   88 1    
    62   31   89 1    
    63   32   33 2    
    64   32   34 am   BACKBONE|DICT|INTERRES
    65   34   35 1    
    66   34   90 1    
    67   35   36 1    
    68   35   37 1    
    69   35   91 1    
    70   36   92 1    
    71   36   93 1    
    72   36   94 1    
    73   37   38 2    
    74   37   39 am   BACKBONE|DICT|INTERRES
    75   39   40 1    
    76   39   95 1    
    77   40   41 1    
    78   40   42 1    
    79   40   96 1    
    80   41   97 1    
    81   41   98 1    
    82   41   99 1    
    83   42   43 2    
    84   42   44 am   BACKBONE|DICT|INTERRES
    85   44   45 1    
    86   44  100 1    
    87   45   46 1    
    88   45   47 1    
    89   45  101 1    
    90   46  102 1    
    91   46  103 1    
    92   46  104 1    
    93   47   48 2    
    94   47   49 am   BACKBONE|DICT|INTERRES
    95   49   50 1    
    96   49  105 1    
    97   50   51 1    
    98   50   52 1    
    99   50  106 1    
   100   51  107 1    
   101   51  108 1    
   102   51  109 1    
   103   52   53 2    
   104   52   54 am   BACKBONE|DICT|INTERRES
   105   54   55 1    
   106   54  110 1    
   107   55   56 1    
   108   55   59 1    
   109   55  111 1    
   110   56   57 am   BACKBONE|DICT|INTERRES
   111   56   58 2    
   112   57  112 1    
   113   57  113 1    
   114   59   60 1    
   115   59  114 1    
   116   59  115 1    
   117   60   61 1    
   118   61  116 1    
   119   61  117 1    
@<TRIPOS>SUBSTRUCTURE
     1 UNK         1 GROUP             0       ****    0 ROOT    
