@<TRIPOS>MOLECULE
3R8
117   119    1
SMALL
USER_CHARGES


@<TRIPOS>ATOM
      1 CA         18.8445  -25.3539  -50.3619 C.3       0 UNK        -0.2013 
      2 C          19.4829  -25.9648  -49.1234 C.2       0 UNK         0.4866 
      3 O          20.6633  -25.7298  -48.8625 O.2       0 UNK        -0.5176 
      4 N          18.7157  -26.7548  -48.3629 N.am      1 UNK        -0.4884 
      5 CA         19.1300  -27.3644  -47.0960 C.3       1 UNK         0.0853 
      6 C6         18.2055  -28.5417  -46.6878 C.3       10 UNK        -0.0849 
      7 S7         16.4208  -28.1490  -46.7435 S.3       10 UNK        -0.2776 
      8 C8         15.6963  -29.6896  -46.1011 C.3       10 UNK         0.0316 
      9 C9         15.9306  -29.8428  -44.6057 C.ar      10 UNK        -0.0863 
     10 C10        16.8269  -30.8007  -44.1213 C.ar      10 UNK        -0.1009 
     11 C11        17.0273  -30.9464  -42.7457 C.ar      10 UNK        -0.0712 
     12 C12        16.3098  -30.1444  -41.8550 C.ar      10 UNK        -0.0894 
     13 C13        15.4523  -29.1471  -42.3286 C.ar      10 UNK        -0.0745 
     14 C14        15.2525  -29.0151  -43.7055 C.ar      10 UNK        -0.0972 
     15 C15        14.7593  -28.1952  -41.3612 C.3       10 UNK         0.0209 
     16 S16        15.9123  -27.4187  -40.1760 S.3       10 UNK        -0.2568 
     17 C17        17.0948  -26.5393  -41.2609 C.3       10 UNK        -0.0983 
     18 CA         18.4568  -27.2800  -41.4079 C.3       3 UNK         0.0876 
     19 N          19.2047  -26.8670  -42.6019 N.am      3 UNK        -0.4424 
     20 C          19.7592  -25.6634  -42.8120 C.2       2 UNK         0.4918 
     21 O          19.6393  -24.7040  -42.0502 O.2       2 UNK        -0.4875 
     22 CA         20.6275  -25.5013  -44.0720 C.3       2 UNK         0.0481 
     23 CB         22.1115  -25.6631  -43.7057 C.3       2 UNK        -0.1831 
     24 N          20.2971  -26.4404  -45.1480 N.am      2 UNK        -0.4498 
     25 C          19.2554  -26.3036  -45.9798 C.2       1 UNK         0.5027 
     26 O          18.4261  -25.3939  -45.8945 O.2       1 UNK        -0.4969 
     27 C          19.3554  -27.2454  -40.1462 C.2       3 UNK         0.5005 
     28 O          19.0053  -26.6240  -39.1401 O.2       3 UNK        -0.5279 
     29 N          20.5219  -27.9003  -40.2340 N.am      4 UNK        -0.4463 
     30 CA         21.4909  -28.0347  -39.1509 C.3       4 UNK         0.0283 
     31 CB         22.3944  -26.7923  -39.0797 C.3       4 UNK        -0.1875 
     32 C          22.3169  -29.3028  -39.3776 C.2       4 UNK         0.4949 
     33 O          22.7645  -29.5496  -40.5039 O.2       4 UNK        -0.5039 
     34 N          22.5314  -30.0651  -38.2980 N.am      5 UNK        -0.4663 
     35 CA         23.2561  -31.3412  -38.2555 C.3       5 UNK         0.0242 
     36 CB         22.7711  -32.1486  -37.0371 C.3       5 UNK        -0.1982 
     37 C          24.7863  -31.1721  -38.2909 C.2       5 UNK         0.5017 
     38 O          25.4942  -31.7167  -37.4418 O.2       5 UNK        -0.5012 
     39 N          25.2583  -30.4141  -39.2819 N.am      6 UNK        -0.4439 
     40 CA         26.6621  -30.1583  -39.5917 C.3       6 UNK         0.0297 
     41 CB         27.3299  -29.2748  -38.5183 C.3       6 UNK        -0.2006 
     42 C          26.7646  -29.5076  -40.9733 C.2       6 UNK         0.4892 
     43 O          27.5615  -29.9549  -41.7980 O.2       6 UNK        -0.5089 
     44 N          25.9493  -28.4670  -41.1998 N.am      7 UNK        -0.4243 
     45 CA         25.9307  -27.6931  -42.4414 C.3       7 UNK         0.0196 
     46 CB         25.2856  -26.3244  -42.1768 C.3       7 UNK        -0.2007 
     47 C          25.2283  -28.4079  -43.6075 C.2       7 UNK         0.5020 
     48 O          25.5656  -28.1234  -44.7573 O.2       7 UNK        -0.5147 
     49 N          24.2744  -29.3050  -43.3165 N.am      8 UNK        -0.4734 
     50 CA         23.5510  -30.0629  -44.3418 C.3       8 UNK         0.0238 
     51 CB         22.3611  -29.2436  -44.8765 C.3       8 UNK        -0.1912 
     52 C          23.0822  -31.4380  -43.8561 C.2       8 UNK         0.5038 
     53 O          23.2510  -32.4159  -44.5859 O.2       8 UNK        -0.5046 
     54 N          22.4607  -31.4883  -42.6723 N.am      9 UNK        -0.4200 
     55 CA         21.7784  -32.6862  -42.1596 C.3       9 UNK         0.0839 
     56 C          22.7638  -33.7333  -41.5754 C.2       9 UNK         0.5513 
     57 N          22.3595  -34.9945  -41.5158 N.am      9 UNK        -0.7519 
     58 O          23.8691  -33.4129  -41.1430 O.2       9 UNK        -0.4960 
     59 C59        20.6562  -32.3316  -41.1468 C.3       10 UNK        -0.0876 
     60 S60        19.5603  -31.0009  -41.7402 S.3       10 UNK        -0.2414 
     61 C61        18.0652  -31.9179  -42.2126 C.3       10 UNK         0.0169 
     62 H62        18.8754  -24.2662  -50.3017 H         1 UNK         0.0903 
     63 H63        19.3877  -25.6616  -51.2550 H         1 UNK         0.0903 
     64 H64        17.8041  -25.6577  -50.4763 H         1 UNK         0.0903 
     65 H65        17.7410  -26.8873  -48.5964 H         1 UNK         0.3096 
     66 H66        20.1266  -27.7820  -47.2593 H         1 UNK         0.1121 
     67 H67        18.3786  -29.3812  -47.3631 H         1 UNK         0.0849 
     68 H68        18.4648  -28.9084  -45.6928 H         1 UNK         0.0849 
     69 H69        14.6227  -29.6823  -46.2951 H         1 UNK         0.0865 
     70 H70        16.0986  -30.5413  -46.6521 H         1 UNK         0.0865 
     71 H71        17.3801  -31.4212  -44.8131 H         1 UNK         0.1346 
     72 H72        16.4733  -30.2507  -40.7911 H         1 UNK         0.1412 
     73 H73        14.5817  -28.2553  -44.0839 H         1 UNK         0.1426 
     74 H74        14.0020  -28.7489  -40.8048 H         1 UNK         0.0716 
     75 H75        14.2319  -27.4069  -41.9008 H         1 UNK         0.0716 
     76 H76        17.2406  -25.5283  -40.8768 H         1 UNK         0.0695 
     77 H77        16.6317  -26.4177  -42.2414 H         1 UNK         0.0695 
     78 H78        18.2360  -28.3323  -41.5727 H         1 UNK         0.0983 
     79 H79        19.3460  -27.5814  -43.2997 H         1 UNK         0.3095 
     80 H80        20.4829  -24.4847  -44.4445 H         1 UNK         0.0454 
     81 H81        22.3227  -26.6532  -43.3014 H         1 UNK         0.0851 
     82 H82        22.4061  -24.9347  -42.9488 H         1 UNK         0.0851 
     83 H83        22.7575  -25.5065  -44.5698 H         1 UNK         0.0851 
     84 H84        20.9484  -27.1951  -45.3022 H         1 UNK         0.2976 
     85 H85        20.7462  -28.4215  -41.0714 H         1 UNK         0.3116 
     86 H86        20.9532  -28.1370  -38.2055 H         1 UNK         0.0646 
     87 H87        22.9052  -26.6142  -40.0242 H         1 UNK         0.0847 
     88 H88        23.1565  -26.9020  -38.3070 H         1 UNK         0.0847 
     89 H89        21.8188  -25.8978  -38.8411 H         1 UNK         0.0847 
     90 H90        22.1626  -29.7461  -37.4129 H         1 UNK         0.3040 
     91 H91        23.0069  -31.9150  -39.1461 H         1 UNK         0.1015 
     92 H92        21.6941  -32.3140  -37.0740 H         1 UNK         0.0786 
     93 H93        23.0027  -31.6426  -36.0991 H         1 UNK         0.0786 
     94 H94        23.2443  -33.1311  -37.0045 H         1 UNK         0.0786 
     95 H95        24.5727  -30.0570  -39.9399 H         1 UNK         0.3172 
     96 H96        27.1833  -31.1171  -39.6342 H         1 UNK         0.0595 
     97 H97        26.7950  -28.3356  -38.3737 H         1 UNK         0.0839 
     98 H98        28.3546  -29.0278  -38.7992 H         1 UNK         0.0839 
     99 H99        27.3784  -29.7813  -37.5545 H         1 UNK         0.0839 
    100 H100       25.3517  -28.1414  -40.4546 H         1 UNK         0.2998 
    101 H101       26.9649  -27.5190  -42.7481 H         1 UNK         0.0822 
    102 H102       25.8296  -25.7687  -41.4128 H         1 UNK         0.0787 
    103 H103       25.2828  -25.7126  -43.0801 H         1 UNK         0.0787 
    104 H104       24.2529  -26.4250  -41.8489 H         1 UNK         0.0787 
    105 H105       24.0486  -29.4937  -42.3483 H         1 UNK         0.3055 
    106 H106       24.2289  -30.2571  -45.1770 H         1 UNK         0.1106 
    107 H107       21.8049  -29.8077  -45.6268 H         1 UNK         0.0828 
    108 H108       21.6652  -28.9843  -44.0782 H         1 UNK         0.0828 
    109 H109       22.7026  -28.3239  -45.3513 H         1 UNK         0.0828 
    110 H110       22.3958  -30.6637  -42.0880 H         1 UNK         0.2931 
    111 H111       21.2865  -33.1593  -43.0127 H         1 UNK         0.0412 
    112 H112       21.4553  -35.2724  -41.8648 H         1 UNK         0.3472 
    113 H113       22.9799  -35.6884  -41.1281 H         1 UNK         0.3472 
    114 H114       20.0599  -33.2154  -40.9133 H         1 UNK         0.0970 
    115 H115       21.0737  -32.0008  -40.1981 H         1 UNK         0.0970 
    116 H116       17.6687  -32.4506  -41.3469 H         1 UNK         0.0612 
    117 H117       18.3182  -32.6690  -42.9625 H         1 UNK         0.0612 
@<TRIPOS>BOND
     1    1    2 1    
     2    1   62 1    
     3    1   63 1    
     4    1   64 1    
     5    2    3 2    
     6    2    4 am   BACKBONE|DICT|INTERRES
     7    4    5 1    
     8    4   65 1    
     9    5    6 1    
    10    5   25 1    
    11    5   66 1    
    12    6    7 1    
    13    6   67 1    
    14    6   68 1    
    15    7    8 1    
    16    8    9 1    
    17    8   69 1    
    18    8   70 1    
    19    9   10 ar   
    20    9   14 ar   
    21   10   11 ar   
    22   10   71 1    
    23   11   12 ar   
    24   11   61 1    
    25   12   13 ar   
    26   12   72 1    
    27   13   14 ar   
    28   13   15 1    
    29   14   73 1    
    30   15   16 1    
    31   15   74 1    
    32   15   75 1    
    33   16   17 1    
    34   17   18 1    
    35   17   76 1    
    36   17   77 1    
    37   18   19 1    
    38   18   27 1    
    39   18   78 1    
    40   19   20 am   BACKBONE|DICT|INTERRES
    41   19   79 1    
    42   20   21 2    
    43   20   22 1    
    44   22   23 1    
    45   22   24 1    
    46   22   80 1    
    47   23   81 1    
    48   23   82 1    
    49   23   83 1    
    50   24   25 am   BACKBONE|DICT|INTERRES
    51   24   84 1    
    52   25   26 2    
    53   27   28 2    
    54   27   29 am   BACKBONE|DICT|INTERRES
    55   29   30 1    
    56   29   85 1    
    57   30   31 1    
    58   30   32 1    
    59   30   86 1    
    60   31   87 1    
    61   31   88 1    
    62   31   89 1    
    63   32   33 2    
    64   32   34 am   BACKBONE|DICT|INTERRES
    65   34   35 1    
    66   34   90 1    
    67   35   36 1    
    68   35   37 1    
    69   35   91 1    
    70   36   92 1    
    71   36   93 1    
    72   36   94 1    
    73   37   38 2    
    74   37   39 am   BACKBONE|DICT|INTERRES
    75   39   40 1    
    76   39   95 1    
    77   40   41 1    
    78   40   42 1    
    79   40   96 1    
    80   41   97 1    
    81   41   98 1    
    82   41   99 1    
    83   42   43 2    
    84   42   44 am   BACKBONE|DICT|INTERRES
    85   44   45 1    
    86   44  100 1    
    87   45   46 1    
    88   45   47 1    
    89   45  101 1    
    90   46  102 1    
    91   46  103 1    
    92   46  104 1    
    93   47   48 2    
    94   47   49 am   BACKBONE|DICT|INTERRES
    95   49   50 1    
    96   49  105 1    
    97   50   51 1    
    98   50   52 1    
    99   50  106 1    
   100   51  107 1    
   101   51  108 1    
   102   51  109 1    
   103   52   53 2    
   104   52   54 am   BACKBONE|DICT|INTERRES
   105   54   55 1    
   106   54  110 1    
   107   55   56 1    
   108   55   59 1    
   109   55  111 1    
   110   56   57 am   BACKBONE|DICT|INTERRES
   111   56   58 2    
   112   57  112 1    
   113   57  113 1    
   114   59   60 1    
   115   59  114 1    
   116   59  115 1    
   117   60   61 1    
   118   61  116 1    
   119   61  117 1    
@<TRIPOS>SUBSTRUCTURE
     1 UNK         1 GROUP             0       ****    0 ROOT    
