@<TRIPOS>MOLECULE
3R8
117   119    1
SMALL
USER_CHARGES


@<TRIPOS>ATOM
      1 CA         14.4021  -23.1689  -46.4673 C.3       0 UNK        -0.2013 
      2 C          15.9188  -23.0581  -46.4338 C.2       0 UNK         0.4866 
      3 O          16.4496  -21.9651  -46.2364 O.2       0 UNK        -0.5176 
      4 N          16.6221  -24.1822  -46.6229 N.am      1 UNK        -0.4884 
      5 CA         18.0895  -24.2683  -46.6181 C.3       1 UNK         0.0853 
      6 C6         18.5928  -25.5048  -47.4089 C.3       10 UNK        -0.0849 
      7 S7         17.8953  -27.0978  -46.8441 S.3       10 UNK        -0.2776 
      8 C8         19.2977  -27.7578  -45.8866 C.3       10 UNK         0.0316 
      9 C9         18.9590  -29.0570  -45.1671 C.ar      10 UNK        -0.0863 
     10 C10        19.7861  -30.1748  -45.3100 C.ar      10 UNK        -0.1009 
     11 C11        19.5300  -31.3457  -44.5905 C.ar      10 UNK        -0.0712 
     12 C12        18.4401  -31.3927  -43.7161 C.ar      10 UNK        -0.0894 
     13 C13        17.5986  -30.2855  -43.5664 C.ar      10 UNK        -0.0745 
     14 C14        17.8554  -29.1281  -44.3112 C.ar      10 UNK        -0.0972 
     15 C15        16.4134  -30.3598  -42.6066 C.3       10 UNK         0.0209 
     16 S16        16.1810  -28.8545  -41.5992 S.3       10 UNK        -0.2568 
     17 C17        17.7086  -28.8120  -40.5972 C.3       10 UNK        -0.0983 
     18 CA         18.8218  -27.9168  -41.2037 C.3       3 UNK         0.0876 
     19 N          18.3184  -26.5894  -41.5926 N.am      3 UNK        -0.4424 
     20 C          18.9735  -25.6982  -42.3465 C.2       2 UNK         0.4918 
     21 O          20.1419  -25.8405  -42.7036 O.2       2 UNK        -0.4875 
     22 CA         18.1932  -24.4295  -42.7270 C.3       2 UNK         0.0481 
     23 CB         18.9100  -23.1533  -42.2414 C.3       2 UNK        -0.1831 
     24 N          17.8837  -24.3826  -44.1616 N.am      2 UNK        -0.4498 
     25 C          18.7116  -24.1921  -45.2035 C.2       1 UNK         0.5027 
     26 O          19.9155  -23.9542  -45.1043 O.2       1 UNK        -0.4969 
     27 C          20.0630  -27.8873  -40.2851 C.2       3 UNK         0.5005 
     28 O          20.7168  -28.9179  -40.1294 O.2       3 UNK        -0.5279 
     29 N          20.3786  -26.7216  -39.7022 N.am      4 UNK        -0.4463 
     30 CA         21.6058  -26.4732  -38.9446 C.3       4 UNK         0.0283 
     31 CB         21.4646  -25.1517  -38.1724 C.3       4 UNK        -0.1875 
     32 C          22.8698  -26.4444  -39.8260 C.2       4 UNK         0.4949 
     33 O          23.9553  -26.7294  -39.3187 O.2       4 UNK        -0.5039 
     34 N          22.7260  -26.0972  -41.1145 N.am      5 UNK        -0.4663 
     35 CA         23.8215  -26.0613  -42.0826 C.3       5 UNK         0.0242 
     36 CB         23.4084  -25.2101  -43.2963 C.3       5 UNK        -0.1982 
     37 C          24.2010  -27.4913  -42.4967 C.2       5 UNK         0.5017 
     38 O          23.4355  -28.1322  -43.2184 O.2       5 UNK        -0.5012 
     39 N          25.3622  -27.9583  -42.0119 N.am      6 UNK        -0.4439 
     40 CA         25.9140  -29.3090  -42.1871 C.3       6 UNK         0.0297 
     41 CB         26.3100  -29.5578  -43.6587 C.3       6 UNK        -0.2006 
     42 C          24.9824  -30.3998  -41.6215 C.2       6 UNK         0.4892 
     43 O          24.7243  -31.3984  -42.2940 O.2       6 UNK        -0.5089 
     44 N          24.5120  -30.1808  -40.3826 N.am      7 UNK        -0.4243 
     45 CA         23.4975  -30.9618  -39.6558 C.3       7 UNK         0.0196 
     46 CB         23.3321  -30.3647  -38.2488 C.3       7 UNK        -0.2007 
     47 C          23.7212  -32.4837  -39.5596 C.2       7 UNK         0.5020 
     48 O          22.7659  -33.2139  -39.2918 O.2       7 UNK        -0.5147 
     49 N          24.9518  -32.9492  -39.8140 N.am      8 UNK        -0.4734 
     50 CA         25.3200  -34.3608  -39.9636 C.3       8 UNK         0.0238 
     51 CB         26.8377  -34.4593  -40.1885 C.3       8 UNK        -0.1912 
     52 C          24.5597  -35.1035  -41.0833 C.2       8 UNK         0.5038 
     53 O          24.5025  -36.3334  -41.0395 O.2       8 UNK        -0.5046 
     54 N          23.9765  -34.3672  -42.0426 N.am      9 UNK        -0.4200 
     55 CA         23.0397  -34.8991  -43.0449 C.3       9 UNK         0.0839 
     56 C          21.6817  -35.4125  -42.4754 C.2       9 UNK         0.5513 
     57 N          21.3099  -35.0980  -41.2388 N.am      9 UNK        -0.7519 
     58 O          20.9573  -36.1193  -43.1715 O.2       9 UNK        -0.4960 
     59 C59        22.8439  -33.9174  -44.2310 C.3       10 UNK        -0.0876 
     60 S60        21.9660  -32.3723  -43.7972 S.3       10 UNK        -0.2414 
     61 C61        20.4351  -32.5563  -44.7593 C.3       10 UNK         0.0169 
     62 H62        14.0712  -24.1913  -46.6489 H         1 UNK         0.0903 
     63 H63        13.9805  -22.8394  -45.5180 H         1 UNK         0.0903 
     64 H64        13.9975  -22.5367  -47.2573 H         1 UNK         0.0903 
     65 H65        16.1419  -25.0570  -46.7877 H         1 UNK         0.3096 
     66 H66        18.4661  -23.3869  -47.1431 H         1 UNK         0.1121 
     67 H67        18.3201  -25.3878  -48.4589 H         1 UNK         0.0849 
     68 H68        19.6838  -25.5511  -47.4036 H         1 UNK         0.0849 
     69 H69        20.1455  -27.8995  -46.5587 H         1 UNK         0.0865 
     70 H70        19.6140  -27.0252  -45.1436 H         1 UNK         0.0865 
     71 H71        20.6454  -30.1323  -45.9655 H         1 UNK         0.1346 
     72 H72        18.2486  -32.2951  -43.1514 H         1 UNK         0.1412 
     73 H73        17.2141  -28.2645  -44.1996 H         1 UNK         0.1426 
     74 H74        16.5127  -31.2140  -41.9348 H         1 UNK         0.0716 
     75 H75        15.5078  -30.5304  -43.1899 H         1 UNK         0.0716 
     76 H76        18.0704  -29.8332  -40.4615 H         1 UNK         0.0695 
     77 H77        17.4366  -28.4533  -39.6027 H         1 UNK         0.0695 
     78 H78        19.1744  -28.3953  -42.1178 H         1 UNK         0.0983 
     79 H79        17.3597  -26.4014  -41.3358 H         1 UNK         0.3095 
     80 H80        17.2261  -24.4620  -42.2225 H         1 UNK         0.0454 
     81 H81        19.0019  -23.1505  -41.1549 H         1 UNK         0.0851 
     82 H82        18.3584  -22.2565  -42.5229 H         1 UNK         0.0851 
     83 H83        19.9187  -23.0676  -42.6468 H         1 UNK         0.0851 
     84 H84        16.9204  -24.5757  -44.3968 H         1 UNK         0.2976 
     85 H85        19.7766  -25.9297  -39.8726 H         1 UNK         0.3116 
     86 H86        21.7257  -27.2793  -38.2181 H         1 UNK         0.0646 
     87 H87        20.6166  -25.1790  -37.4879 H         1 UNK         0.0847 
     88 H88        21.3298  -24.3025  -38.8436 H         1 UNK         0.0847 
     89 H89        22.3549  -24.9542  -37.5736 H         1 UNK         0.0847 
     90 H90        21.7945  -25.9512  -41.4905 H         1 UNK         0.3040 
     91 H91        24.6840  -25.5783  -41.6177 H         1 UNK         0.1015 
     92 H92        24.2259  -25.1349  -44.0143 H         1 UNK         0.0786 
     93 H93        23.1414  -24.1960  -42.9987 H         1 UNK         0.0786 
     94 H94        22.5534  -25.6370  -43.8225 H         1 UNK         0.0786 
     95 H95        25.8914  -27.3508  -41.4004 H         1 UNK         0.3172 
     96 H96        26.8274  -29.3488  -41.5919 H         1 UNK         0.0595 
     97 H97        25.4389  -29.5854  -44.3143 H         1 UNK         0.0839 
     98 H98        26.8248  -30.5133  -43.7670 H         1 UNK         0.0839 
     99 H99        26.9833  -28.7838  -44.0265 H         1 UNK         0.0839 
    100 H100       24.7938  -29.3206  -39.9335 H         1 UNK         0.2998 
    101 H101       22.5599  -30.8274  -40.1982 H         1 UNK         0.0822 
    102 H102       23.0451  -29.3148  -38.2960 H         1 UNK         0.0787 
    103 H103       22.5510  -30.8839  -37.6915 H         1 UNK         0.0787 
    104 H104       24.2530  -30.4375  -37.6690 H         1 UNK         0.0787 
    105 H105       25.6634  -32.2715  -40.0453 H         1 UNK         0.3055 
    106 H106       25.0746  -34.8646  -39.0262 H         1 UNK         0.1106 
    107 H107       27.3927  -34.0231  -39.3578 H         1 UNK         0.0828 
    108 H108       27.1535  -35.5001  -40.2744 H         1 UNK         0.0828 
    109 H109       27.1431  -33.9498  -41.1035 H         1 UNK         0.0828 
    110 H110       24.0902  -33.3582  -42.0280 H         1 UNK         0.2931 
    111 H111       23.5247  -35.7832  -43.4635 H         1 UNK         0.0412 
    112 H112       21.8855  -34.4985  -40.6583 H         1 UNK         0.3472 
    113 H113       20.4316  -35.4429  -40.8861 H         1 UNK         0.3472 
    114 H114       23.8169  -33.6428  -44.6411 H         1 UNK         0.0970 
    115 H115       22.3210  -34.4205  -45.0464 H         1 UNK         0.0970 
    116 H116       20.6825  -32.6833  -45.8143 H         1 UNK         0.0612 
    117 H117       19.9204  -33.4666  -44.4473 H         1 UNK         0.0612 
@<TRIPOS>BOND
     1    1    2 1    
     2    1   62 1    
     3    1   63 1    
     4    1   64 1    
     5    2    3 2    
     6    2    4 am   BACKBONE|DICT|INTERRES
     7    4    5 1    
     8    4   65 1    
     9    5    6 1    
    10    5   25 1    
    11    5   66 1    
    12    6    7 1    
    13    6   67 1    
    14    6   68 1    
    15    7    8 1    
    16    8    9 1    
    17    8   69 1    
    18    8   70 1    
    19    9   10 ar   
    20    9   14 ar   
    21   10   11 ar   
    22   10   71 1    
    23   11   12 ar   
    24   11   61 1    
    25   12   13 ar   
    26   12   72 1    
    27   13   14 ar   
    28   13   15 1    
    29   14   73 1    
    30   15   16 1    
    31   15   74 1    
    32   15   75 1    
    33   16   17 1    
    34   17   18 1    
    35   17   76 1    
    36   17   77 1    
    37   18   19 1    
    38   18   27 1    
    39   18   78 1    
    40   19   20 am   BACKBONE|DICT|INTERRES
    41   19   79 1    
    42   20   21 2    
    43   20   22 1    
    44   22   23 1    
    45   22   24 1    
    46   22   80 1    
    47   23   81 1    
    48   23   82 1    
    49   23   83 1    
    50   24   25 am   BACKBONE|DICT|INTERRES
    51   24   84 1    
    52   25   26 2    
    53   27   28 2    
    54   27   29 am   BACKBONE|DICT|INTERRES
    55   29   30 1    
    56   29   85 1    
    57   30   31 1    
    58   30   32 1    
    59   30   86 1    
    60   31   87 1    
    61   31   88 1    
    62   31   89 1    
    63   32   33 2    
    64   32   34 am   BACKBONE|DICT|INTERRES
    65   34   35 1    
    66   34   90 1    
    67   35   36 1    
    68   35   37 1    
    69   35   91 1    
    70   36   92 1    
    71   36   93 1    
    72   36   94 1    
    73   37   38 2    
    74   37   39 am   BACKBONE|DICT|INTERRES
    75   39   40 1    
    76   39   95 1    
    77   40   41 1    
    78   40   42 1    
    79   40   96 1    
    80   41   97 1    
    81   41   98 1    
    82   41   99 1    
    83   42   43 2    
    84   42   44 am   BACKBONE|DICT|INTERRES
    85   44   45 1    
    86   44  100 1    
    87   45   46 1    
    88   45   47 1    
    89   45  101 1    
    90   46  102 1    
    91   46  103 1    
    92   46  104 1    
    93   47   48 2    
    94   47   49 am   BACKBONE|DICT|INTERRES
    95   49   50 1    
    96   49  105 1    
    97   50   51 1    
    98   50   52 1    
    99   50  106 1    
   100   51  107 1    
   101   51  108 1    
   102   51  109 1    
   103   52   53 2    
   104   52   54 am   BACKBONE|DICT|INTERRES
   105   54   55 1    
   106   54  110 1    
   107   55   56 1    
   108   55   59 1    
   109   55  111 1    
   110   56   57 am   BACKBONE|DICT|INTERRES
   111   56   58 2    
   112   57  112 1    
   113   57  113 1    
   114   59   60 1    
   115   59  114 1    
   116   59  115 1    
   117   60   61 1    
   118   61  116 1    
   119   61  117 1    
@<TRIPOS>SUBSTRUCTURE
     1 UNK         1 GROUP             0       ****    0 ROOT    
