@<TRIPOS>MOLECULE
3R8
117   119    1
SMALL
USER_CHARGES


@<TRIPOS>ATOM
      1 CA         16.1507  -23.9666  -49.9278 C.3       0 UNK        -0.2013 
      2 C          16.6301  -25.2668  -49.2999 C.2       0 UNK         0.4866 
      3 O          16.4249  -26.3371  -49.8733 O.2       0 UNK        -0.5176 
      4 N          17.2704  -25.1833  -48.1308 N.am      1 UNK        -0.4884 
      5 CA         17.8175  -26.3104  -47.3771 C.3       1 UNK         0.0853 
      6 C6         16.7243  -27.1363  -46.6393 C.3       10 UNK        -0.0849 
      7 S7         15.7837  -26.1936  -45.3850 S.3       10 UNK        -0.2776 
      8 C8         14.6829  -27.4799  -44.7199 C.3       10 UNK         0.0316 
      9 C9         15.3993  -28.4191  -43.7579 C.ar      10 UNK        -0.0863 
     10 C10        15.8889  -29.6493  -44.2048 C.ar      10 UNK        -0.1009 
     11 C11        16.4839  -30.5455  -43.3119 C.ar      10 UNK        -0.0712 
     12 C12        16.5828  -30.2058  -41.9588 C.ar      10 UNK        -0.0894 
     13 C13        16.1115  -28.9699  -41.4996 C.ar      10 UNK        -0.0745 
     14 C14        15.5254  -28.0806  -42.4070 C.ar      10 UNK        -0.0972 
     15 C15        16.1733  -28.6111  -40.0178 C.3       10 UNK         0.0209 
     16 S16        17.8435  -28.7496  -39.3003 S.3       10 UNK        -0.2568 
     17 C17        18.7736  -27.4771  -40.2233 C.3       10 UNK        -0.0983 
     18 CA         19.7130  -28.1015  -41.2881 C.3       3 UNK         0.0876 
     19 N          19.9454  -27.1788  -42.3994 N.am      3 UNK        -0.4424 
     20 C          20.2696  -27.5653  -43.6368 C.2       2 UNK         0.4918 
     21 O          20.3571  -28.7411  -43.9957 O.2       2 UNK        -0.4875 
     22 CA         20.5130  -26.4531  -44.6587 C.3       2 UNK         0.0481 
     23 CB         21.9721  -26.4329  -45.1430 C.3       2 UNK        -0.1831 
     24 N          19.6150  -26.7112  -45.7755 N.am      2 UNK        -0.4498 
     25 C          18.9035  -25.7836  -46.4216 C.2       1 UNK         0.5027 
     26 O          19.0535  -24.5666  -46.2671 O.2       1 UNK        -0.4969 
     27 C          21.0503  -28.6013  -40.6940 C.2       3 UNK         0.5005 
     28 O          22.1257  -28.1491  -41.0974 O.2       3 UNK        -0.5279 
     29 N          20.9577  -29.5091  -39.7147 N.am      4 UNK        -0.4463 
     30 CA         22.0578  -30.1911  -39.0217 C.3       4 UNK         0.0283 
     31 CB         21.4740  -31.4033  -38.2706 C.3       4 UNK        -0.1875 
     32 C          22.9076  -29.2948  -38.0901 C.2       4 UNK         0.4949 
     33 O          23.3507  -29.7564  -37.0373 O.2       4 UNK        -0.5039 
     34 N          23.1294  -28.0339  -38.4785 N.am      5 UNK        -0.4663 
     35 CA         23.9901  -27.0785  -37.7779 C.3       5 UNK         0.0242 
     36 CB         23.6331  -25.6511  -38.2228 C.3       5 UNK        -0.1982 
     37 C          25.4806  -27.3686  -38.0188 C.2       5 UNK         0.5017 
     38 O          26.2846  -27.2158  -37.0987 O.2       5 UNK        -0.5012 
     39 N          25.8108  -27.7978  -39.2423 N.am      6 UNK        -0.4439 
     40 CA         27.1382  -28.2062  -39.6856 C.3       6 UNK         0.0297 
     41 CB         28.0675  -26.9868  -39.8530 C.3       6 UNK        -0.2006 
     42 C          26.9531  -28.9610  -41.0043 C.2       6 UNK         0.4892 
     43 O          26.6150  -28.3321  -42.0092 O.2       6 UNK        -0.5089 
     44 N          27.1446  -30.2875  -40.9637 N.am      7 UNK        -0.4243 
     45 CA         26.9338  -31.2389  -42.0634 C.3       7 UNK         0.0196 
     46 CB         27.9975  -31.0383  -43.1686 C.3       7 UNK        -0.2007 
     47 C          25.4752  -31.2151  -42.5709 C.2       7 UNK         0.5020 
     48 O          24.5604  -31.1395  -41.7476 O.2       7 UNK        -0.5147 
     49 N          25.2822  -31.2948  -43.8965 N.am      8 UNK        -0.4734 
     50 CA         23.9983  -31.2624  -44.6095 C.3       8 UNK         0.0238 
     51 CB         23.4090  -29.8356  -44.5723 C.3       8 UNK        -0.1912 
     52 C          23.0385  -32.3614  -44.1109 C.2       8 UNK         0.5038 
     53 O          23.3698  -33.5406  -44.2496 O.2       8 UNK        -0.5046 
     54 N          21.8961  -31.9707  -43.5314 N.am      9 UNK        -0.4200 
     55 CA         20.9346  -32.8709  -42.8741 C.3       9 UNK         0.0839 
     56 C          21.4388  -33.5176  -41.5484 C.2       9 UNK         0.5513 
     57 N          22.5879  -33.1422  -41.0003 N.am      9 UNK        -0.7519 
     58 O          20.7701  -34.3948  -41.0084 O.2       9 UNK        -0.4960 
     59 C59        19.5583  -32.1823  -42.6773 C.3       10 UNK        -0.0876 
     60 S60        18.7446  -31.8262  -44.2715 S.3       10 UNK        -0.2414 
     61 C61        16.9846  -31.8918  -43.8136 C.3       10 UNK         0.0169 
     62 H62        15.0693  -23.9904  -50.0594 H         1 UNK         0.0903 
     63 H63        16.3980  -23.1016  -49.3124 H         1 UNK         0.0903 
     64 H64        16.6107  -23.8298  -50.9061 H         1 UNK         0.0903 
     65 H65        17.4644  -24.2852  -47.7029 H         1 UNK         0.3096 
     66 H66        18.3261  -26.9672  -48.0869 H         1 UNK         0.1121 
     67 H67        17.1728  -28.0067  -46.1587 H         1 UNK         0.0849 
     68 H68        16.0168  -27.5389  -47.3656 H         1 UNK         0.0849 
     69 H69        13.8542  -26.9946  -44.2019 H         1 UNK         0.0865 
     70 H70        14.2330  -28.0395  -45.5416 H         1 UNK         0.0865 
     71 H71        15.7925  -29.9186  -45.2478 H         1 UNK         0.1346 
     72 H72        17.0229  -30.9045  -41.2608 H         1 UNK         0.1412 
     73 H73        15.1408  -27.1312  -42.0593 H         1 UNK         0.1426 
     74 H74        15.5050  -29.2782  -39.4720 H         1 UNK         0.0716 
     75 H75        15.8019  -27.5998  -39.8446 H         1 UNK         0.0716 
     76 H76        18.0499  -26.8133  -40.6997 H         1 UNK         0.0695 
     77 H77        19.3263  -26.8521  -39.5190 H         1 UNK         0.0695 
     78 H78        19.2086  -28.9741  -41.7080 H         1 UNK         0.0983 
     79 H79        19.9282  -26.1943  -42.1788 H         1 UNK         0.3095 
     80 H80        20.2802  -25.4915  -44.1957 H         1 UNK         0.0454 
     81 H81        22.2333  -27.3474  -45.6753 H         1 UNK         0.0851 
     82 H82        22.6616  -26.3328  -44.3037 H         1 UNK         0.0851 
     83 H83        22.1516  -25.5942  -45.8155 H         1 UNK         0.0851 
     84 H84        19.4177  -27.6918  -45.9303 H         1 UNK         0.2976 
     85 H85        20.0264  -29.7425  -39.3944 H         1 UNK         0.3116 
     86 H86        22.7389  -30.5671  -39.7866 H         1 UNK         0.0646 
     87 H87        20.8359  -31.0930  -37.4423 H         1 UNK         0.0847 
     88 H88        22.2665  -32.0279  -37.8566 H         1 UNK         0.0847 
     89 H89        20.8804  -32.0374  -38.9287 H         1 UNK         0.0847 
     90 H90        22.7679  -27.7654  -39.3908 H         1 UNK         0.3040 
     91 H91        23.8038  -27.1604  -36.7044 H         1 UNK         0.1015 
     92 H92        23.7820  -25.5107  -39.2943 H         1 UNK         0.0786 
     93 H93        24.2530  -24.9159  -37.7075 H         1 UNK         0.0786 
     94 H94        22.5936  -25.4142  -37.9950 H         1 UNK         0.0786 
     95 H95        25.0777  -27.9049  -39.9323 H         1 UNK         0.3172 
     96 H96        27.5692  -28.8794  -38.9414 H         1 UNK         0.0595 
     97 H97        29.0363  -27.2888  -40.2529 H         1 UNK         0.0839 
     98 H98        28.2534  -26.4897  -38.9011 H         1 UNK         0.0839 
     99 H99        27.6469  -26.2495  -40.5380 H         1 UNK         0.0839 
    100 H100       27.3760  -30.7044  -40.0726 H         1 UNK         0.2998 
    101 H101       27.0840  -32.2324  -41.6383 H         1 UNK         0.0822 
    102 H102       27.9670  -31.8441  -43.9029 H         1 UNK         0.0787 
    103 H103       27.8631  -30.0951  -43.7000 H         1 UNK         0.0787 
    104 H104       29.0029  -31.0367  -42.7472 H         1 UNK         0.0787 
    105 H105       26.1010  -31.3908  -44.4806 H         1 UNK         0.3055 
    106 H106       24.2119  -31.5025  -45.6524 H         1 UNK         0.1106 
    107 H107       22.5007  -29.7751  -45.1725 H         1 UNK         0.0828 
    108 H108       23.1666  -29.5097  -43.5593 H         1 UNK         0.0828 
    109 H109       24.1112  -29.1121  -44.9862 H         1 UNK         0.0828 
    110 H110       21.6933  -30.9827  -43.4727 H         1 UNK         0.2931 
    111 H111       20.7793  -33.7122  -43.5525 H         1 UNK         0.0412 
    112 H112       23.1642  -32.4165  -41.4169 H         1 UNK         0.3472 
    113 H113       22.8917  -33.5923  -40.1527 H         1 UNK         0.3472 
    114 H114       18.8950  -32.8191  -42.0892 H         1 UNK         0.0970 
    115 H115       19.6678  -31.2553  -42.1146 H         1 UNK         0.0970 
    116 H116       16.4133  -32.1915  -44.6935 H         1 UNK         0.0612 
    117 H117       16.8096  -32.6683  -43.0679 H         1 UNK         0.0612 
@<TRIPOS>BOND
     1    1    2 1    
     2    1   62 1    
     3    1   63 1    
     4    1   64 1    
     5    2    3 2    
     6    2    4 am   BACKBONE|DICT|INTERRES
     7    4    5 1    
     8    4   65 1    
     9    5    6 1    
    10    5   25 1    
    11    5   66 1    
    12    6    7 1    
    13    6   67 1    
    14    6   68 1    
    15    7    8 1    
    16    8    9 1    
    17    8   69 1    
    18    8   70 1    
    19    9   10 ar   
    20    9   14 ar   
    21   10   11 ar   
    22   10   71 1    
    23   11   12 ar   
    24   11   61 1    
    25   12   13 ar   
    26   12   72 1    
    27   13   14 ar   
    28   13   15 1    
    29   14   73 1    
    30   15   16 1    
    31   15   74 1    
    32   15   75 1    
    33   16   17 1    
    34   17   18 1    
    35   17   76 1    
    36   17   77 1    
    37   18   19 1    
    38   18   27 1    
    39   18   78 1    
    40   19   20 am   BACKBONE|DICT|INTERRES
    41   19   79 1    
    42   20   21 2    
    43   20   22 1    
    44   22   23 1    
    45   22   24 1    
    46   22   80 1    
    47   23   81 1    
    48   23   82 1    
    49   23   83 1    
    50   24   25 am   BACKBONE|DICT|INTERRES
    51   24   84 1    
    52   25   26 2    
    53   27   28 2    
    54   27   29 am   BACKBONE|DICT|INTERRES
    55   29   30 1    
    56   29   85 1    
    57   30   31 1    
    58   30   32 1    
    59   30   86 1    
    60   31   87 1    
    61   31   88 1    
    62   31   89 1    
    63   32   33 2    
    64   32   34 am   BACKBONE|DICT|INTERRES
    65   34   35 1    
    66   34   90 1    
    67   35   36 1    
    68   35   37 1    
    69   35   91 1    
    70   36   92 1    
    71   36   93 1    
    72   36   94 1    
    73   37   38 2    
    74   37   39 am   BACKBONE|DICT|INTERRES
    75   39   40 1    
    76   39   95 1    
    77   40   41 1    
    78   40   42 1    
    79   40   96 1    
    80   41   97 1    
    81   41   98 1    
    82   41   99 1    
    83   42   43 2    
    84   42   44 am   BACKBONE|DICT|INTERRES
    85   44   45 1    
    86   44  100 1    
    87   45   46 1    
    88   45   47 1    
    89   45  101 1    
    90   46  102 1    
    91   46  103 1    
    92   46  104 1    
    93   47   48 2    
    94   47   49 am   BACKBONE|DICT|INTERRES
    95   49   50 1    
    96   49  105 1    
    97   50   51 1    
    98   50   52 1    
    99   50  106 1    
   100   51  107 1    
   101   51  108 1    
   102   51  109 1    
   103   52   53 2    
   104   52   54 am   BACKBONE|DICT|INTERRES
   105   54   55 1    
   106   54  110 1    
   107   55   56 1    
   108   55   59 1    
   109   55  111 1    
   110   56   57 am   BACKBONE|DICT|INTERRES
   111   56   58 2    
   112   57  112 1    
   113   57  113 1    
   114   59   60 1    
   115   59  114 1    
   116   59  115 1    
   117   60   61 1    
   118   61  116 1    
   119   61  117 1    
@<TRIPOS>SUBSTRUCTURE
     1 UNK         1 GROUP             0       ****    0 ROOT    
