@<TRIPOS>MOLECULE
3R8
117   119    1
SMALL
USER_CHARGES


@<TRIPOS>ATOM
      1 CA         18.3623  -27.4645  -41.4718 C.3       0 UNK        -0.2013 
      2 C          17.6745  -26.3167  -42.1883 C.2       0 UNK         0.4866 
      3 O          17.6960  -25.1855  -41.7035 O.2       0 UNK        -0.5176 
      4 N          17.0591  -26.6053  -43.3420 N.am      1 UNK        -0.4884 
      5 CA         16.2932  -25.6393  -44.1434 C.3       1 UNK         0.0853 
      6 C6         15.3702  -26.3414  -45.1697 C.3       10 UNK        -0.0849 
      7 S7         14.2305  -27.5215  -44.3653 S.3       10 UNK        -0.2776 
      8 C8         14.6163  -29.0890  -45.2127 C.3       10 UNK         0.0316 
      9 C9         16.0471  -29.5623  -44.9818 C.ar      10 UNK        -0.0863 
     10 C10        16.4533  -30.0115  -43.7211 C.ar      10 UNK        -0.1009 
     11 C11        17.7502  -30.4968  -43.5134 C.ar      10 UNK        -0.0712 
     12 C12        18.6431  -30.5217  -44.5939 C.ar      10 UNK        -0.0894 
     13 C13        18.2478  -30.0910  -45.8638 C.ar      10 UNK        -0.0745 
     14 C14        16.9488  -29.6092  -46.0483 C.ar      10 UNK        -0.0972 
     15 C15        19.1958  -30.2202  -47.0519 C.3       10 UNK         0.0209 
     16 S16        19.4739  -28.6306  -47.8967 S.3       10 UNK        -0.2568 
     17 C17        21.2621  -28.3173  -47.6382 C.3       10 UNK        -0.0983 
     18 CA         21.5990  -27.3770  -46.4431 C.3       3 UNK         0.0876 
     19 N          20.6240  -26.2853  -46.3508 N.am      3 UNK        -0.4424 
     20 C          20.7720  -25.0881  -45.7733 C.2       2 UNK         0.4918 
     21 O          21.8070  -24.7112  -45.2245 O.2       2 UNK        -0.4875 
     22 CA         19.5141  -24.2159  -45.7375 C.3       2 UNK         0.0481 
     23 CB         19.1678  -23.6939  -47.1472 C.3       2 UNK        -0.1831 
     24 N          18.4301  -25.0126  -45.1612 N.am      2 UNK        -0.4498 
     25 C          17.1976  -24.6011  -44.8411 C.2       1 UNK         0.5027 
     26 O          16.7687  -23.4664  -45.0546 O.2       1 UNK        -0.4969 
     27 C          21.7832  -28.1186  -45.0955 C.2       3 UNK         0.5005 
     28 O          21.7565  -29.3488  -45.0520 O.2       3 UNK        -0.5279 
     29 N          21.9572  -27.3521  -44.0095 N.am      4 UNK        -0.4463 
     30 CA         22.0363  -27.8416  -42.6324 C.3       4 UNK         0.0283 
     31 CB         21.9619  -26.6504  -41.6635 C.3       4 UNK        -0.1875 
     32 C          23.2819  -28.6905  -42.3381 C.2       4 UNK         0.4949 
     33 O          23.1988  -29.6128  -41.5271 O.2       4 UNK        -0.5039 
     34 N          24.4141  -28.3368  -42.9682 N.am      5 UNK        -0.4663 
     35 CA         25.7391  -28.9560  -42.8106 C.3       5 UNK         0.0242 
     36 CB         25.7450  -30.3678  -43.4364 C.3       5 UNK        -0.1982 
     37 C          26.2228  -28.9472  -41.3453 C.2       5 UNK         0.5017 
     38 O          26.6566  -29.9781  -40.8329 O.2       5 UNK        -0.5012 
     39 N          26.0803  -27.7874  -40.6835 N.am      6 UNK        -0.4439 
     40 CA         26.3159  -27.5576  -39.2487 C.3       6 UNK         0.0297 
     41 CB         27.8095  -27.7238  -38.8937 C.3       6 UNK        -0.2006 
     42 C          25.3831  -28.3966  -38.3470 C.2       6 UNK         0.4892 
     43 O          25.8060  -28.8762  -37.2940 O.2       6 UNK        -0.5089 
     44 N          24.1287  -28.5518  -38.7974 N.am      7 UNK        -0.4243 
     45 CA         23.0343  -29.3293  -38.2019 C.3       7 UNK         0.0196 
     46 CB         22.6607  -28.7968  -36.8020 C.3       7 UNK        -0.2007 
     47 C          23.2630  -30.8545  -38.2211 C.2       7 UNK         0.5020 
     48 O          22.6073  -31.5749  -37.4667 O.2       7 UNK        -0.5147 
     49 N          24.1512  -31.3391  -39.1012 N.am      8 UNK        -0.4734 
     50 CA         24.4272  -32.7660  -39.2973 C.3       8 UNK         0.0238 
     51 CB         25.7611  -32.9362  -40.0403 C.3       8 UNK        -0.1912 
     52 C          23.3027  -33.5142  -40.0352 C.2       8 UNK         0.5038 
     53 O          23.2767  -34.7445  -39.9781 O.2       8 UNK        -0.5046 
     54 N          22.4025  -32.7821  -40.7077 N.am      9 UNK        -0.4200 
     55 CA         21.2237  -33.3354  -41.3927 C.3       9 UNK         0.0839 
     56 C          20.1303  -33.9424  -40.4615 C.2       9 UNK         0.5513 
     57 N          20.1660  -33.7160  -39.1529 N.am      9 UNK        -0.7519 
     58 O          19.2392  -34.6398  -40.9392 O.2       9 UNK        -0.4960 
     59 C59        20.6357  -32.3311  -42.4169 C.3       10 UNK        -0.0876 
     60 S60        19.8754  -30.8517  -41.6564 S.3       10 UNK        -0.2414 
     61 C61        18.1208  -31.0400  -42.1294 C.3       10 UNK         0.0169 
     62 H62        19.1132  -27.0954  -40.7743 H         1 UNK         0.0903 
     63 H63        17.6350  -28.0482  -40.9088 H         1 UNK         0.0903 
     64 H64        18.8558  -28.1194  -42.1874 H         1 UNK         0.0903 
     65 H65        17.0339  -27.5618  -43.6720 H         1 UNK         0.3096 
     66 H66        15.6556  -25.0785  -43.4556 H         1 UNK         0.1121 
     67 H67        14.7638  -25.6047  -45.7003 H         1 UNK         0.0849 
     68 H68        15.9591  -26.8520  -45.9336 H         1 UNK         0.0849 
     69 H69        13.9288  -29.8573  -44.8557 H         1 UNK         0.0865 
     70 H70        14.4105  -28.9750  -46.2784 H         1 UNK         0.0865 
     71 H71        15.7457  -30.0004  -42.9026 H         1 UNK         0.1346 
     72 H72        19.6455  -30.9000  -44.4641 H         1 UNK         0.1412 
     73 H73        16.6361  -29.2917  -47.0341 H         1 UNK         0.1426 
     74 H74        18.7603  -30.9187  -47.7675 H         1 UNK         0.0716 
     75 H75        20.1464  -30.6588  -46.7470 H         1 UNK         0.0716 
     76 H76        21.6128  -27.8373  -48.5530 H         1 UNK         0.0695 
     77 H77        21.8143  -29.2578  -47.5969 H         1 UNK         0.0695 
     78 H78        22.5729  -26.9300  -46.6548 H         1 UNK         0.0983 
     79 H79        19.7343  -26.5035  -46.7779 H         1 UNK         0.3095 
     80 H80        19.7065  -23.3666  -45.0790 H         1 UNK         0.0454 
     81 H81        20.0274  -23.1995  -47.6017 H         1 UNK         0.0851 
     82 H82        18.3620  -22.9610  -47.1181 H         1 UNK         0.0851 
     83 H83        18.8613  -24.4978  -47.8171 H         1 UNK         0.0851 
     84 H84        18.6815  -25.9516  -44.8839 H         1 UNK         0.2976 
     85 H85        21.9934  -26.3468  -44.1502 H         1 UNK         0.3116 
     86 H86        21.1648  -28.4719  -42.4641 H         1 UNK         0.0646 
     87 H87        22.8288  -25.9952  -41.7581 H         1 UNK         0.0847 
     88 H88        21.0718  -26.0469  -41.8407 H         1 UNK         0.0847 
     89 H89        21.9190  -26.9913  -40.6282 H         1 UNK         0.0847 
     90 H90        24.3643  -27.5576  -43.6098 H         1 UNK         0.3040 
     91 H91        26.4480  -28.3432  -43.3698 H         1 UNK         0.1015 
     92 H92        26.7405  -30.8119  -43.3958 H         1 UNK         0.0786 
     93 H93        25.4469  -30.3362  -44.4843 H         1 UNK         0.0786 
     94 H94        25.0645  -31.0440  -42.9181 H         1 UNK         0.0786 
     95 H95        25.7165  -26.9981  -41.2000 H         1 UNK         0.3172 
     96 H96        26.0526  -26.5154  -39.0621 H         1 UNK         0.0595 
     97 H97        28.1366  -28.7602  -38.9836 H         1 UNK         0.0839 
     98 H98        28.0030  -27.4131  -37.8663 H         1 UNK         0.0839 
     99 H99        28.4421  -27.1147  -39.5392 H         1 UNK         0.0839 
    100 H100       23.9206  -28.1646  -39.7064 H         1 UNK         0.2998 
    101 H101       22.1725  -29.1622  -38.8502 H         1 UNK         0.0822 
    102 H102       21.7437  -29.2621  -36.4385 H         1 UNK         0.0787 
    103 H103       22.4904  -27.7203  -36.8187 H         1 UNK         0.0787 
    104 H104       23.4399  -29.0034  -36.0679 H         1 UNK         0.0787 
    105 H105       24.6335  -30.6913  -39.7125 H         1 UNK         0.3055 
    106 H106       24.5271  -33.2299  -38.3133 H         1 UNK         0.1106 
    107 H107       26.5777  -32.4474  -39.5086 H         1 UNK         0.0828 
    108 H108       26.0236  -33.9905  -40.1369 H         1 UNK         0.0828 
    109 H109       25.7177  -32.5190  -41.0465 H         1 UNK         0.0828 
    110 H110       22.5010  -31.7747  -40.7223 H         1 UNK         0.2931 
    111 H111       21.5925  -34.1790  -41.9796 H         1 UNK         0.0412 
    112 H112       19.4556  -34.1177  -38.5619 H         1 UNK         0.3472 
    113 H113       20.8906  -33.1390  -38.7526 H         1 UNK         0.3472 
    114 H114       21.4236  -31.9916  -43.0918 H         1 UNK         0.0970 
    115 H115       19.9070  -32.8371  -43.0526 H         1 UNK         0.0970 
    116 H116       17.8380  -32.0918  -42.0707 H         1 UNK         0.0612 
    117 H117       17.5284  -30.5273  -41.3705 H         1 UNK         0.0612 
@<TRIPOS>BOND
     1    1    2 1    
     2    1   62 1    
     3    1   63 1    
     4    1   64 1    
     5    2    3 2    
     6    2    4 am   BACKBONE|DICT|INTERRES
     7    4    5 1    
     8    4   65 1    
     9    5    6 1    
    10    5   25 1    
    11    5   66 1    
    12    6    7 1    
    13    6   67 1    
    14    6   68 1    
    15    7    8 1    
    16    8    9 1    
    17    8   69 1    
    18    8   70 1    
    19    9   10 ar   
    20    9   14 ar   
    21   10   11 ar   
    22   10   71 1    
    23   11   12 ar   
    24   11   61 1    
    25   12   13 ar   
    26   12   72 1    
    27   13   14 ar   
    28   13   15 1    
    29   14   73 1    
    30   15   16 1    
    31   15   74 1    
    32   15   75 1    
    33   16   17 1    
    34   17   18 1    
    35   17   76 1    
    36   17   77 1    
    37   18   19 1    
    38   18   27 1    
    39   18   78 1    
    40   19   20 am   BACKBONE|DICT|INTERRES
    41   19   79 1    
    42   20   21 2    
    43   20   22 1    
    44   22   23 1    
    45   22   24 1    
    46   22   80 1    
    47   23   81 1    
    48   23   82 1    
    49   23   83 1    
    50   24   25 am   BACKBONE|DICT|INTERRES
    51   24   84 1    
    52   25   26 2    
    53   27   28 2    
    54   27   29 am   BACKBONE|DICT|INTERRES
    55   29   30 1    
    56   29   85 1    
    57   30   31 1    
    58   30   32 1    
    59   30   86 1    
    60   31   87 1    
    61   31   88 1    
    62   31   89 1    
    63   32   33 2    
    64   32   34 am   BACKBONE|DICT|INTERRES
    65   34   35 1    
    66   34   90 1    
    67   35   36 1    
    68   35   37 1    
    69   35   91 1    
    70   36   92 1    
    71   36   93 1    
    72   36   94 1    
    73   37   38 2    
    74   37   39 am   BACKBONE|DICT|INTERRES
    75   39   40 1    
    76   39   95 1    
    77   40   41 1    
    78   40   42 1    
    79   40   96 1    
    80   41   97 1    
    81   41   98 1    
    82   41   99 1    
    83   42   43 2    
    84   42   44 am   BACKBONE|DICT|INTERRES
    85   44   45 1    
    86   44  100 1    
    87   45   46 1    
    88   45   47 1    
    89   45  101 1    
    90   46  102 1    
    91   46  103 1    
    92   46  104 1    
    93   47   48 2    
    94   47   49 am   BACKBONE|DICT|INTERRES
    95   49   50 1    
    96   49  105 1    
    97   50   51 1    
    98   50   52 1    
    99   50  106 1    
   100   51  107 1    
   101   51  108 1    
   102   51  109 1    
   103   52   53 2    
   104   52   54 am   BACKBONE|DICT|INTERRES
   105   54   55 1    
   106   54  110 1    
   107   55   56 1    
   108   55   59 1    
   109   55  111 1    
   110   56   57 am   BACKBONE|DICT|INTERRES
   111   56   58 2    
   112   57  112 1    
   113   57  113 1    
   114   59   60 1    
   115   59  114 1    
   116   59  115 1    
   117   60   61 1    
   118   61  116 1    
   119   61  117 1    
@<TRIPOS>SUBSTRUCTURE
     1 UNK         1 GROUP             0       ****    0 ROOT    
