@<TRIPOS>MOLECULE
3R8
117   119    1
SMALL
USER_CHARGES


@<TRIPOS>ATOM
      1 CA         24.6687  -29.2833  -46.6134 C.3       0 UNK        -0.2013 
      2 C          23.3458  -29.0058  -45.9182 C.2       0 UNK         0.4866 
      3 O          23.2829  -29.0598  -44.6883 O.2       0 UNK        -0.5176 
      4 N          22.2879  -28.7189  -46.6869 N.am      1 UNK        -0.4884 
      5 CA         20.9400  -28.4066  -46.1973 C.3       1 UNK         0.0853 
      6 C6         19.8417  -28.8340  -47.2048 C.3       10 UNK        -0.0849 
      7 S7         19.6283  -30.6418  -47.2450 S.3       10 UNK        -0.2776 
      8 C8         17.8553  -30.8081  -46.8475 C.3       10 UNK         0.0316 
      9 C9         17.5300  -30.4950  -45.3898 C.ar      10 UNK        -0.0863 
     10 C10        17.9445  -31.3703  -44.3828 C.ar      10 UNK        -0.1009 
     11 C11        17.5730  -31.1524  -43.0536 C.ar      10 UNK        -0.0712 
     12 C12        16.7809  -30.0458  -42.7313 C.ar      10 UNK        -0.0894 
     13 C13        16.3702  -29.1469  -43.7239 C.ar      10 UNK        -0.0745 
     14 C14        16.7547  -29.3784  -45.0515 C.ar      10 UNK        -0.0972 
     15 C15        15.4362  -27.9798  -43.3956 C.3       10 UNK         0.0209 
     16 S16        15.8404  -27.0818  -41.8533 S.3       10 UNK        -0.2568 
     17 C17        17.2445  -26.0385  -42.3659 C.3       10 UNK        -0.0983 
     18 CA         18.6030  -26.6774  -41.9811 C.3       3 UNK         0.0876 
     19 N          19.6675  -26.3144  -42.9196 N.am      3 UNK        -0.4424 
     20 C          20.4866  -25.2527  -42.9535 C.2       2 UNK         0.4918 
     21 O          20.4976  -24.3571  -42.1089 O.2       2 UNK        -0.4875 
     22 CA         21.4760  -25.1961  -44.1409 C.3       2 UNK         0.0481 
     23 CB         22.8675  -24.6848  -43.7311 C.3       2 UNK        -0.1831 
     24 N          21.6083  -26.4962  -44.8152 N.am      2 UNK        -0.4498 
     25 C          20.8318  -26.9138  -45.8233 C.2       1 UNK         0.5027 
     26 O          20.0338  -26.1809  -46.4094 O.2       1 UNK        -0.4969 
     27 C          19.0057  -26.5296  -40.4975 C.2       3 UNK         0.5005 
     28 O          19.5418  -27.4782  -39.9238 O.2       3 UNK        -0.5279 
     29 N          18.7933  -25.3436  -39.9098 N.am      4 UNK        -0.4463 
     30 CA         19.1749  -25.0051  -38.5339 C.3       4 UNK         0.0283 
     31 CB         18.6287  -23.6106  -38.1880 C.3       4 UNK        -0.1875 
     32 C          20.6919  -25.0680  -38.2640 C.2       4 UNK         0.4949 
     33 O          21.0848  -25.2754  -37.1159 O.2       4 UNK        -0.5039 
     34 N          21.5083  -24.9010  -39.3126 N.am      5 UNK        -0.4663 
     35 CA         22.9705  -24.9852  -39.2697 C.3       5 UNK         0.0242 
     36 CB         23.5493  -23.5889  -39.5678 C.3       5 UNK        -0.1982 
     37 C          23.5002  -26.0525  -40.2465 C.2       5 UNK         0.5017 
     38 O          24.6240  -25.9197  -40.7339 O.2       5 UNK        -0.5012 
     39 N          22.6767  -27.0646  -40.5574 N.am      6 UNK        -0.4439 
     40 CA         22.9612  -28.1042  -41.5494 C.3       6 UNK         0.0297 
     41 CB         21.7185  -28.9810  -41.7346 C.3       6 UNK        -0.2006 
     42 C          24.1411  -29.0230  -41.2078 C.2       6 UNK         0.4892 
     43 O          24.4279  -29.2698  -40.0341 O.2       6 UNK        -0.5089 
     44 N          24.7179  -29.5867  -42.2731 N.am      7 UNK        -0.4243 
     45 CA         25.6212  -30.7352  -42.2389 C.3       7 UNK         0.0196 
     46 CB         26.8541  -30.4273  -43.1041 C.3       7 UNK        -0.2007 
     47 C          24.9188  -32.0067  -42.7495 C.2       7 UNK         0.5020 
     48 O          25.3256  -33.1058  -42.3736 O.2       7 UNK        -0.5147 
     49 N          23.8883  -31.8521  -43.5974 N.am      8 UNK        -0.4734 
     50 CA         23.1894  -32.9543  -44.2703 C.3       8 UNK         0.0238 
     51 CB         22.3318  -32.3860  -45.4125 C.3       8 UNK        -0.1912 
     52 C          22.3198  -33.8321  -43.3543 C.2       8 UNK         0.5038 
     53 O          22.0441  -34.9758  -43.7199 O.2       8 UNK        -0.5046 
     54 N          21.8830  -33.2910  -42.2100 N.am      9 UNK        -0.4200 
     55 CA         20.9728  -33.9674  -41.2680 C.3       9 UNK         0.0839 
     56 C          21.6290  -35.1036  -40.4296 C.2       9 UNK         0.5513 
     57 N          22.9470  -35.2665  -40.4419 N.am      9 UNK        -0.7519 
     58 O          20.9255  -35.8533  -39.7575 O.2       9 UNK        -0.4960 
     59 C59        20.2067  -32.9746  -40.3493 C.3       10 UNK        -0.0876 
     60 S60        19.5592  -31.5073  -41.2163 S.3       10 UNK        -0.2414 
     61 C61        18.0293  -32.1170  -41.9703 C.3       10 UNK         0.0169 
     62 H62        25.0113  -30.2908  -46.3777 H         1 UNK         0.0903 
     63 H63        24.5864  -29.1967  -47.6970 H         1 UNK         0.0903 
     64 H64        25.4254  -28.5771  -46.2717 H         1 UNK         0.0903 
     65 H65        22.4024  -28.6820  -47.6900 H         1 UNK         0.3096 
     66 H66        20.7633  -28.9630  -45.2729 H         1 UNK         0.1121 
     67 H67        18.8795  -28.3880  -46.9464 H         1 UNK         0.0849 
     68 H68        20.0737  -28.4784  -48.2102 H         1 UNK         0.0849 
     69 H69        17.2727  -30.1785  -47.5220 H         1 UNK         0.0865 
     70 H70        17.5491  -31.8333  -47.0607 H         1 UNK         0.0865 
     71 H71        18.5466  -32.2320  -44.6382 H         1 UNK         0.1346 
     72 H72        16.4802  -29.8899  -41.7043 H         1 UNK         0.1412 
     73 H73        16.4152  -28.7088  -45.8302 H         1 UNK         0.1426 
     74 H74        14.4264  -28.3801  -43.2973 H         1 UNK         0.0716 
     75 H75        15.3978  -27.2684  -44.2220 H         1 UNK         0.0716 
     76 H76        17.1860  -25.9072  -43.4476 H         1 UNK         0.0695 
     77 H77        17.1248  -25.0369  -41.9516 H         1 UNK         0.0695 
     78 H78        18.4975  -27.7534  -42.1313 H         1 UNK         0.0983 
     79 H79        19.7811  -26.9690  -43.6767 H         1 UNK         0.3095 
     80 H80        21.0651  -24.4656  -44.8404 H         1 UNK         0.0454 
     81 H81        22.8043  -23.7226  -43.2212 H         1 UNK         0.0851 
     82 H82        23.3781  -25.3747  -43.0641 H         1 UNK         0.0851 
     83 H83        23.5035  -24.5410  -44.6044 H         1 UNK         0.0851 
     84 H84        22.2690  -27.1588  -44.4252 H         1 UNK         0.2976 
     85 H85        18.4094  -24.5962  -40.4703 H         1 UNK         0.3116 
     86 H86        18.6982  -25.7323  -37.8732 H         1 UNK         0.0646 
     87 H87        18.8699  -23.3414  -37.1586 H         1 UNK         0.0847 
     88 H88        17.5435  -23.5724  -38.2841 H         1 UNK         0.0847 
     89 H89        19.0525  -22.8398  -38.8332 H         1 UNK         0.0847 
     90 H90        21.0955  -24.7249  -40.2250 H         1 UNK         0.3040 
     91 H91        23.3086  -25.2896  -38.2769 H         1 UNK         0.1015 
     92 H92        23.1740  -22.8470  -38.8628 H         1 UNK         0.0786 
     93 H93        23.2919  -23.2553  -40.5740 H         1 UNK         0.0786 
     94 H94        24.6372  -23.5856  -39.4880 H         1 UNK         0.0786 
     95 H95        21.7806  -27.1207  -40.0881 H         1 UNK         0.3172 
     96 H96        23.1820  -27.6047  -42.4924 H         1 UNK         0.0595 
     97 H97        21.3984  -29.3972  -40.7795 H         1 UNK         0.0839 
     98 H98        21.9038  -29.8163  -42.4107 H         1 UNK         0.0839 
     99 H99        20.8848  -28.4312  -42.1530 H         1 UNK         0.0839 
    100 H100       24.3730  -29.3102  -43.1893 H         1 UNK         0.2998 
    101 H101       25.9543  -30.9281  -41.2168 H         1 UNK         0.0822 
    102 H102       26.5826  -30.2350  -44.1428 H         1 UNK         0.0787 
    103 H103       27.3894  -29.5540  -42.7310 H         1 UNK         0.0787 
    104 H104       27.5544  -31.2638  -43.0980 H         1 UNK         0.0787 
    105 H105       23.6112  -30.9158  -43.8679 H         1 UNK         0.3055 
    106 H106       23.9443  -33.6117  -44.7078 H         1 UNK         0.1106 
    107 H107       21.6203  -31.6422  -45.0514 H         1 UNK         0.0828 
    108 H108       22.9489  -31.9215  -46.1803 H         1 UNK         0.0828 
    109 H109       21.7563  -33.1714  -45.9049 H         1 UNK         0.0828 
    110 H110       22.1507  -32.3464  -41.9813 H         1 UNK         0.2931 
    111 H111       20.2157  -34.4633  -41.8786 H         1 UNK         0.0412 
    112 H112       23.5325  -34.6618  -40.9986 H         1 UNK         0.3472 
    113 H113       23.3593  -36.0080  -39.8975 H         1 UNK         0.3472 
    114 H114       19.3804  -33.4790  -39.8447 H         1 UNK         0.0970 
    115 H115       20.8655  -32.6129  -39.5574 H         1 UNK         0.0970 
    116 H116       17.2608  -32.2265  -41.2036 H         1 UNK         0.0612 
    117 H117       18.1960  -33.1083  -42.3945 H         1 UNK         0.0612 
@<TRIPOS>BOND
     1    1    2 1    
     2    1   62 1    
     3    1   63 1    
     4    1   64 1    
     5    2    3 2    
     6    2    4 am   BACKBONE|DICT|INTERRES
     7    4    5 1    
     8    4   65 1    
     9    5    6 1    
    10    5   25 1    
    11    5   66 1    
    12    6    7 1    
    13    6   67 1    
    14    6   68 1    
    15    7    8 1    
    16    8    9 1    
    17    8   69 1    
    18    8   70 1    
    19    9   10 ar   
    20    9   14 ar   
    21   10   11 ar   
    22   10   71 1    
    23   11   12 ar   
    24   11   61 1    
    25   12   13 ar   
    26   12   72 1    
    27   13   14 ar   
    28   13   15 1    
    29   14   73 1    
    30   15   16 1    
    31   15   74 1    
    32   15   75 1    
    33   16   17 1    
    34   17   18 1    
    35   17   76 1    
    36   17   77 1    
    37   18   19 1    
    38   18   27 1    
    39   18   78 1    
    40   19   20 am   BACKBONE|DICT|INTERRES
    41   19   79 1    
    42   20   21 2    
    43   20   22 1    
    44   22   23 1    
    45   22   24 1    
    46   22   80 1    
    47   23   81 1    
    48   23   82 1    
    49   23   83 1    
    50   24   25 am   BACKBONE|DICT|INTERRES
    51   24   84 1    
    52   25   26 2    
    53   27   28 2    
    54   27   29 am   BACKBONE|DICT|INTERRES
    55   29   30 1    
    56   29   85 1    
    57   30   31 1    
    58   30   32 1    
    59   30   86 1    
    60   31   87 1    
    61   31   88 1    
    62   31   89 1    
    63   32   33 2    
    64   32   34 am   BACKBONE|DICT|INTERRES
    65   34   35 1    
    66   34   90 1    
    67   35   36 1    
    68   35   37 1    
    69   35   91 1    
    70   36   92 1    
    71   36   93 1    
    72   36   94 1    
    73   37   38 2    
    74   37   39 am   BACKBONE|DICT|INTERRES
    75   39   40 1    
    76   39   95 1    
    77   40   41 1    
    78   40   42 1    
    79   40   96 1    
    80   41   97 1    
    81   41   98 1    
    82   41   99 1    
    83   42   43 2    
    84   42   44 am   BACKBONE|DICT|INTERRES
    85   44   45 1    
    86   44  100 1    
    87   45   46 1    
    88   45   47 1    
    89   45  101 1    
    90   46  102 1    
    91   46  103 1    
    92   46  104 1    
    93   47   48 2    
    94   47   49 am   BACKBONE|DICT|INTERRES
    95   49   50 1    
    96   49  105 1    
    97   50   51 1    
    98   50   52 1    
    99   50  106 1    
   100   51  107 1    
   101   51  108 1    
   102   51  109 1    
   103   52   53 2    
   104   52   54 am   BACKBONE|DICT|INTERRES
   105   54   55 1    
   106   54  110 1    
   107   55   56 1    
   108   55   59 1    
   109   55  111 1    
   110   56   57 am   BACKBONE|DICT|INTERRES
   111   56   58 2    
   112   57  112 1    
   113   57  113 1    
   114   59   60 1    
   115   59  114 1    
   116   59  115 1    
   117   60   61 1    
   118   61  116 1    
   119   61  117 1    
@<TRIPOS>SUBSTRUCTURE
     1 UNK         1 GROUP             0       ****    0 ROOT    
