@<TRIPOS>MOLECULE
3R8
117   119    1
SMALL
USER_CHARGES


@<TRIPOS>ATOM
      1 CA         18.6457  -26.0147  -49.9533 C.3       0 UNK        -0.2013 
      2 C          19.4454  -26.4271  -48.7265 C.2       0 UNK         0.4866 
      3 O          20.6351  -26.1225  -48.6409 O.2       0 UNK        -0.5176 
      4 N          18.8015  -27.1195  -47.7778 N.am      1 UNK        -0.4884 
      5 CA         19.4132  -27.6107  -46.5361 C.3       1 UNK         0.0853 
      6 C6         18.4721  -28.5749  -45.7743 C.3       10 UNK        -0.0849 
      7 S7         18.0409  -30.0924  -46.6818 S.3       10 UNK        -0.2776 
      8 C8         16.5796  -30.6540  -45.7337 C.3       10 UNK         0.0316 
      9 C9         16.7875  -30.5912  -44.2219 C.ar      10 UNK        -0.0863 
     10 C10        17.8412  -31.2914  -43.6265 C.ar      10 UNK        -0.1009 
     11 C11        18.0737  -31.1891  -42.2530 C.ar      10 UNK        -0.0712 
     12 C12        17.2092  -30.4292  -41.4625 C.ar      10 UNK        -0.0894 
     13 C13        16.1503  -29.7222  -42.0406 C.ar      10 UNK        -0.0745 
     14 C14        15.9466  -29.8066  -43.4227 C.ar      10 UNK        -0.0972 
     15 C15        15.2189  -28.8819  -41.1719 C.3       10 UNK         0.0209 
     16 S16        16.1086  -27.7530  -40.0445 S.3       10 UNK        -0.2568 
     17 C17        16.7461  -26.4822  -41.1869 C.3       10 UNK        -0.0983 
     18 CA         18.2169  -26.7308  -41.6149 C.3       3 UNK         0.0876 
     19 N          18.6112  -26.0206  -42.8315 N.am      3 UNK        -0.4424 
     20 C          18.4411  -24.7356  -43.1712 C.2       2 UNK         0.4918 
     21 O          17.8620  -23.9022  -42.4747 O.2       2 UNK        -0.4875 
     22 CA         18.9589  -24.3040  -44.5648 C.3       2 UNK         0.0481 
     23 CB         20.3006  -23.5549  -44.4558 C.3       2 UNK        -0.1831 
     24 N          19.0193  -25.3886  -45.5627 N.am      2 UNK        -0.4498 
     25 C          19.7967  -26.4837  -45.5585 C.2       1 UNK         0.5027 
     26 O          20.6855  -26.6822  -44.7309 O.2       1 UNK        -0.4969 
     27 C          19.2446  -26.4865  -40.4923 C.2       3 UNK         0.5005 
     28 O          19.4953  -25.3379  -40.1214 O.2       3 UNK        -0.5279 
     29 N          19.8318  -27.5843  -39.9886 N.am      4 UNK        -0.4463 
     30 CA         20.8660  -27.6457  -38.9450 C.3       4 UNK         0.0283 
     31 CB         20.3122  -27.1565  -37.5899 C.3       4 UNK        -0.1875 
     32 C          22.1893  -26.9541  -39.3367 C.2       4 UNK         0.4949 
     33 O          22.9054  -26.4583  -38.4657 O.2       4 UNK        -0.5039 
     34 N          22.5026  -26.9444  -40.6405 N.am      5 UNK        -0.4663 
     35 CA         23.7186  -26.3472  -41.2064 C.3       5 UNK         0.0242 
     36 CB         23.5147  -26.1552  -42.7178 C.3       5 UNK        -0.1982 
     37 C          24.9936  -27.1699  -40.9418 C.2       5 UNK         0.5017 
     38 O          26.0947  -26.6242  -41.0187 O.2       5 UNK        -0.5012 
     39 N          24.8181  -28.4610  -40.6501 N.am      6 UNK        -0.4439 
     40 CA         25.8309  -29.4750  -40.3810 C.3       6 UNK         0.0297 
     41 CB         26.6017  -29.8188  -41.6728 C.3       6 UNK        -0.2006 
     42 C          25.0904  -30.7011  -39.8301 C.2       6 UNK         0.4892 
     43 O          23.8564  -30.7013  -39.8139 O.2       6 UNK        -0.5089 
     44 N          25.8351  -31.7438  -39.4382 N.am      7 UNK        -0.4243 
     45 CA         25.2889  -33.0154  -38.9400 C.3       7 UNK         0.0196 
     46 CB         26.4432  -33.9282  -38.4951 C.3       7 UNK        -0.2007 
     47 C          24.3802  -33.7479  -39.9482 C.2       7 UNK         0.5020 
     48 O          23.4129  -34.3877  -39.5357 O.2       7 UNK        -0.5147 
     49 N          24.6954  -33.6180  -41.2437 N.am      8 UNK        -0.4734 
     50 CA         23.8892  -34.1179  -42.3639 C.3       8 UNK         0.0238 
     51 CB         24.8126  -34.8892  -43.3241 C.3       8 UNK        -0.1912 
     52 C          23.1510  -32.9867  -43.1086 C.2       8 UNK         0.5038 
     53 O          22.4818  -33.2669  -44.1035 O.2       8 UNK        -0.5046 
     54 N          23.3003  -31.7395  -42.6385 N.am      9 UNK        -0.4200 
     55 CA         22.7512  -30.5009  -43.2212 C.3       9 UNK         0.0839 
     56 C          23.2702  -30.1608  -44.6526 C.2       9 UNK         0.5513 
     57 N          24.4179  -30.6782  -45.0747 N.am      9 UNK        -0.7519 
     58 O          22.6436  -29.3998  -45.3842 O.2       9 UNK        -0.4960 
     59 C59        21.2058  -30.4042  -43.1015 C.3       10 UNK        -0.0876 
     60 S60        20.6199  -30.6382  -41.3869 S.3       10 UNK        -0.2414 
     61 C61        19.2856  -31.8533  -41.6219 C.3       10 UNK         0.0169 
     62 H62        19.0931  -26.4383  -50.8521 H         1 UNK         0.0903 
     63 H63        17.6108  -26.3521  -49.8990 H         1 UNK         0.0903 
     64 H64        18.6438  -24.9295  -50.0526 H         1 UNK         0.0903 
     65 H65        17.8334  -27.3737  -47.9176 H         1 UNK         0.3096 
     66 H66        20.3326  -28.1436  -46.7917 H         1 UNK         0.1121 
     67 H67        18.9349  -28.8918  -44.8375 H         1 UNK         0.0849 
     68 H68        17.5472  -28.0637  -45.4975 H         1 UNK         0.0849 
     69 H69        15.7211  -30.0487  -46.0290 H         1 UNK         0.0865 
     70 H70        16.3425  -31.6795  -46.0200 H         1 UNK         0.0865 
     71 H71        18.5043  -31.8824  -44.2435 H         1 UNK         0.1346 
     72 H72        17.3811  -30.3627  -40.3967 H         1 UNK         0.1412 
     73 H73        15.1318  -29.2593  -43.8772 H         1 UNK         0.1426 
     74 H74        14.6070  -29.5574  -40.5727 H         1 UNK         0.0716 
     75 H75        14.5253  -28.3032  -41.7839 H         1 UNK         0.0716 
     76 H76        16.6409  -25.5069  -40.7086 H         1 UNK         0.0695 
     77 H77        16.1008  -26.4545  -42.0662 H         1 UNK         0.0695 
     78 H78        18.2898  -27.7807  -41.9019 H         1 UNK         0.0983 
     79 H79        19.2060  -26.5500  -43.4583 H         1 UNK         0.3095 
     80 H80        18.2254  -23.5966  -44.9549 H         1 UNK         0.0454 
     81 H81        21.0880  -24.1816  -44.0402 H         1 UNK         0.0851 
     82 H82        20.2065  -22.6846  -43.8051 H         1 UNK         0.0851 
     83 H83        20.6353  -23.1973  -45.4293 H         1 UNK         0.0851 
     84 H84        18.3020  -25.3514  -46.2740 H         1 UNK         0.2976 
     85 H85        19.5660  -28.4842  -40.3679 H         1 UNK         0.3116 
     86 H86        21.1114  -28.7028  -38.8311 H         1 UNK         0.0646 
     87 H87        20.1096  -26.0852  -37.5978 H         1 UNK         0.0847 
     88 H88        21.0234  -27.3453  -36.7848 H         1 UNK         0.0847 
     89 H89        19.3874  -27.6711  -37.3296 H         1 UNK         0.0847 
     90 H90        21.8535  -27.3624  -41.2906 H         1 UNK         0.3040 
     91 H91        23.8647  -25.3654  -40.7502 H         1 UNK         0.1015 
     92 H92        23.3490  -27.1034  -43.2312 H         1 UNK         0.0786 
     93 H93        24.3863  -25.6845  -43.1749 H         1 UNK         0.0786 
     94 H94        22.6585  -25.5134  -42.9209 H         1 UNK         0.0786 
     95 H95        23.8737  -28.8117  -40.5338 H         1 UNK         0.3172 
     96 H96        26.5166  -29.1049  -39.6166 H         1 UNK         0.0595 
     97 H97        27.3564  -30.5860  -41.4970 H         1 UNK         0.0839 
     98 H98        27.1265  -28.9490  -42.0678 H         1 UNK         0.0839 
     99 H99        25.9367  -30.1846  -42.4552 H         1 UNK         0.0839 
    100 H100       26.8418  -31.6673  -39.4779 H         1 UNK         0.2998 
    101 H101       24.6781  -32.7866  -38.0639 H         1 UNK         0.0822 
    102 H102       26.0639  -34.8715  -38.0990 H         1 UNK         0.0787 
    103 H103       27.1118  -34.1681  -39.3229 H         1 UNK         0.0787 
    104 H104       27.0360  -33.4640  -37.7067 H         1 UNK         0.0787 
    105 H105       25.5291  -33.0991  -41.4804 H         1 UNK         0.3055 
    106 H106       23.1221  -34.8067  -42.0026 H         1 UNK         0.1106 
    107 H107       24.2478  -35.3203  -44.1520 H         1 UNK         0.0828 
    108 H108       25.5803  -34.2450  -43.7540 H         1 UNK         0.0828 
    109 H109       25.3127  -35.7133  -42.8149 H         1 UNK         0.0828 
    110 H110       23.7715  -31.6229  -41.7518 H         1 UNK         0.2931 
    111 H111       23.1564  -29.7017  -42.6012 H         1 UNK         0.0412 
    112 H112       24.9425  -31.3118  -44.4951 H         1 UNK         0.3472 
    113 H113       24.7490  -30.4469  -45.9981 H         1 UNK         0.3472 
    114 H114       20.7387  -31.1334  -43.7640 H         1 UNK         0.0970 
    115 H115       20.8580  -29.4253  -43.4354 H         1 UNK         0.0970 
    116 H116       19.6429  -32.6858  -42.2305 H         1 UNK         0.0612 
    117 H117       19.0130  -32.2733  -40.6527 H         1 UNK         0.0612 
@<TRIPOS>BOND
     1    1    2 1    
     2    1   62 1    
     3    1   63 1    
     4    1   64 1    
     5    2    3 2    
     6    2    4 am   BACKBONE|DICT|INTERRES
     7    4    5 1    
     8    4   65 1    
     9    5    6 1    
    10    5   25 1    
    11    5   66 1    
    12    6    7 1    
    13    6   67 1    
    14    6   68 1    
    15    7    8 1    
    16    8    9 1    
    17    8   69 1    
    18    8   70 1    
    19    9   10 ar   
    20    9   14 ar   
    21   10   11 ar   
    22   10   71 1    
    23   11   12 ar   
    24   11   61 1    
    25   12   13 ar   
    26   12   72 1    
    27   13   14 ar   
    28   13   15 1    
    29   14   73 1    
    30   15   16 1    
    31   15   74 1    
    32   15   75 1    
    33   16   17 1    
    34   17   18 1    
    35   17   76 1    
    36   17   77 1    
    37   18   19 1    
    38   18   27 1    
    39   18   78 1    
    40   19   20 am   BACKBONE|DICT|INTERRES
    41   19   79 1    
    42   20   21 2    
    43   20   22 1    
    44   22   23 1    
    45   22   24 1    
    46   22   80 1    
    47   23   81 1    
    48   23   82 1    
    49   23   83 1    
    50   24   25 am   BACKBONE|DICT|INTERRES
    51   24   84 1    
    52   25   26 2    
    53   27   28 2    
    54   27   29 am   BACKBONE|DICT|INTERRES
    55   29   30 1    
    56   29   85 1    
    57   30   31 1    
    58   30   32 1    
    59   30   86 1    
    60   31   87 1    
    61   31   88 1    
    62   31   89 1    
    63   32   33 2    
    64   32   34 am   BACKBONE|DICT|INTERRES
    65   34   35 1    
    66   34   90 1    
    67   35   36 1    
    68   35   37 1    
    69   35   91 1    
    70   36   92 1    
    71   36   93 1    
    72   36   94 1    
    73   37   38 2    
    74   37   39 am   BACKBONE|DICT|INTERRES
    75   39   40 1    
    76   39   95 1    
    77   40   41 1    
    78   40   42 1    
    79   40   96 1    
    80   41   97 1    
    81   41   98 1    
    82   41   99 1    
    83   42   43 2    
    84   42   44 am   BACKBONE|DICT|INTERRES
    85   44   45 1    
    86   44  100 1    
    87   45   46 1    
    88   45   47 1    
    89   45  101 1    
    90   46  102 1    
    91   46  103 1    
    92   46  104 1    
    93   47   48 2    
    94   47   49 am   BACKBONE|DICT|INTERRES
    95   49   50 1    
    96   49  105 1    
    97   50   51 1    
    98   50   52 1    
    99   50  106 1    
   100   51  107 1    
   101   51  108 1    
   102   51  109 1    
   103   52   53 2    
   104   52   54 am   BACKBONE|DICT|INTERRES
   105   54   55 1    
   106   54  110 1    
   107   55   56 1    
   108   55   59 1    
   109   55  111 1    
   110   56   57 am   BACKBONE|DICT|INTERRES
   111   56   58 2    
   112   57  112 1    
   113   57  113 1    
   114   59   60 1    
   115   59  114 1    
   116   59  115 1    
   117   60   61 1    
   118   61  116 1    
   119   61  117 1    
@<TRIPOS>SUBSTRUCTURE
     1 UNK         1 GROUP             0       ****    0 ROOT    
