@<TRIPOS>MOLECULE
3R8
117   119    1
SMALL
USER_CHARGES


@<TRIPOS>ATOM
      1 CA         19.1936  -23.0285  -46.9771 C.3       0 UNK        -0.2013 
      2 C          18.6680  -24.2377  -46.2181 C.2       0 UNK         0.4866 
      3 O          18.9574  -24.3838  -45.0328 O.2       0 UNK        -0.5176 
      4 N          17.9047  -25.1029  -46.8972 N.am      1 UNK        -0.4884 
      5 CA         17.2709  -26.3049  -46.3443 C.3       1 UNK         0.0853 
      6 C6         16.7402  -27.1817  -47.5105 C.3       10 UNK        -0.0849 
      7 S7         15.9373  -28.7495  -47.0249 S.3       10 UNK        -0.2776 
      8 C8         17.2208  -29.9794  -47.4149 C.3       10 UNK         0.0316 
      9 C9         18.2689  -30.0412  -46.3168 C.ar      10 UNK        -0.0863 
     10 C10        18.0036  -30.7585  -45.1474 C.ar      10 UNK        -0.1009 
     11 C11        18.9436  -30.8040  -44.1160 C.ar      10 UNK        -0.0712 
     12 C12        20.1641  -30.1387  -44.2666 C.ar      10 UNK        -0.0894 
     13 C13        20.4476  -29.4325  -45.4397 C.ar      10 UNK        -0.0745 
     14 C14        19.4936  -29.3833  -46.4606 C.ar      10 UNK        -0.0972 
     15 C15        21.7874  -28.7352  -45.6185 C.3       10 UNK         0.0209 
     16 S16        21.7041  -26.9779  -45.1563 S.3       10 UNK        -0.2568 
     17 C17        21.7877  -27.0691  -43.3368 C.3       10 UNK        -0.0983 
     18 CA         20.5335  -26.4975  -42.6352 C.3       3 UNK         0.0876 
     19 N          19.3089  -27.1728  -43.0709 N.am      3 UNK        -0.4424 
     20 C          18.0729  -26.7114  -42.8591 C.2       2 UNK         0.4918 
     21 O          17.8078  -25.7151  -42.1818 O.2       2 UNK        -0.4875 
     22 CA         16.9324  -27.4862  -43.5360 C.3       2 UNK         0.0481 
     23 CB         16.1728  -28.3356  -42.5057 C.3       2 UNK        -0.1831 
     24 N          16.0043  -26.5482  -44.1725 N.am      2 UNK        -0.4498 
     25 C          16.1437  -25.9137  -45.3490 C.2       1 UNK         0.5027 
     26 O          15.3502  -25.0332  -45.6871 O.2       1 UNK        -0.4969 
     27 C          20.7304  -26.5504  -41.1068 C.2       3 UNK         0.5005 
     28 O          20.2001  -27.4381  -40.4342 O.2       3 UNK        -0.5279 
     29 N          21.5599  -25.6340  -40.5912 N.am      4 UNK        -0.4463 
     30 CA         22.0074  -25.5956  -39.1985 C.3       4 UNK         0.0283 
     31 CB         22.3759  -24.1461  -38.8308 C.3       4 UNK        -0.1875 
     32 C          23.1770  -26.5740  -38.9785 C.2       4 UNK         0.4949 
     33 O          24.3229  -26.1435  -38.8468 O.2       4 UNK        -0.5039 
     34 N          22.8620  -27.8768  -38.9825 N.am      5 UNK        -0.4663 
     35 CA         23.7511  -29.0258  -38.7391 C.3       5 UNK         0.0242 
     36 CB         24.3938  -28.9451  -37.3381 C.3       5 UNK        -0.1982 
     37 C          24.8002  -29.2948  -39.8386 C.2       5 UNK         0.5017 
     38 O          25.6592  -30.1568  -39.6448 O.2       5 UNK        -0.5012 
     39 N          24.7202  -28.5861  -40.9751 N.am      6 UNK        -0.4439 
     40 CA         25.6971  -28.6459  -42.0714 C.3       6 UNK         0.0297 
     41 CB         25.4370  -27.5049  -43.0669 C.3       6 UNK        -0.2006 
     42 C          25.7441  -29.9936  -42.8139 C.2       6 UNK         0.4892 
     43 O          26.7825  -30.3177  -43.3910 O.2       6 UNK        -0.5089 
     44 N          24.6415  -30.7521  -42.7782 N.am      7 UNK        -0.4243 
     45 CA         24.5348  -32.1054  -43.3282 C.3       7 UNK         0.0196 
     46 CB         23.5187  -32.1047  -44.4857 C.3       7 UNK        -0.2007 
     47 C          24.1521  -33.0855  -42.2083 C.2       7 UNK         0.5020 
     48 O          23.3332  -33.9787  -42.4271 O.2       7 UNK        -0.5147 
     49 N          24.7028  -32.8615  -41.0047 N.am      8 UNK        -0.4734 
     50 CA         24.3710  -33.4779  -39.7107 C.3       8 UNK         0.0238 
     51 CB         24.5111  -35.0133  -39.7265 C.3       8 UNK        -0.1912 
     52 C          22.9973  -33.0278  -39.1864 C.2       8 UNK         0.5038 
     53 O          22.9122  -32.5614  -38.0501 O.2       8 UNK        -0.5046 
     54 N          21.9663  -33.1198  -40.0337 N.am      9 UNK        -0.4200 
     55 CA         20.6881  -32.4245  -39.8654 C.3       9 UNK         0.0839 
     56 C          20.8246  -30.9020  -40.1524 C.2       9 UNK         0.5513 
     57 N          19.9304  -30.0930  -39.6045 N.am      9 UNK        -0.7519 
     58 O          21.7009  -30.4554  -40.8944 O.2       9 UNK        -0.4960 
     59 C59        19.5608  -33.0917  -40.7011 C.3       10 UNK        -0.0876 
     60 S60        19.7507  -32.9271  -42.5130 S.3       10 UNK        -0.2414 
     61 C61        18.6221  -31.5304  -42.8211 C.3       10 UNK         0.0169 
     62 H62        18.8345  -22.1101  -46.5134 H         1 UNK         0.0903 
     63 H63        20.2830  -23.0181  -46.9550 H         1 UNK         0.0903 
     64 H64        18.8757  -23.0293  -48.0196 H         1 UNK         0.0903 
     65 H65        17.6796  -24.8995  -47.8607 H         1 UNK         0.3096 
     66 H66        18.0623  -26.8532  -45.8354 H         1 UNK         0.1121 
     67 H67        17.5553  -27.4030  -48.2011 H         1 UNK         0.0849 
     68 H68        16.0110  -26.6175  -48.0956 H         1 UNK         0.0849 
     69 H69        16.7488  -30.9577  -47.5185 H         1 UNK         0.0865 
     70 H70        17.6752  -29.7626  -48.3828 H         1 UNK         0.0865 
     71 H71        17.0526  -31.2611  -45.0334 H         1 UNK         0.1346 
     72 H72        20.8913  -30.1785  -43.4667 H         1 UNK         0.1412 
     73 H73        19.7062  -28.8305  -47.3658 H         1 UNK         0.1426 
     74 H74        22.0983  -28.8066  -46.6618 H         1 UNK         0.0716 
     75 H75        22.5658  -29.2337  -45.0392 H         1 UNK         0.0716 
     76 H76        22.6671  -26.4966  -43.0395 H         1 UNK         0.0695 
     77 H77        21.9742  -28.0969  -43.0200 H         1 UNK         0.0695 
     78 H78        20.4347  -25.4463  -42.9167 H         1 UNK         0.0983 
     79 H79        19.4423  -28.0078  -43.6233 H         1 UNK         0.3095 
     80 H80        17.3368  -28.1696  -44.2809 H         1 UNK         0.0454 
     81 H81        15.3821  -28.9180  -42.9791 H         1 UNK         0.0851 
     82 H82        16.8432  -29.0409  -42.0132 H         1 UNK         0.0851 
     83 H83        15.7198  -27.7210  -41.7267 H         1 UNK         0.0851 
     84 H84        15.2497  -26.2398  -43.5778 H         1 UNK         0.2976 
     85 H85        21.9788  -24.9536  -41.2099 H         1 UNK         0.3116 
     86 H86        21.1877  -25.9031  -38.5450 H         1 UNK         0.0646 
     87 H87        21.5182  -23.4810  -38.9324 H         1 UNK         0.0847 
     88 H88        23.1784  -23.7566  -39.4587 H         1 UNK         0.0847 
     89 H89        22.7129  -24.0812  -37.7954 H         1 UNK         0.0847 
     90 H90        21.8966  -28.1134  -39.1860 H         1 UNK         0.3040 
     91 H91        23.1071  -29.9035  -38.7309 H         1 UNK         0.1015 
     92 H92        25.1288  -28.1426  -37.2718 H         1 UNK         0.0786 
     93 H93        24.9079  -29.8749  -37.0909 H         1 UNK         0.0786 
     94 H94        23.6428  -28.7800  -36.5656 H         1 UNK         0.0786 
     95 H95        23.9820  -27.9027  -41.0454 H         1 UNK         0.3172 
     96 H96        26.6824  -28.4845  -41.6287 H         1 UNK         0.0595 
     97 H97        24.5422  -27.6850  -43.6616 H         1 UNK         0.0839 
     98 H98        26.2672  -27.4130  -43.7685 H         1 UNK         0.0839 
     99 H99        25.3324  -26.5426  -42.5653 H         1 UNK         0.0839 
    100 H100       23.8439  -30.4229  -42.2477 H         1 UNK         0.2998 
    101 H101       25.4964  -32.4433  -43.7199 H         1 UNK         0.0822 
    102 H102       23.7993  -31.3913  -45.2604 H         1 UNK         0.0787 
    103 H103       23.4622  -33.0864  -44.9576 H         1 UNK         0.0787 
    104 H104       22.5161  -31.8536  -44.1393 H         1 UNK         0.0787 
    105 H105       25.3297  -32.0685  -40.9320 H         1 UNK         0.3055 
    106 H106       25.1116  -33.0921  -39.0073 H         1 UNK         0.1106 
    107 H107       23.7635  -35.4924  -40.3588 H         1 UNK         0.0828 
    108 H108       24.3884  -35.4208  -38.7223 H         1 UNK         0.0828 
    109 H109       25.4956  -35.3176  -40.0815 H         1 UNK         0.0828 
    110 H110       22.1581  -33.4802  -40.9638 H         1 UNK         0.2931 
    111 H111       20.4063  -32.5271  -38.8154 H         1 UNK         0.0412 
    112 H112       19.2045  -30.4379  -38.9973 H         1 UNK         0.3472 
    113 H113       19.9622  -29.1043  -39.8475 H         1 UNK         0.3472 
    114 H114       19.5157  -34.1558  -40.4648 H         1 UNK         0.0970 
    115 H115       18.5894  -32.6944  -40.4018 H         1 UNK         0.0970 
    116 H116       17.5967  -31.9033  -42.8237 H         1 UNK         0.0612 
    117 H117       18.6802  -30.8076  -42.0084 H         1 UNK         0.0612 
@<TRIPOS>BOND
     1    1    2 1    
     2    1   62 1    
     3    1   63 1    
     4    1   64 1    
     5    2    3 2    
     6    2    4 am   BACKBONE|DICT|INTERRES
     7    4    5 1    
     8    4   65 1    
     9    5    6 1    
    10    5   25 1    
    11    5   66 1    
    12    6    7 1    
    13    6   67 1    
    14    6   68 1    
    15    7    8 1    
    16    8    9 1    
    17    8   69 1    
    18    8   70 1    
    19    9   10 ar   
    20    9   14 ar   
    21   10   11 ar   
    22   10   71 1    
    23   11   12 ar   
    24   11   61 1    
    25   12   13 ar   
    26   12   72 1    
    27   13   14 ar   
    28   13   15 1    
    29   14   73 1    
    30   15   16 1    
    31   15   74 1    
    32   15   75 1    
    33   16   17 1    
    34   17   18 1    
    35   17   76 1    
    36   17   77 1    
    37   18   19 1    
    38   18   27 1    
    39   18   78 1    
    40   19   20 am   BACKBONE|DICT|INTERRES
    41   19   79 1    
    42   20   21 2    
    43   20   22 1    
    44   22   23 1    
    45   22   24 1    
    46   22   80 1    
    47   23   81 1    
    48   23   82 1    
    49   23   83 1    
    50   24   25 am   BACKBONE|DICT|INTERRES
    51   24   84 1    
    52   25   26 2    
    53   27   28 2    
    54   27   29 am   BACKBONE|DICT|INTERRES
    55   29   30 1    
    56   29   85 1    
    57   30   31 1    
    58   30   32 1    
    59   30   86 1    
    60   31   87 1    
    61   31   88 1    
    62   31   89 1    
    63   32   33 2    
    64   32   34 am   BACKBONE|DICT|INTERRES
    65   34   35 1    
    66   34   90 1    
    67   35   36 1    
    68   35   37 1    
    69   35   91 1    
    70   36   92 1    
    71   36   93 1    
    72   36   94 1    
    73   37   38 2    
    74   37   39 am   BACKBONE|DICT|INTERRES
    75   39   40 1    
    76   39   95 1    
    77   40   41 1    
    78   40   42 1    
    79   40   96 1    
    80   41   97 1    
    81   41   98 1    
    82   41   99 1    
    83   42   43 2    
    84   42   44 am   BACKBONE|DICT|INTERRES
    85   44   45 1    
    86   44  100 1    
    87   45   46 1    
    88   45   47 1    
    89   45  101 1    
    90   46  102 1    
    91   46  103 1    
    92   46  104 1    
    93   47   48 2    
    94   47   49 am   BACKBONE|DICT|INTERRES
    95   49   50 1    
    96   49  105 1    
    97   50   51 1    
    98   50   52 1    
    99   50  106 1    
   100   51  107 1    
   101   51  108 1    
   102   51  109 1    
   103   52   53 2    
   104   52   54 am   BACKBONE|DICT|INTERRES
   105   54   55 1    
   106   54  110 1    
   107   55   56 1    
   108   55   59 1    
   109   55  111 1    
   110   56   57 am   BACKBONE|DICT|INTERRES
   111   56   58 2    
   112   57  112 1    
   113   57  113 1    
   114   59   60 1    
   115   59  114 1    
   116   59  115 1    
   117   60   61 1    
   118   61  116 1    
   119   61  117 1    
@<TRIPOS>SUBSTRUCTURE
     1 UNK         1 GROUP             0       ****    0 ROOT    
