@<TRIPOS>MOLECULE
3R8
117   119    1
SMALL
USER_CHARGES


@<TRIPOS>ATOM
      1 CA         20.6461  -22.7083  -43.3333 C.3       0 UNK        -0.2013 
      2 C          19.2191  -22.7688  -43.8566 C.2       0 UNK         0.4866 
      3 O          18.8213  -21.9230  -44.6576 O.2       0 UNK        -0.5176 
      4 N          18.4457  -23.7669  -43.4116 N.am      1 UNK        -0.4884 
      5 CA         17.0578  -24.0260  -43.8242 C.3       1 UNK         0.0853 
      6 C6         16.3357  -24.9852  -42.8395 C.3       10 UNK        -0.0849 
      7 S7         17.3141  -26.4674  -42.4063 S.3       10 UNK        -0.2776 
      8 C8         16.4832  -27.7717  -43.3571 C.3       10 UNK         0.0316 
      9 C9         17.4067  -28.9680  -43.5183 C.ar      10 UNK        -0.0863 
     10 C10        17.4856  -29.9477  -42.5233 C.ar      10 UNK        -0.1009 
     11 C11        18.3559  -31.0328  -42.6693 C.ar      10 UNK        -0.0712 
     12 C12        19.1346  -31.1435  -43.8256 C.ar      10 UNK        -0.0894 
     13 C13        19.0650  -30.1677  -44.8236 C.ar      10 UNK        -0.0745 
     14 C14        18.2038  -29.0818  -44.6600 C.ar      10 UNK        -0.0972 
     15 C15        19.9299  -30.2804  -46.0687 C.3       10 UNK         0.0209 
     16 S16        21.6436  -29.8045  -45.6980 S.3       10 UNK        -0.2568 
     17 C17        21.9494  -28.4152  -46.8456 C.3       10 UNK        -0.0983 
     18 CA         21.6784  -26.9828  -46.2947 C.3       3 UNK         0.0876 
     19 N          20.2673  -26.6077  -46.3282 N.am      3 UNK        -0.4424 
     20 C          19.6183  -26.1350  -47.4001 C.2       2 UNK         0.4918 
     21 O          20.1090  -26.0959  -48.5286 O.2       2 UNK        -0.4875 
     22 CA         18.2038  -25.5697  -47.1859 C.3       2 UNK         0.0481 
     23 CB         17.1266  -26.5687  -47.6616 C.3       2 UNK        -0.1831 
     24 N          18.0071  -25.1396  -45.7968 N.am      2 UNK        -0.4498 
     25 C          16.9400  -24.5114  -45.2865 C.2       1 UNK         0.5027 
     26 O          15.9028  -24.2886  -45.9120 O.2       1 UNK        -0.4969 
     27 C          22.2236  -26.6703  -44.8844 C.2       3 UNK         0.5005 
     28 O          21.5876  -25.9110  -44.1442 O.2       3 UNK        -0.5279 
     29 N          23.3874  -27.2379  -44.5382 N.am      4 UNK        -0.4463 
     30 CA         24.0351  -27.1282  -43.2296 C.3       4 UNK         0.0283 
     31 CB         25.4890  -27.6210  -43.3459 C.3       4 UNK        -0.1875 
     32 C          23.2517  -27.8943  -42.1469 C.2       4 UNK         0.4949 
     33 O          23.5785  -29.0435  -41.8431 O.2       4 UNK        -0.5039 
     34 N          22.2172  -27.2376  -41.6074 N.am      5 UNK        -0.4663 
     35 CA         21.3074  -27.7355  -40.5728 C.3       5 UNK         0.0242 
     36 CB         20.3515  -26.6020  -40.1714 C.3       5 UNK        -0.1982 
     37 C          22.0418  -28.2679  -39.3307 C.2       5 UNK         0.5017 
     38 O          23.0343  -27.6728  -38.9039 O.2       5 UNK        -0.5012 
     39 N          21.5480  -29.3903  -38.7937 N.am      6 UNK        -0.4439 
     40 CA         22.0814  -30.1985  -37.6881 C.3       6 UNK         0.0297 
     41 CB         22.2078  -29.3857  -36.3847 C.3       6 UNK        -0.2006 
     42 C          23.3930  -30.9367  -38.0178 C.2       6 UNK         0.4892 
     43 O          23.5400  -32.0891  -37.6122 O.2       6 UNK        -0.5089 
     44 N          24.3098  -30.2845  -38.7439 N.am      7 UNK        -0.4243 
     45 CA         25.5983  -30.8323  -39.1678 C.3       7 UNK         0.0196 
     46 CB         26.5041  -29.6915  -39.6596 C.3       7 UNK        -0.2007 
     47 C          25.4524  -31.9202  -40.2429 C.2       7 UNK         0.5020 
     48 O          26.0395  -32.9930  -40.1008 O.2       7 UNK        -0.5147 
     49 N          24.6767  -31.6297  -41.2958 N.am      8 UNK        -0.4734 
     50 CA         24.4214  -32.5548  -42.4050 C.3       8 UNK         0.0238 
     51 CB         24.0864  -31.7413  -43.6649 C.3       8 UNK        -0.1912 
     52 C          23.2942  -33.5590  -42.1108 C.2       8 UNK         0.5038 
     53 O          23.1980  -34.5691  -42.8096 O.2       8 UNK        -0.5046 
     54 N          22.4484  -33.2542  -41.1193 N.am      9 UNK        -0.4200 
     55 CA         21.2788  -34.0529  -40.7276 C.3       9 UNK         0.0839 
     56 C          21.6585  -35.4234  -40.1045 C.2       9 UNK         0.5513 
     57 N          20.8211  -36.4359  -40.2838 N.am      9 UNK        -0.7519 
     58 O          22.6747  -35.5677  -39.4283 O.2       9 UNK        -0.4960 
     59 C59        20.3260  -33.2649  -39.7894 C.3       10 UNK        -0.0876 
     60 S60        19.8581  -31.6352  -40.4626 S.3       10 UNK        -0.2414 
     61 C61        18.4869  -32.0733  -41.5705 C.3       10 UNK         0.0169 
     62 H62        20.8308  -21.7494  -42.8499 H         1 UNK         0.0903 
     63 H63        20.8485  -23.4986  -42.6103 H         1 UNK         0.0903 
     64 H64        21.3513  -22.8191  -44.1567 H         1 UNK         0.0903 
     65 H65        18.8204  -24.4350  -42.7512 H         1 UNK         0.3096 
     66 H66        16.5298  -23.0699  -43.7900 H         1 UNK         0.1121 
     67 H67        15.3513  -25.2751  -43.2131 H         1 UNK         0.0849 
     68 H68        16.1405  -24.4508  -41.9085 H         1 UNK         0.0849 
     69 H69        15.5630  -28.0654  -42.8497 H         1 UNK         0.0865 
     70 H70        16.1896  -27.3908  -44.3365 H         1 UNK         0.0865 
     71 H71        16.8878  -29.8532  -41.6270 H         1 UNK         0.1346 
     72 H72        19.8164  -31.9758  -43.9372 H         1 UNK         0.1412 
     73 H73        18.1644  -28.3180  -45.4188 H         1 UNK         0.1426 
     74 H74        19.5248  -29.6650  -46.8733 H         1 UNK         0.0716 
     75 H75        19.9174  -31.3084  -46.4336 H         1 UNK         0.0716 
     76 H76        21.3920  -28.5785  -47.7690 H         1 UNK         0.0695 
     77 H77        22.9966  -28.4852  -47.1434 H         1 UNK         0.0695 
     78 H78        22.2082  -26.2852  -46.9478 H         1 UNK         0.0983 
     79 H79        19.8342  -26.6058  -45.4165 H         1 UNK         0.3095 
     80 H80        18.1338  -24.6768  -47.8101 H         1 UNK         0.0454 
     81 H81        16.9732  -27.3860  -46.9613 H         1 UNK         0.0851 
     82 H82        17.3953  -27.0093  -48.6227 H         1 UNK         0.0851 
     83 H83        16.1649  -26.0774  -47.8054 H         1 UNK         0.0851 
     84 H84        18.8218  -25.1777  -45.2013 H         1 UNK         0.2976 
     85 H85        23.8068  -27.8882  -45.1869 H         1 UNK         0.3116 
     86 H86        24.0640  -26.0739  -42.9455 H         1 UNK         0.0646 
     87 H87        26.0049  -27.5350  -42.3890 H         1 UNK         0.0847 
     88 H88        26.0523  -27.0309  -44.0689 H         1 UNK         0.0847 
     89 H89        25.5423  -28.6664  -43.6513 H         1 UNK         0.0847 
     90 H90        21.9934  -26.3350  -42.0063 H         1 UNK         0.3040 
     91 H91        20.7279  -28.5447  -41.0236 H         1 UNK         0.1015 
     92 H92        20.8783  -25.7908  -39.6668 H         1 UNK         0.0786 
     93 H93        19.5779  -26.9638  -39.4927 H         1 UNK         0.0786 
     94 H94        19.8499  -26.1800  -41.0407 H         1 UNK         0.0786 
     95 H95        20.7518  -29.8097  -39.2591 H         1 UNK         0.3172 
     96 H96        21.3298  -30.9696  -37.5119 H         1 UNK         0.0595 
     97 H97        22.9749  -28.6141  -36.4532 H         1 UNK         0.0839 
     98 H98        22.4793  -30.0339  -35.5505 H         1 UNK         0.0839 
     99 H99        21.2663  -28.9016  -36.1256 H         1 UNK         0.0839 
    100 H100       24.0957  -29.3309  -39.0201 H         1 UNK         0.2998 
    101 H101       26.0727  -31.2889  -38.2962 H         1 UNK         0.0822 
    102 H102       26.6862  -28.9623  -38.8699 H         1 UNK         0.0787 
    103 H103       27.4748  -30.0732  -39.9791 H         1 UNK         0.0787 
    104 H104       26.0652  -29.1637  -40.5067 H         1 UNK         0.0787 
    105 H105       24.2538  -30.7042  -41.3659 H         1 UNK         0.3055 
    106 H106       25.3270  -33.1324  -42.6045 H         1 UNK         0.1106 
    107 H107       23.9187  -32.3933  -44.5232 H         1 UNK         0.0828 
    108 H108       23.1821  -31.1481  -43.5259 H         1 UNK         0.0828 
    109 H109       24.8963  -31.0615  -43.9277 H         1 UNK         0.0828 
    110 H110       22.6187  -32.4143  -40.5887 H         1 UNK         0.2931 
    111 H111       20.7317  -34.2610  -41.6494 H         1 UNK         0.0412 
    112 H112       19.9803  -36.3291  -40.8302 H         1 UNK         0.3472 
    113 H113       21.0402  -37.3311  -39.8744 H         1 UNK         0.3472 
    114 H114       19.4180  -33.8372  -39.5896 H         1 UNK         0.0970 
    115 H115       20.8004  -33.1048  -38.8193 H         1 UNK         0.0970 
    116 H116       17.5633  -32.1498  -40.9947 H         1 UNK         0.0612 
    117 H117       18.6603  -33.0543  -42.0147 H         1 UNK         0.0612 
@<TRIPOS>BOND
     1    1    2 1    
     2    1   62 1    
     3    1   63 1    
     4    1   64 1    
     5    2    3 2    
     6    2    4 am   BACKBONE|DICT|INTERRES
     7    4    5 1    
     8    4   65 1    
     9    5    6 1    
    10    5   25 1    
    11    5   66 1    
    12    6    7 1    
    13    6   67 1    
    14    6   68 1    
    15    7    8 1    
    16    8    9 1    
    17    8   69 1    
    18    8   70 1    
    19    9   10 ar   
    20    9   14 ar   
    21   10   11 ar   
    22   10   71 1    
    23   11   12 ar   
    24   11   61 1    
    25   12   13 ar   
    26   12   72 1    
    27   13   14 ar   
    28   13   15 1    
    29   14   73 1    
    30   15   16 1    
    31   15   74 1    
    32   15   75 1    
    33   16   17 1    
    34   17   18 1    
    35   17   76 1    
    36   17   77 1    
    37   18   19 1    
    38   18   27 1    
    39   18   78 1    
    40   19   20 am   BACKBONE|DICT|INTERRES
    41   19   79 1    
    42   20   21 2    
    43   20   22 1    
    44   22   23 1    
    45   22   24 1    
    46   22   80 1    
    47   23   81 1    
    48   23   82 1    
    49   23   83 1    
    50   24   25 am   BACKBONE|DICT|INTERRES
    51   24   84 1    
    52   25   26 2    
    53   27   28 2    
    54   27   29 am   BACKBONE|DICT|INTERRES
    55   29   30 1    
    56   29   85 1    
    57   30   31 1    
    58   30   32 1    
    59   30   86 1    
    60   31   87 1    
    61   31   88 1    
    62   31   89 1    
    63   32   33 2    
    64   32   34 am   BACKBONE|DICT|INTERRES
    65   34   35 1    
    66   34   90 1    
    67   35   36 1    
    68   35   37 1    
    69   35   91 1    
    70   36   92 1    
    71   36   93 1    
    72   36   94 1    
    73   37   38 2    
    74   37   39 am   BACKBONE|DICT|INTERRES
    75   39   40 1    
    76   39   95 1    
    77   40   41 1    
    78   40   42 1    
    79   40   96 1    
    80   41   97 1    
    81   41   98 1    
    82   41   99 1    
    83   42   43 2    
    84   42   44 am   BACKBONE|DICT|INTERRES
    85   44   45 1    
    86   44  100 1    
    87   45   46 1    
    88   45   47 1    
    89   45  101 1    
    90   46  102 1    
    91   46  103 1    
    92   46  104 1    
    93   47   48 2    
    94   47   49 am   BACKBONE|DICT|INTERRES
    95   49   50 1    
    96   49  105 1    
    97   50   51 1    
    98   50   52 1    
    99   50  106 1    
   100   51  107 1    
   101   51  108 1    
   102   51  109 1    
   103   52   53 2    
   104   52   54 am   BACKBONE|DICT|INTERRES
   105   54   55 1    
   106   54  110 1    
   107   55   56 1    
   108   55   59 1    
   109   55  111 1    
   110   56   57 am   BACKBONE|DICT|INTERRES
   111   56   58 2    
   112   57  112 1    
   113   57  113 1    
   114   59   60 1    
   115   59  114 1    
   116   59  115 1    
   117   60   61 1    
   118   61  116 1    
   119   61  117 1    
@<TRIPOS>SUBSTRUCTURE
     1 UNK         1 GROUP             0       ****    0 ROOT    
