@<TRIPOS>MOLECULE
3R8
117   119    1
SMALL
USER_CHARGES


@<TRIPOS>ATOM
      1 CA         13.9071  -23.1565  -46.5430 C.3       0 UNK        -0.2013 
      2 C          14.9633  -24.1290  -46.0415 C.2       0 UNK         0.4866 
      3 O          16.0577  -24.1887  -46.6013 O.2       0 UNK        -0.5176 
      4 N          14.6581  -24.8763  -44.9733 N.am      1 UNK        -0.4884 
      5 CA         15.4936  -25.9238  -44.3609 C.3       1 UNK         0.0853 
      6 C6         14.6177  -26.9263  -43.5611 C.3       10 UNK        -0.0849 
      7 S7         13.5513  -27.8988  -44.6850 S.3       10 UNK        -0.2776 
      8 C8         14.2427  -29.5872  -44.5663 C.3       10 UNK         0.0316 
      9 C9         15.7638  -29.6202  -44.6593 C.ar      10 UNK        -0.0863 
     10 C10        16.5209  -30.0105  -43.5503 C.ar      10 UNK        -0.1009 
     11 C11        17.9171  -29.9987  -43.5996 C.ar      10 UNK        -0.0712 
     12 C12        18.5556  -29.5934  -44.7762 C.ar      10 UNK        -0.0894 
     13 C13        17.8123  -29.2084  -45.8962 C.ar      10 UNK        -0.0745 
     14 C14        16.4152  -29.2380  -45.8358 C.ar      10 UNK        -0.0972 
     15 C15        18.5097  -28.7496  -47.1692 C.3       10 UNK         0.0209 
     16 S16        18.3916  -26.9421  -47.3582 S.3       10 UNK        -0.2568 
     17 C17        20.1363  -26.3837  -47.3031 C.3       10 UNK        -0.0983 
     18 CA         20.6649  -25.9999  -45.8878 C.3       3 UNK         0.0876 
     19 N          19.6565  -25.2275  -45.1503 N.am      3 UNK        -0.4424 
     20 C          19.8216  -24.4266  -44.0902 C.2       2 UNK         0.4918 
     21 O          20.9059  -24.2465  -43.5376 O.2       2 UNK        -0.4875 
     22 CA         18.5665  -23.7210  -43.5428 C.3       2 UNK         0.0481 
     23 CB         18.5939  -22.2277  -43.9044 C.3       2 UNK        -0.1831 
     24 N          17.3297  -24.3111  -44.0611 N.am      2 UNK        -0.4498 
     25 C          16.6849  -25.3636  -43.5417 C.2       1 UNK         0.5027 
     26 O          17.0114  -25.8905  -42.4771 O.2       1 UNK        -0.4969 
     27 C          21.2570  -27.2046  -45.1107 C.2       3 UNK         0.5005 
     28 O          21.6400  -28.2011  -45.7270 O.2       3 UNK        -0.5279 
     29 N          21.3265  -27.1156  -43.7767 N.am      4 UNK        -0.4463 
     30 CA         21.8450  -28.1545  -42.8891 C.3       4 UNK         0.0283 
     31 CB         21.5155  -27.7870  -41.4326 C.3       4 UNK        -0.1875 
     32 C          23.3586  -28.3538  -43.0516 C.2       4 UNK         0.4949 
     33 O          24.1029  -27.3729  -43.1218 O.2       4 UNK        -0.5039 
     34 N          23.7850  -29.6218  -43.0524 N.am      5 UNK        -0.4663 
     35 CA         25.1886  -30.0177  -42.9300 C.3       5 UNK         0.0242 
     36 CB         25.3360  -31.4956  -43.3291 C.3       5 UNK        -0.1982 
     37 C          25.6824  -29.8010  -41.4903 C.2       5 UNK         0.5017 
     38 O          24.8823  -29.8965  -40.5546 O.2       5 UNK        -0.5012 
     39 N          26.9923  -29.5576  -41.3411 N.am      6 UNK        -0.4439 
     40 CA         27.6649  -29.2566  -40.0697 C.3       6 UNK         0.0297 
     41 CB         29.1520  -28.9712  -40.3338 C.3       6 UNK        -0.2006 
     42 C          27.5122  -30.3406  -38.9874 C.2       6 UNK         0.4892 
     43 O          27.4752  -30.0078  -37.8028 O.2       6 UNK        -0.5089 
     44 N          27.3708  -31.6052  -39.4055 N.am      7 UNK        -0.4243 
     45 CA         27.0831  -32.7583  -38.5485 C.3       7 UNK         0.0196 
     46 CB         27.6338  -34.0265  -39.2280 C.3       7 UNK        -0.2007 
     47 C          25.5800  -32.8734  -38.2119 C.2       7 UNK         0.5020 
     48 O          25.0181  -33.9655  -38.3006 O.2       7 UNK        -0.5147 
     49 N          24.9478  -31.7443  -37.8571 N.am      8 UNK        -0.4734 
     50 CA         23.5335  -31.5788  -37.4880 C.3       8 UNK         0.0238 
     51 CB         23.2835  -32.1668  -36.0830 C.3       8 UNK        -0.1912 
     52 C          22.5533  -32.1277  -38.5462 C.2       8 UNK         0.5038 
     53 O          21.6027  -32.8315  -38.1991 O.2       8 UNK        -0.5046 
     54 N          22.8224  -31.8146  -39.8211 N.am      9 UNK        -0.4200 
     55 CA         22.1165  -32.3375  -41.0045 C.3       9 UNK         0.0839 
     56 C          22.3949  -33.8424  -41.3213 C.2       9 UNK         0.5513 
     57 N          23.3109  -34.5194  -40.6392 N.am      9 UNK        -0.7519 
     58 O          21.7976  -34.4073  -42.2328 O.2       9 UNK        -0.4960 
     59 C59        20.5997  -31.9768  -41.0081 C.3       10 UNK        -0.0876 
     60 S60        19.9217  -31.7093  -42.6833 S.3       10 UNK        -0.2414 
     61 C61        18.7233  -30.3767  -42.3629 C.3       10 UNK         0.0169 
     62 H62        13.6537  -23.3814  -47.5786 H         1 UNK         0.0903 
     63 H63        12.9928  -23.2061  -45.9519 H         1 UNK         0.0903 
     64 H64        14.2856  -22.1357  -46.4986 H         1 UNK         0.0903 
     65 H65        13.7484  -24.7617  -44.5488 H         1 UNK         0.3096 
     66 H66        15.9640  -26.4817  -45.1739 H         1 UNK         0.1121 
     67 H67        13.9874  -26.3969  -42.8446 H         1 UNK         0.0849 
     68 H68        15.2228  -27.6093  -42.9646 H         1 UNK         0.0849 
     69 H69        13.9045  -30.0354  -43.6306 H         1 UNK         0.0865 
     70 H70        13.8208  -30.1999  -45.3642 H         1 UNK         0.0865 
     71 H71        16.0209  -30.3032  -42.6369 H         1 UNK         0.1346 
     72 H72        19.6347  -29.5816  -44.8170 H         1 UNK         0.1412 
     73 H73        15.8339  -28.9297  -46.6945 H         1 UNK         0.1426 
     74 H74        18.0391  -29.2248  -48.0310 H         1 UNK         0.0716 
     75 H75        19.5516  -29.0713  -47.1786 H         1 UNK         0.0716 
     76 H76        20.1808  -25.4925  -47.9309 H         1 UNK         0.0695 
     77 H77        20.7778  -27.1045  -47.8128 H         1 UNK         0.0695 
     78 H78        21.5174  -25.3342  -46.0392 H         1 UNK         0.0983 
     79 H79        18.7200  -25.3298  -45.5150 H         1 UNK         0.3095 
     80 H80        18.5825  -23.8095  -42.4546 H         1 UNK         0.0454 
     81 H81        18.5836  -22.0721  -44.9840 H         1 UNK         0.0851 
     82 H82        19.4920  -21.7470  -43.5139 H         1 UNK         0.0851 
     83 H83        17.7375  -21.7020  -43.4818 H         1 UNK         0.0851 
     84 H84        16.9935  -23.9696  -44.9583 H         1 UNK         0.2976 
     85 H85        21.0975  -26.2211  -43.3579 H         1 UNK         0.3116 
     86 H86        21.3386  -29.0876  -43.1379 H         1 UNK         0.0646 
     87 H87        20.4490  -27.6149  -41.2897 H         1 UNK         0.0847 
     88 H88        22.0407  -26.8840  -41.1180 H         1 UNK         0.0847 
     89 H89        21.8122  -28.5880  -40.7535 H         1 UNK         0.0847 
     90 H90        23.1008  -30.3600  -42.9881 H         1 UNK         0.3040 
     91 H91        25.7836  -29.4033  -43.6099 H         1 UNK         0.1015 
     92 H92        26.3851  -31.7942  -43.3374 H         1 UNK         0.0786 
     93 H93        24.9433  -31.6786  -44.3296 H         1 UNK         0.0786 
     94 H94        24.8182  -32.1612  -42.6379 H         1 UNK         0.0786 
     95 H95        27.5702  -29.5202  -42.1691 H         1 UNK         0.3172 
     96 H96        27.2101  -28.3454  -39.6756 H         1 UNK         0.0595 
     97 H97        29.6594  -29.8343  -40.7669 H         1 UNK         0.0839 
     98 H98        29.6717  -28.7199  -39.4079 H         1 UNK         0.0839 
     99 H99        29.2821  -28.1280  -41.0124 H         1 UNK         0.0839 
    100 H100       27.3816  -31.7757  -40.4004 H         1 UNK         0.2998 
    101 H101       27.6107  -32.6347  -37.6002 H         1 UNK         0.0822 
    102 H102       28.7008  -33.9360  -39.4326 H         1 UNK         0.0787 
    103 H103       27.5032  -34.9017  -38.5900 H         1 UNK         0.0787 
    104 H104       27.1262  -34.2313  -40.1716 H         1 UNK         0.0787 
    105 H105       25.5085  -30.8997  -37.8370 H         1 UNK         0.3055 
    106 H106       23.3484  -30.5045  -37.4363 H         1 UNK         0.1106 
    107 H107       23.4216  -33.2486  -36.0683 H         1 UNK         0.0828 
    108 H108       22.2657  -31.9637  -35.7474 H         1 UNK         0.0828 
    109 H109       23.9581  -31.7328  -35.3451 H         1 UNK         0.0828 
    110 H110       23.6237  -31.2171  -40.0111 H         1 UNK         0.2931 
    111 H111       22.5766  -31.7979  -41.8300 H         1 UNK         0.0412 
    112 H112       23.8060  -34.1101  -39.8541 H         1 UNK         0.3472 
    113 H113       23.4765  -35.4842  -40.8773 H         1 UNK         0.3472 
    114 H114       20.4405  -31.0610  -40.4367 H         1 UNK         0.0970 
    115 H115       20.0122  -32.7442  -40.5006 H         1 UNK         0.0970 
    116 H116       18.0607  -30.6960  -41.5569 H         1 UNK         0.0612 
    117 H117       19.2446  -29.4929  -41.9999 H         1 UNK         0.0612 
@<TRIPOS>BOND
     1    1    2 1    
     2    1   62 1    
     3    1   63 1    
     4    1   64 1    
     5    2    3 2    
     6    2    4 am   BACKBONE|DICT|INTERRES
     7    4    5 1    
     8    4   65 1    
     9    5    6 1    
    10    5   25 1    
    11    5   66 1    
    12    6    7 1    
    13    6   67 1    
    14    6   68 1    
    15    7    8 1    
    16    8    9 1    
    17    8   69 1    
    18    8   70 1    
    19    9   10 ar   
    20    9   14 ar   
    21   10   11 ar   
    22   10   71 1    
    23   11   12 ar   
    24   11   61 1    
    25   12   13 ar   
    26   12   72 1    
    27   13   14 ar   
    28   13   15 1    
    29   14   73 1    
    30   15   16 1    
    31   15   74 1    
    32   15   75 1    
    33   16   17 1    
    34   17   18 1    
    35   17   76 1    
    36   17   77 1    
    37   18   19 1    
    38   18   27 1    
    39   18   78 1    
    40   19   20 am   BACKBONE|DICT|INTERRES
    41   19   79 1    
    42   20   21 2    
    43   20   22 1    
    44   22   23 1    
    45   22   24 1    
    46   22   80 1    
    47   23   81 1    
    48   23   82 1    
    49   23   83 1    
    50   24   25 am   BACKBONE|DICT|INTERRES
    51   24   84 1    
    52   25   26 2    
    53   27   28 2    
    54   27   29 am   BACKBONE|DICT|INTERRES
    55   29   30 1    
    56   29   85 1    
    57   30   31 1    
    58   30   32 1    
    59   30   86 1    
    60   31   87 1    
    61   31   88 1    
    62   31   89 1    
    63   32   33 2    
    64   32   34 am   BACKBONE|DICT|INTERRES
    65   34   35 1    
    66   34   90 1    
    67   35   36 1    
    68   35   37 1    
    69   35   91 1    
    70   36   92 1    
    71   36   93 1    
    72   36   94 1    
    73   37   38 2    
    74   37   39 am   BACKBONE|DICT|INTERRES
    75   39   40 1    
    76   39   95 1    
    77   40   41 1    
    78   40   42 1    
    79   40   96 1    
    80   41   97 1    
    81   41   98 1    
    82   41   99 1    
    83   42   43 2    
    84   42   44 am   BACKBONE|DICT|INTERRES
    85   44   45 1    
    86   44  100 1    
    87   45   46 1    
    88   45   47 1    
    89   45  101 1    
    90   46  102 1    
    91   46  103 1    
    92   46  104 1    
    93   47   48 2    
    94   47   49 am   BACKBONE|DICT|INTERRES
    95   49   50 1    
    96   49  105 1    
    97   50   51 1    
    98   50   52 1    
    99   50  106 1    
   100   51  107 1    
   101   51  108 1    
   102   51  109 1    
   103   52   53 2    
   104   52   54 am   BACKBONE|DICT|INTERRES
   105   54   55 1    
   106   54  110 1    
   107   55   56 1    
   108   55   59 1    
   109   55  111 1    
   110   56   57 am   BACKBONE|DICT|INTERRES
   111   56   58 2    
   112   57  112 1    
   113   57  113 1    
   114   59   60 1    
   115   59  114 1    
   116   59  115 1    
   117   60   61 1    
   118   61  116 1    
   119   61  117 1    
@<TRIPOS>SUBSTRUCTURE
     1 UNK         1 GROUP             0       ****    0 ROOT    
