@<TRIPOS>MOLECULE
3R8
117   119    1
SMALL
USER_CHARGES


@<TRIPOS>ATOM
      1 CA         24.3788  -25.2265  -45.3659 C.3       0 UNK        -0.2013 
      2 C          22.9480  -25.3720  -45.8619 C.2       0 UNK         0.4866 
      3 O          22.4906  -24.5476  -46.6535 O.2       0 UNK        -0.5176 
      4 N          22.2468  -26.4156  -45.3976 N.am      1 UNK        -0.4884 
      5 CA         20.8598  -26.7652  -45.7432 C.3       1 UNK         0.0853 
      6 C6         20.6780  -27.2275  -47.2118 C.3       10 UNK        -0.0849 
      7 S7         21.6130  -28.7659  -47.5173 S.3       10 UNK        -0.2776 
      8 C8         20.2869  -30.0113  -47.6361 C.3       10 UNK         0.0316 
      9 C9         19.5166  -30.2049  -46.3333 C.ar      10 UNK        -0.0863 
     10 C10        20.0876  -30.9113  -45.2685 C.ar      10 UNK        -0.1009 
     11 C11        19.3522  -31.1582  -44.1031 C.ar      10 UNK        -0.0712 
     12 C12        18.0344  -30.7009  -44.0127 C.ar      10 UNK        -0.0894 
     13 C13        17.4604  -29.9719  -45.0576 C.ar      10 UNK        -0.0745 
     14 C14        18.2069  -29.7277  -46.2147 C.ar      10 UNK        -0.0972 
     15 C15        16.0238  -29.4764  -44.9576 C.3       10 UNK         0.0209 
     16 S16        15.9400  -27.7132  -44.5085 S.3       10 UNK        -0.2568 
     17 C17        15.9930  -27.7583  -42.6822 C.3       10 UNK        -0.0983 
     18 CA         17.4310  -27.6959  -42.1072 C.3       3 UNK         0.0876 
     19 N          18.2617  -26.6027  -42.6300 N.am      3 UNK        -0.4424 
     20 C          18.0365  -25.2808  -42.6253 C.2       2 UNK         0.4918 
     21 O          17.0717  -24.7541  -42.0723 O.2       2 UNK        -0.4875 
     22 CA         19.1011  -24.3939  -43.3013 C.3       2 UNK         0.0481 
     23 CB         19.8527  -23.5599  -42.2503 C.3       2 UNK        -0.1831 
     24 N          20.0699  -25.1925  -44.0561 N.am      2 UNK        -0.4498 
     25 C          19.8592  -25.6851  -45.2864 C.2       1 UNK         0.5027 
     26 O          18.9145  -25.3560  -46.0054 O.2       1 UNK        -0.4969 
     27 C          17.4524  -27.7913  -40.5698 C.2       3 UNK         0.5005 
     28 O          17.3959  -28.8983  -40.0336 O.2       3 UNK        -0.5279 
     29 N          17.6218  -26.6504  -39.8887 N.am      4 UNK        -0.4463 
     30 CA         18.0885  -26.5685  -38.5038 C.3       4 UNK         0.0283 
     31 CB         17.8709  -25.1404  -37.9793 C.3       4 UNK        -0.1875 
     32 C          19.5716  -26.9710  -38.3734 C.2       4 UNK         0.4949 
     33 O          19.9792  -27.4252  -37.3043 O.2       4 UNK        -0.5039 
     34 N          20.3426  -26.8126  -39.4588 N.am      5 UNK        -0.4663 
     35 CA         21.7368  -27.2179  -39.5847 C.3       5 UNK         0.0242 
     36 CB         22.6527  -26.1729  -38.9214 C.3       5 UNK        -0.1982 
     37 C          22.0862  -27.3747  -41.0704 C.2       5 UNK         0.5017 
     38 O          21.5103  -26.6799  -41.9152 O.2       5 UNK        -0.5012 
     39 N          23.0476  -28.2623  -41.3483 N.am      6 UNK        -0.4439 
     40 CA         23.6530  -28.4886  -42.6658 C.3       6 UNK         0.0297 
     41 CB         22.6573  -29.1961  -43.6101 C.3       6 UNK        -0.2006 
     42 C          24.9456  -29.3203  -42.5842 C.2       6 UNK         0.4892 
     43 O          25.4293  -29.7503  -43.6314 O.2       6 UNK        -0.5089 
     44 N          25.4306  -29.6299  -41.3687 N.am      7 UNK        -0.4243 
     45 CA         26.4587  -30.6296  -41.0219 C.3       7 UNK         0.0196 
     46 CB         27.8190  -30.3124  -41.6746 C.3       7 UNK        -0.2007 
     47 C          26.0344  -32.0895  -41.2926 C.2       7 UNK         0.5020 
     48 O          26.3150  -32.9608  -40.4705 O.2       7 UNK        -0.5147 
     49 N          25.3487  -32.3294  -42.4166 N.am      8 UNK        -0.4734 
     50 CA         24.7882  -33.6184  -42.8278 C.3       8 UNK         0.0238 
     51 CB         24.4918  -33.5661  -44.3361 C.3       8 UNK        -0.1912 
     52 C          23.5207  -34.0252  -42.0531 C.2       8 UNK         0.5038 
     53 O          23.1844  -35.2102  -42.0539 O.2       8 UNK        -0.5046 
     54 N          22.8295  -33.0553  -41.4360 N.am      9 UNK        -0.4200 
     55 CA         21.6237  -33.2721  -40.6205 C.3       9 UNK         0.0839 
     56 C          21.9148  -34.1203  -39.3514 C.2       9 UNK         0.5513 
     57 N          21.0133  -35.0209  -38.9848 N.am      9 UNK        -0.7519 
     58 O          22.9224  -33.9324  -38.6731 O.2       9 UNK        -0.4960 
     59 C59        20.9459  -31.9333  -40.2177 C.3       10 UNK        -0.0876 
     60 S60        20.3988  -30.8261  -41.5678 S.3       10 UNK        -0.2414 
     61 C61        19.9630  -31.9359  -42.9455 C.3       10 UNK         0.0169 
     62 H62        24.4378  -24.4385  -44.6154 H         1 UNK         0.0903 
     63 H63        24.7540  -26.1501  -44.9264 H         1 UNK         0.0903 
     64 H64        25.0377  -24.9601  -46.1920 H         1 UNK         0.0903 
     65 H65        22.6890  -27.0445  -44.7436 H         1 UNK         0.3096 
     66 H66        20.5979  -27.6254  -45.1276 H         1 UNK         0.1121 
     67 H67        19.6262  -27.4022  -47.4435 H         1 UNK         0.0849 
     68 H68        21.0159  -26.4585  -47.9078 H         1 UNK         0.0849 
     69 H69        20.7314  -30.9638  -47.9285 H         1 UNK         0.0865 
     70 H70        19.6113  -29.7375  -48.4481 H         1 UNK         0.0865 
     71 H71        21.1008  -31.2794  -45.3551 H         1 UNK         0.1346 
     72 H72        17.4606  -30.9036  -43.1183 H         1 UNK         0.1412 
     73 H73        17.7558  -29.1807  -47.0316 H         1 UNK         0.1426 
     74 H74        15.4525  -30.0743  -44.2460 H         1 UNK         0.0716 
     75 H75        15.5322  -29.6105  -45.9223 H         1 UNK         0.0716 
     76 H76        15.4816  -28.6578  -42.3348 H         1 UNK         0.0695 
     77 H77        15.4022  -26.9184  -42.3130 H         1 UNK         0.0695 
     78 H78        17.9489  -28.5938  -42.4377 H         1 UNK         0.0983 
     79 H79        19.1264  -26.9053  -43.0524 H         1 UNK         0.3095 
     80 H80        18.5864  -23.7110  -43.9800 H         1 UNK         0.0454 
     81 H81        20.5869  -22.9039  -42.7180 H         1 UNK         0.0851 
     82 H82        20.3775  -24.1882  -41.5298 H         1 UNK         0.0851 
     83 H83        19.1652  -22.9252  -41.6895 H         1 UNK         0.0851 
     84 H84        20.8712  -25.5297  -43.5310 H         1 UNK         0.2976 
     85 H85        17.5634  -25.7845  -40.4143 H         1 UNK         0.3116 
     86 H86        17.4972  -27.2561  -37.8954 H         1 UNK         0.0646 
     87 H87        18.1895  -25.0552  -36.9394 H         1 UNK         0.0847 
     88 H88        16.8185  -24.8588  -38.0183 H         1 UNK         0.0847 
     89 H89        18.4371  -24.4064  -38.5544 H         1 UNK         0.0847 
     90 H90        19.9347  -26.4601  -40.3138 H         1 UNK         0.3040 
     91 H91        21.8638  -28.1845  -39.0916 H         1 UNK         0.1015 
     92 H92        22.5310  -25.1884  -39.3753 H         1 UNK         0.0786 
     93 H93        23.7032  -26.4500  -39.0185 H         1 UNK         0.0786 
     94 H94        22.4432  -26.0771  -37.8559 H         1 UNK         0.0786 
     95 H95        23.4015  -28.8233  -40.5896 H         1 UNK         0.3172 
     96 H96        23.9190  -27.5156  -43.0807 H         1 UNK         0.0595 
     97 H97        22.5802  -30.2586  -43.3796 H         1 UNK         0.0839 
     98 H98        22.9806  -29.1289  -44.6495 H         1 UNK         0.0839 
     99 H99        21.6527  -28.7847  -43.5452 H         1 UNK         0.0839 
    100 H100       25.0249  -29.1736  -40.5670 H         1 UNK         0.2998 
    101 H101       26.5933  -30.5457  -39.9419 H         1 UNK         0.0822 
    102 H102       27.7931  -30.4260  -42.7586 H         1 UNK         0.0787 
    103 H103       28.1385  -29.2946  -41.4512 H         1 UNK         0.0787 
    104 H104       28.5925  -30.9846  -41.3009 H         1 UNK         0.0787 
    105 H105       25.2283  -31.5456  -43.0534 H         1 UNK         0.3055 
    106 H106       25.5387  -34.3917  -42.6485 H         1 UNK         0.1106 
    107 H107       24.0980  -34.5194  -44.6915 H         1 UNK         0.0828 
    108 H108       23.7548  -32.7985  -44.5766 H         1 UNK         0.0828 
    109 H109       25.3941  -33.3564  -44.9108 H         1 UNK         0.0828 
    110 H110       23.1861  -32.1140  -41.4723 H         1 UNK         0.2931 
    111 H111       20.9223  -33.8405  -41.2335 H         1 UNK         0.0412 
    112 H112       21.1768  -35.5680  -38.1536 H         1 UNK         0.3472 
    113 H113       20.1781  -35.1755  -39.5285 H         1 UNK         0.3472 
    114 H114       20.0610  -32.1383  -39.6118 H         1 UNK         0.0970 
    115 H115       21.6118  -31.3567  -39.5730 H         1 UNK         0.0970 
    116 H116       19.2517  -32.6859  -42.5966 H         1 UNK         0.0612 
    117 H117       20.8499  -32.4725  -43.2833 H         1 UNK         0.0612 
@<TRIPOS>BOND
     1    1    2 1    
     2    1   62 1    
     3    1   63 1    
     4    1   64 1    
     5    2    3 2    
     6    2    4 am   BACKBONE|DICT|INTERRES
     7    4    5 1    
     8    4   65 1    
     9    5    6 1    
    10    5   25 1    
    11    5   66 1    
    12    6    7 1    
    13    6   67 1    
    14    6   68 1    
    15    7    8 1    
    16    8    9 1    
    17    8   69 1    
    18    8   70 1    
    19    9   10 ar   
    20    9   14 ar   
    21   10   11 ar   
    22   10   71 1    
    23   11   12 ar   
    24   11   61 1    
    25   12   13 ar   
    26   12   72 1    
    27   13   14 ar   
    28   13   15 1    
    29   14   73 1    
    30   15   16 1    
    31   15   74 1    
    32   15   75 1    
    33   16   17 1    
    34   17   18 1    
    35   17   76 1    
    36   17   77 1    
    37   18   19 1    
    38   18   27 1    
    39   18   78 1    
    40   19   20 am   BACKBONE|DICT|INTERRES
    41   19   79 1    
    42   20   21 2    
    43   20   22 1    
    44   22   23 1    
    45   22   24 1    
    46   22   80 1    
    47   23   81 1    
    48   23   82 1    
    49   23   83 1    
    50   24   25 am   BACKBONE|DICT|INTERRES
    51   24   84 1    
    52   25   26 2    
    53   27   28 2    
    54   27   29 am   BACKBONE|DICT|INTERRES
    55   29   30 1    
    56   29   85 1    
    57   30   31 1    
    58   30   32 1    
    59   30   86 1    
    60   31   87 1    
    61   31   88 1    
    62   31   89 1    
    63   32   33 2    
    64   32   34 am   BACKBONE|DICT|INTERRES
    65   34   35 1    
    66   34   90 1    
    67   35   36 1    
    68   35   37 1    
    69   35   91 1    
    70   36   92 1    
    71   36   93 1    
    72   36   94 1    
    73   37   38 2    
    74   37   39 am   BACKBONE|DICT|INTERRES
    75   39   40 1    
    76   39   95 1    
    77   40   41 1    
    78   40   42 1    
    79   40   96 1    
    80   41   97 1    
    81   41   98 1    
    82   41   99 1    
    83   42   43 2    
    84   42   44 am   BACKBONE|DICT|INTERRES
    85   44   45 1    
    86   44  100 1    
    87   45   46 1    
    88   45   47 1    
    89   45  101 1    
    90   46  102 1    
    91   46  103 1    
    92   46  104 1    
    93   47   48 2    
    94   47   49 am   BACKBONE|DICT|INTERRES
    95   49   50 1    
    96   49  105 1    
    97   50   51 1    
    98   50   52 1    
    99   50  106 1    
   100   51  107 1    
   101   51  108 1    
   102   51  109 1    
   103   52   53 2    
   104   52   54 am   BACKBONE|DICT|INTERRES
   105   54   55 1    
   106   54  110 1    
   107   55   56 1    
   108   55   59 1    
   109   55  111 1    
   110   56   57 am   BACKBONE|DICT|INTERRES
   111   56   58 2    
   112   57  112 1    
   113   57  113 1    
   114   59   60 1    
   115   59  114 1    
   116   59  115 1    
   117   60   61 1    
   118   61  116 1    
   119   61  117 1    
@<TRIPOS>SUBSTRUCTURE
     1 UNK         1 GROUP             0       ****    0 ROOT    
