@<TRIPOS>MOLECULE
3R8
117   119    1
SMALL
USER_CHARGES


@<TRIPOS>ATOM
      1 CA         16.3767  -22.9753  -44.8089 C.3       0 UNK        -0.2013 
      2 C          16.9923  -24.3440  -45.0536 C.2       0 UNK         0.4866 
      3 O          17.0654  -25.1544  -44.1295 O.2       0 UNK        -0.5176 
      4 N          17.4645  -24.5979  -46.2850 N.am      1 UNK        -0.4884 
      5 CA         18.0285  -25.8744  -46.7642 C.3       1 UNK         0.0853 
      6 C6         16.9527  -26.9980  -46.7693 C.3       10 UNK        -0.0849 
      7 S7         17.2689  -28.3061  -48.0062 S.3       10 UNK        -0.2776 
      8 C8         16.5195  -29.7768  -47.2260 C.3       10 UNK         0.0316 
      9 C9         17.0872  -30.0760  -45.8432 C.ar      10 UNK        -0.0863 
     10 C10        18.4200  -30.4722  -45.6922 C.ar      10 UNK        -0.1009 
     11 C11        18.9420  -30.7307  -44.4215 C.ar      10 UNK        -0.0712 
     12 C12        18.1119  -30.6260  -43.3041 C.ar      10 UNK        -0.0894 
     13 C13        16.7929  -30.1843  -43.4331 C.ar      10 UNK        -0.0745 
     14 C14        16.2811  -29.9303  -44.7089 C.ar      10 UNK        -0.0972 
     15 C15        15.9218  -29.9495  -42.2021 C.3       10 UNK         0.0209 
     16 S16        16.7721  -29.0542  -40.8513 S.3       10 UNK        -0.2568 
     17 C17        17.4141  -27.5539  -41.6780 C.3       10 UNK        -0.0983 
     18 CA         18.9605  -27.5728  -41.7984 C.3       3 UNK         0.0876 
     19 N          19.4538  -26.6389  -42.8135 N.am      3 UNK        -0.4424 
     20 C          20.7294  -26.5691  -43.2315 C.2       2 UNK         0.4918 
     21 O          21.6338  -27.2647  -42.7649 O.2       2 UNK        -0.4875 
     22 CA         21.0547  -25.5564  -44.3511 C.3       2 UNK         0.0481 
     23 CB         22.3550  -25.9035  -45.1089 C.3       2 UNK        -0.1831 
     24 N          19.9375  -25.3574  -45.2811 N.am      2 UNK        -0.4498 
     25 C          19.3419  -26.2881  -46.0454 C.2       1 UNK         0.5027 
     26 O          19.7880  -27.4263  -46.1826 O.2       1 UNK        -0.4969 
     27 C          19.6699  -27.3576  -40.4452 C.2       3 UNK         0.5005 
     28 O          19.4774  -26.3170  -39.8124 O.2       3 UNK        -0.5279 
     29 N          20.5156  -28.3321  -40.0738 N.am      4 UNK        -0.4463 
     30 CA         21.4012  -28.3656  -38.9030 C.3       4 UNK         0.0283 
     31 CB         20.5924  -28.3170  -37.5899 C.3       4 UNK        -0.1875 
     32 C          22.5375  -27.3215  -38.9245 C.2       4 UNK         0.4949 
     33 O          23.2390  -27.1809  -37.9217 O.2       4 UNK        -0.5039 
     34 N          22.7577  -26.6397  -40.0580 N.am      5 UNK        -0.4663 
     35 CA         23.8218  -25.6487  -40.2456 C.3       5 UNK         0.0242 
     36 CB         23.3480  -24.5797  -41.2468 C.3       5 UNK        -0.1982 
     37 C          25.1200  -26.3475  -40.6840 C.2       5 UNK         0.5017 
     38 O          25.6074  -26.1159  -41.7909 O.2       5 UNK        -0.5012 
     39 N          25.6115  -27.2438  -39.8161 N.am      6 UNK        -0.4439 
     40 CA         26.7590  -28.1488  -39.9840 C.3       6 UNK         0.0297 
     41 CB         28.0630  -27.3652  -40.2441 C.3       6 UNK        -0.2006 
     42 C          26.5492  -29.2777  -41.0171 C.2       6 UNK         0.4892 
     43 O          27.4627  -30.0809  -41.2140 O.2       6 UNK        -0.5089 
     44 N          25.3632  -29.3511  -41.6362 N.am      7 UNK        -0.4243 
     45 CA         24.9479  -30.4344  -42.5253 C.3       7 UNK         0.0196 
     46 CB         23.7671  -29.9515  -43.3818 C.3       7 UNK        -0.2007 
     47 C          24.5439  -31.6699  -41.7081 C.2       7 UNK         0.5020 
     48 O          23.9334  -31.5221  -40.6467 O.2       7 UNK        -0.5147 
     49 N          24.8461  -32.8650  -42.2333 N.am      8 UNK        -0.4734 
     50 CA         24.5698  -34.1577  -41.5887 C.3       8 UNK         0.0238 
     51 CB         25.2060  -35.2863  -42.4162 C.3       8 UNK        -0.1912 
     52 C          23.0743  -34.4393  -41.3545 C.2       8 UNK         0.5038 
     53 O          22.7312  -35.1155  -40.3840 O.2       8 UNK        -0.5046 
     54 N          22.2222  -33.8987  -42.2325 N.am      9 UNK        -0.4200 
     55 CA         20.7592  -33.8760  -42.1001 C.3       9 UNK         0.0839 
     56 C          20.2149  -32.8691  -41.0436 C.2       9 UNK         0.5513 
     57 N          21.0240  -32.0027  -40.4435 N.am      9 UNK        -0.7519 
     58 O          19.0253  -32.8908  -40.7423 O.2       9 UNK        -0.4960 
     59 C59        20.0375  -33.7570  -43.4771 C.3       10 UNK        -0.0876 
     60 S60        20.8729  -32.7220  -44.7343 S.3       10 UNK        -0.2414 
     61 C61        20.4210  -31.0333  -44.2414 C.3       10 UNK         0.0169 
     62 H62        16.4170  -22.3438  -45.6967 H         1 UNK         0.0903 
     63 H63        15.3324  -23.0828  -44.5156 H         1 UNK         0.0903 
     64 H64        16.9054  -22.4646  -44.0040 H         1 UNK         0.0903 
     65 H65        17.4001  -23.8734  -46.9882 H         1 UNK         0.3096 
     66 H66        18.3181  -25.6865  -47.7995 H         1 UNK         0.1121 
     67 H67        16.8498  -27.4188  -45.7690 H         1 UNK         0.0849 
     68 H68        15.9751  -26.5779  -47.0100 H         1 UNK         0.0849 
     69 H69        15.4385  -29.6368  -47.1787 H         1 UNK         0.0865 
     70 H70        16.6845  -30.6403  -47.8718 H         1 UNK         0.0865 
     71 H71        19.0607  -30.5436  -46.5605 H         1 UNK         0.1346 
     72 H72        18.5095  -30.8252  -42.3196 H         1 UNK         0.1412 
     73 H73        15.2579  -29.5971  -44.8182 H         1 UNK         0.1426 
     74 H74        15.5821  -30.9145  -41.8241 H         1 UNK         0.0716 
     75 H75        15.0249  -29.3885  -42.4695 H         1 UNK         0.0716 
     76 H76        17.0716  -26.6705  -41.1361 H         1 UNK         0.0695 
     77 H77        16.9621  -27.4852  -42.6687 H         1 UNK         0.0695 
     78 H78        19.2495  -28.5556  -42.1671 H         1 UNK         0.0983 
     79 H79        18.7580  -26.0387  -43.2435 H         1 UNK         0.3095 
     80 H80        21.2088  -24.5977  -43.8549 H         1 UNK         0.0454 
     81 H81        23.2137  -25.9133  -44.4373 H         1 UNK         0.0851 
     82 H82        22.5661  -25.1748  -45.8910 H         1 UNK         0.0851 
     83 H83        22.3036  -26.8887  -45.5726 H         1 UNK         0.0851 
     84 H84        19.4930  -24.4510  -45.2452 H         1 UNK         0.2976 
     85 H85        20.6286  -29.1115  -40.7071 H         1 UNK         0.3116 
     86 H86        21.8998  -29.3354  -38.9410 H         1 UNK         0.0646 
     87 H87        20.1241  -27.3445  -37.4368 H         1 UNK         0.0847 
     88 H88        19.8079  -29.0733  -37.5775 H         1 UNK         0.0847 
     89 H89        21.2336  -28.5042  -36.7278 H         1 UNK         0.0847 
     90 H90        22.1981  -26.8594  -40.8764 H         1 UNK         0.3040 
     91 H91        24.0241  -25.1431  -39.2984 H         1 UNK         0.1015 
     92 H92        24.0910  -23.7881  -41.3502 H         1 UNK         0.0786 
     93 H93        22.4185  -24.1129  -40.9202 H         1 UNK         0.0786 
     94 H94        23.1832  -24.9997  -42.2376 H         1 UNK         0.0786 
     95 H95        25.0883  -27.3624  -38.9537 H         1 UNK         0.3172 
     96 H96        26.8712  -28.6517  -39.0223 H         1 UNK         0.0595 
     97 H97        28.0658  -26.8918  -41.2262 H         1 UNK         0.0839 
     98 H98        28.9297  -28.0263  -40.2051 H         1 UNK         0.0839 
     99 H99        28.2170  -26.5885  -39.4952 H         1 UNK         0.0839 
    100 H100       24.6623  -28.6646  -41.4027 H         1 UNK         0.2998 
    101 H101       25.7811  -30.6899  -43.1838 H         1 UNK         0.0822 
    102 H102       23.4640  -30.7173  -44.0967 H         1 UNK         0.0787 
    103 H103       24.0263  -29.0595  -43.9529 H         1 UNK         0.0787 
    104 H104       22.8975  -29.7107  -42.7691 H         1 UNK         0.0787 
    105 H105       25.3354  -32.8974  -43.1170 H         1 UNK         0.3055 
    106 H106       25.0470  -34.1424  -40.6062 H         1 UNK         0.1106 
    107 H107       26.2849  -35.1569  -42.5024 H         1 UNK         0.0828 
    108 H108       25.0357  -36.2570  -41.9481 H         1 UNK         0.0828 
    109 H109       24.7902  -35.3336  -43.4234 H         1 UNK         0.0828 
    110 H110       22.5965  -33.3635  -43.0020 H         1 UNK         0.2931 
    111 H111       20.4739  -34.8510  -41.6999 H         1 UNK         0.0412 
    112 H112       22.0223  -31.9888  -40.6250 H         1 UNK         0.3472 
    113 H113       20.6404  -31.4157  -39.7221 H         1 UNK         0.3472 
    114 H114       18.9993  -33.4372  -43.3699 H         1 UNK         0.0970 
    115 H115       19.9711  -34.7554  -43.9114 H         1 UNK         0.0970 
    116 H116       20.7290  -30.8634  -43.2094 H         1 UNK         0.0612 
    117 H117       20.9973  -30.3294  -44.8439 H         1 UNK         0.0612 
@<TRIPOS>BOND
     1    1    2 1    
     2    1   62 1    
     3    1   63 1    
     4    1   64 1    
     5    2    3 2    
     6    2    4 am   BACKBONE|DICT|INTERRES
     7    4    5 1    
     8    4   65 1    
     9    5    6 1    
    10    5   25 1    
    11    5   66 1    
    12    6    7 1    
    13    6   67 1    
    14    6   68 1    
    15    7    8 1    
    16    8    9 1    
    17    8   69 1    
    18    8   70 1    
    19    9   10 ar   
    20    9   14 ar   
    21   10   11 ar   
    22   10   71 1    
    23   11   12 ar   
    24   11   61 1    
    25   12   13 ar   
    26   12   72 1    
    27   13   14 ar   
    28   13   15 1    
    29   14   73 1    
    30   15   16 1    
    31   15   74 1    
    32   15   75 1    
    33   16   17 1    
    34   17   18 1    
    35   17   76 1    
    36   17   77 1    
    37   18   19 1    
    38   18   27 1    
    39   18   78 1    
    40   19   20 am   BACKBONE|DICT|INTERRES
    41   19   79 1    
    42   20   21 2    
    43   20   22 1    
    44   22   23 1    
    45   22   24 1    
    46   22   80 1    
    47   23   81 1    
    48   23   82 1    
    49   23   83 1    
    50   24   25 am   BACKBONE|DICT|INTERRES
    51   24   84 1    
    52   25   26 2    
    53   27   28 2    
    54   27   29 am   BACKBONE|DICT|INTERRES
    55   29   30 1    
    56   29   85 1    
    57   30   31 1    
    58   30   32 1    
    59   30   86 1    
    60   31   87 1    
    61   31   88 1    
    62   31   89 1    
    63   32   33 2    
    64   32   34 am   BACKBONE|DICT|INTERRES
    65   34   35 1    
    66   34   90 1    
    67   35   36 1    
    68   35   37 1    
    69   35   91 1    
    70   36   92 1    
    71   36   93 1    
    72   36   94 1    
    73   37   38 2    
    74   37   39 am   BACKBONE|DICT|INTERRES
    75   39   40 1    
    76   39   95 1    
    77   40   41 1    
    78   40   42 1    
    79   40   96 1    
    80   41   97 1    
    81   41   98 1    
    82   41   99 1    
    83   42   43 2    
    84   42   44 am   BACKBONE|DICT|INTERRES
    85   44   45 1    
    86   44  100 1    
    87   45   46 1    
    88   45   47 1    
    89   45  101 1    
    90   46  102 1    
    91   46  103 1    
    92   46  104 1    
    93   47   48 2    
    94   47   49 am   BACKBONE|DICT|INTERRES
    95   49   50 1    
    96   49  105 1    
    97   50   51 1    
    98   50   52 1    
    99   50  106 1    
   100   51  107 1    
   101   51  108 1    
   102   51  109 1    
   103   52   53 2    
   104   52   54 am   BACKBONE|DICT|INTERRES
   105   54   55 1    
   106   54  110 1    
   107   55   56 1    
   108   55   59 1    
   109   55  111 1    
   110   56   57 am   BACKBONE|DICT|INTERRES
   111   56   58 2    
   112   57  112 1    
   113   57  113 1    
   114   59   60 1    
   115   59  114 1    
   116   59  115 1    
   117   60   61 1    
   118   61  116 1    
   119   61  117 1    
@<TRIPOS>SUBSTRUCTURE
     1 UNK         1 GROUP             0       ****    0 ROOT    
