@<TRIPOS>MOLECULE
3R8
117   119    1
SMALL
USER_CHARGES


@<TRIPOS>ATOM
      1 CA         16.8936  -26.8040  -41.4366 C.3       0 UNK        -0.2013 
      2 C          16.2874  -26.1688  -42.6761 C.2       0 UNK         0.4866 
      3 O          15.8548  -25.0170  -42.6270 O.2       0 UNK        -0.5176 
      4 N          16.2599  -26.9098  -43.7922 N.am      1 UNK        -0.4884 
      5 CA         15.7785  -26.4305  -45.0979 C.3       1 UNK         0.0853 
      6 C6         15.5523  -27.5865  -46.1051 C.3       10 UNK        -0.0849 
      7 S7         14.4644  -28.8958  -45.4455 S.3       10 UNK        -0.2776 
      8 C8         15.5230  -30.3755  -45.5820 C.3       10 UNK         0.0316 
      9 C9         16.7751  -30.2975  -44.7152 C.ar      10 UNK        -0.0863 
     10 C10        16.6682  -30.2749  -43.3219 C.ar      10 UNK        -0.1009 
     11 C11        17.8135  -30.2398  -42.5204 C.ar      10 UNK        -0.0712 
     12 C12        19.0762  -30.2243  -43.1226 C.ar      10 UNK        -0.0894 
     13 C13        19.1975  -30.2814  -44.5144 C.ar      10 UNK        -0.0745 
     14 C14        18.0436  -30.3036  -45.3045 C.ar      10 UNK        -0.0972 
     15 C15        20.5669  -30.4069  -45.1683 C.3       10 UNK         0.0209 
     16 S16        21.0647  -28.8986  -46.0533 S.3       10 UNK        -0.2568 
     17 C17        22.0322  -28.0247  -44.7777 C.3       10 UNK        -0.0983 
     18 CA         22.5140  -26.6327  -45.2709 C.3       3 UNK         0.0876 
     19 N          21.4202  -25.7523  -45.7080 N.am      3 UNK        -0.4424 
     20 C          20.3486  -25.3683  -45.0045 C.2       2 UNK         0.4918 
     21 O          20.2258  -25.5514  -43.7909 O.2       2 UNK        -0.4875 
     22 CA         19.1778  -24.7438  -45.7791 C.3       2 UNK         0.0481 
     23 CB         19.3772  -24.6948  -47.3128 C.3       2 UNK        -0.1831 
     24 N          18.0301  -25.5640  -45.4185 N.am      2 UNK        -0.4498 
     25 C          16.7373  -25.3849  -45.7057 C.2       1 UNK         0.5027 
     26 O          16.2943  -24.4645  -46.3938 O.2       1 UNK        -0.4969 
     27 C          23.4903  -25.9851  -44.2676 C.2       3 UNK         0.5005 
     28 O          24.7012  -26.1145  -44.4507 O.2       3 UNK        -0.5279 
     29 N          22.9661  -25.3157  -43.2309 N.am      4 UNK        -0.4463 
     30 CA         23.6386  -24.5456  -42.1689 C.3       4 UNK         0.0283 
     31 CB         24.3994  -23.3450  -42.7638 C.3       4 UNK        -0.1875 
     32 C          24.5529  -25.3443  -41.2155 C.2       4 UNK         0.4949 
     33 O          24.7004  -24.9445  -40.0608 O.2       4 UNK        -0.5039 
     34 N          25.1441  -26.4467  -41.6910 N.am      5 UNK        -0.4663 
     35 CA         26.0838  -27.3082  -40.9650 C.3       5 UNK         0.0242 
     36 CB         26.7439  -28.2681  -41.9693 C.3       5 UNK        -0.1982 
     37 C          25.4641  -28.1062  -39.8036 C.2       5 UNK         0.5017 
     38 O          26.2118  -28.6154  -38.9678 O.2       5 UNK        -0.5012 
     39 N          24.1289  -28.2375  -39.7903 N.am      6 UNK        -0.4439 
     40 CA         23.2757  -28.9545  -38.8291 C.3       6 UNK         0.0297 
     41 CB         23.4365  -28.4078  -37.3975 C.3       6 UNK        -0.2006 
     42 C          23.4299  -30.4854  -38.8626 C.2       6 UNK         0.4892 
     43 O          22.4200  -31.1847  -38.9267 O.2       6 UNK        -0.5089 
     44 N          24.6728  -30.9856  -38.8751 N.am      7 UNK        -0.4243 
     45 CA         25.0215  -32.4074  -38.9953 C.3       7 UNK         0.0196 
     46 CB         26.5434  -32.5680  -38.8576 C.3       7 UNK        -0.2007 
     47 C          24.5282  -33.0494  -40.3052 C.2       7 UNK         0.5020 
     48 O          24.2172  -34.2404  -40.3234 O.2       7 UNK        -0.5147 
     49 N          24.4097  -32.2325  -41.3615 N.am      8 UNK        -0.4734 
     50 CA         23.8358  -32.5878  -42.6628 C.3       8 UNK         0.0238 
     51 CB         24.0741  -31.4225  -43.6366 C.3       8 UNK        -0.1912 
     52 C          22.3393  -32.9609  -42.6162 C.2       8 UNK         0.5038 
     53 O          21.8531  -33.5780  -43.5641 O.2       8 UNK        -0.5046 
     54 N          21.6428  -32.5969  -41.5294 N.am      9 UNK        -0.4200 
     55 CA         20.2700  -33.0277  -41.2270 C.3       9 UNK         0.0839 
     56 C          20.1526  -34.5326  -40.8350 C.2       9 UNK         0.5513 
     57 N          21.2378  -35.2219  -40.4958 N.am      9 UNK        -0.7519 
     58 O          19.0596  -35.0918  -40.8513 O.2       9 UNK        -0.4960 
     59 C59        19.6347  -32.0999  -40.1551 C.3       10 UNK        -0.0876 
     60 S60        17.8257  -31.9163  -40.3127 S.3       10 UNK        -0.2414 
     61 C61        17.6762  -30.2388  -41.0049 C.3       10 UNK         0.0169 
     62 H62        17.2123  -26.0376  -40.7303 H         1 UNK         0.0903 
     63 H63        16.1620  -27.4413  -40.9413 H         1 UNK         0.0903 
     64 H64        17.7681  -27.3999  -41.6952 H         1 UNK         0.0903 
     65 H65        16.5813  -27.8692  -43.7705 H         1 UNK         0.3096 
     66 H66        14.8203  -25.9311  -44.9358 H         1 UNK         0.1121 
     67 H67        16.5050  -28.0228  -46.4114 H         1 UNK         0.0849 
     68 H68        15.0933  -27.2037  -47.0188 H         1 UNK         0.0849 
     69 H69        14.9427  -31.2498  -45.2840 H         1 UNK         0.0865 
     70 H70        15.7831  -30.5298  -46.6306 H         1 UNK         0.0865 
     71 H71        15.6891  -30.2967  -42.8619 H         1 UNK         0.1346 
     72 H72        19.9643  -30.2124  -42.5067 H         1 UNK         0.1412 
     73 H73        18.1394  -30.3535  -46.3809 H         1 UNK         0.1426 
     74 H74        20.5421  -31.2339  -45.8794 H         1 UNK         0.0716 
     75 H75        21.3249  -30.6710  -44.4313 H         1 UNK         0.0716 
     76 H76        22.8901  -28.6493  -44.5258 H         1 UNK         0.0695 
     77 H77        21.4315  -27.9411  -43.8704 H         1 UNK         0.0695 
     78 H78        23.1050  -26.8062  -46.1723 H         1 UNK         0.0983 
     79 H79        21.4295  -25.5309  -46.6930 H         1 UNK         0.3095 
     80 H80        19.0232  -23.7328  -45.3990 H         1 UNK         0.0454 
     81 H81        18.5292  -24.2241  -47.8094 H         1 UNK         0.0851 
     82 H82        19.4933  -25.6913  -47.7415 H         1 UNK         0.0851 
     83 H83        20.2543  -24.1048  -47.5811 H         1 UNK         0.0851 
     84 H84        18.2604  -26.3233  -44.7898 H         1 UNK         0.2976 
     85 H85        21.9481  -25.3179  -43.1854 H         1 UNK         0.3116 
     86 H86        22.8331  -24.1466  -41.5504 H         1 UNK         0.0646 
     87 H87        25.2314  -23.6615  -43.3937 H         1 UNK         0.0847 
     88 H88        23.7424  -22.7174  -43.3658 H         1 UNK         0.0847 
     89 H89        24.8134  -22.7157  -41.9747 H         1 UNK         0.0847 
     90 H90        25.0256  -26.6268  -42.6851 H         1 UNK         0.3040 
     91 H91        26.8590  -26.6703  -40.5346 H         1 UNK         0.1015 
     92 H92        27.4760  -28.9106  -41.4777 H         1 UNK         0.0786 
     93 H93        27.2710  -27.7212  -42.7516 H         1 UNK         0.0786 
     94 H94        26.0106  -28.9162  -42.4508 H         1 UNK         0.0786 
     95 H95        23.6352  -27.7887  -40.5490 H         1 UNK         0.3172 
     96 H96        22.2514  -28.7413  -39.1397 H         1 UNK         0.0595 
     97 H97        24.4300  -28.6001  -36.9917 H         1 UNK         0.0839 
     98 H98        22.7175  -28.8733  -36.7221 H         1 UNK         0.0839 
     99 H99        23.2636  -27.3321  -37.3632 H         1 UNK         0.0839 
    100 H100       25.4385  -30.3178  -38.8211 H         1 UNK         0.2998 
    101 H101       24.5403  -32.9373  -38.1706 H         1 UNK         0.0822 
    102 H102       26.8334  -33.6177  -38.9236 H         1 UNK         0.0787 
    103 H103       26.8958  -32.1955  -37.8954 H         1 UNK         0.0787 
    104 H104       27.0786  -32.0305  -39.6416 H         1 UNK         0.0787 
    105 H105       24.6955  -31.2723  -41.2403 H         1 UNK         0.3055 
    106 H106       24.3690  -33.4656  -43.0347 H         1 UNK         0.1106 
    107 H107       23.6056  -30.5049  -43.2815 H         1 UNK         0.0828 
    108 H108       25.1383  -31.2270  -43.7693 H         1 UNK         0.0828 
    109 H109       23.6638  -31.6426  -44.6234 H         1 UNK         0.0828 
    110 H110       22.1239  -32.1156  -40.7787 H         1 UNK         0.2931 
    111 H111       19.7026  -32.9091  -42.1521 H         1 UNK         0.0412 
    112 H112       22.1527  -34.7880  -40.4821 H         1 UNK         0.3472 
    113 H113       21.1434  -36.1951  -40.2516 H         1 UNK         0.3472 
    114 H114       19.8665  -32.4511  -39.1476 H         1 UNK         0.0970 
    115 H115       20.0766  -31.1046  -40.2085 H         1 UNK         0.0970 
    116 H116       16.6990  -29.8449  -40.7226 H         1 UNK         0.0612 
    117 H117       18.4101  -29.5705  -40.5527 H         1 UNK         0.0612 
@<TRIPOS>BOND
     1    1    2 1    
     2    1   62 1    
     3    1   63 1    
     4    1   64 1    
     5    2    3 2    
     6    2    4 am   BACKBONE|DICT|INTERRES
     7    4    5 1    
     8    4   65 1    
     9    5    6 1    
    10    5   25 1    
    11    5   66 1    
    12    6    7 1    
    13    6   67 1    
    14    6   68 1    
    15    7    8 1    
    16    8    9 1    
    17    8   69 1    
    18    8   70 1    
    19    9   10 ar   
    20    9   14 ar   
    21   10   11 ar   
    22   10   71 1    
    23   11   12 ar   
    24   11   61 1    
    25   12   13 ar   
    26   12   72 1    
    27   13   14 ar   
    28   13   15 1    
    29   14   73 1    
    30   15   16 1    
    31   15   74 1    
    32   15   75 1    
    33   16   17 1    
    34   17   18 1    
    35   17   76 1    
    36   17   77 1    
    37   18   19 1    
    38   18   27 1    
    39   18   78 1    
    40   19   20 am   BACKBONE|DICT|INTERRES
    41   19   79 1    
    42   20   21 2    
    43   20   22 1    
    44   22   23 1    
    45   22   24 1    
    46   22   80 1    
    47   23   81 1    
    48   23   82 1    
    49   23   83 1    
    50   24   25 am   BACKBONE|DICT|INTERRES
    51   24   84 1    
    52   25   26 2    
    53   27   28 2    
    54   27   29 am   BACKBONE|DICT|INTERRES
    55   29   30 1    
    56   29   85 1    
    57   30   31 1    
    58   30   32 1    
    59   30   86 1    
    60   31   87 1    
    61   31   88 1    
    62   31   89 1    
    63   32   33 2    
    64   32   34 am   BACKBONE|DICT|INTERRES
    65   34   35 1    
    66   34   90 1    
    67   35   36 1    
    68   35   37 1    
    69   35   91 1    
    70   36   92 1    
    71   36   93 1    
    72   36   94 1    
    73   37   38 2    
    74   37   39 am   BACKBONE|DICT|INTERRES
    75   39   40 1    
    76   39   95 1    
    77   40   41 1    
    78   40   42 1    
    79   40   96 1    
    80   41   97 1    
    81   41   98 1    
    82   41   99 1    
    83   42   43 2    
    84   42   44 am   BACKBONE|DICT|INTERRES
    85   44   45 1    
    86   44  100 1    
    87   45   46 1    
    88   45   47 1    
    89   45  101 1    
    90   46  102 1    
    91   46  103 1    
    92   46  104 1    
    93   47   48 2    
    94   47   49 am   BACKBONE|DICT|INTERRES
    95   49   50 1    
    96   49  105 1    
    97   50   51 1    
    98   50   52 1    
    99   50  106 1    
   100   51  107 1    
   101   51  108 1    
   102   51  109 1    
   103   52   53 2    
   104   52   54 am   BACKBONE|DICT|INTERRES
   105   54   55 1    
   106   54  110 1    
   107   55   56 1    
   108   55   59 1    
   109   55  111 1    
   110   56   57 am   BACKBONE|DICT|INTERRES
   111   56   58 2    
   112   57  112 1    
   113   57  113 1    
   114   59   60 1    
   115   59  114 1    
   116   59  115 1    
   117   60   61 1    
   118   61  116 1    
   119   61  117 1    
@<TRIPOS>SUBSTRUCTURE
     1 UNK         1 GROUP             0       ****    0 ROOT    
