@<TRIPOS>MOLECULE
3R8
117   119    1
SMALL
USER_CHARGES


@<TRIPOS>ATOM
      1 CA         19.4354  -29.5076  -48.8010 C.3       0 UNK        -0.2013 
      2 C          18.8342  -28.4884  -47.8448 C.2       0 UNK         0.4866 
      3 O          18.6552  -27.3301  -48.2214 O.2       0 UNK        -0.5176 
      4 N          18.5313  -28.9170  -46.6122 N.am      1 UNK        -0.4884 
      5 CA         17.9448  -28.1183  -45.5247 C.3       1 UNK         0.0853 
      6 C6         16.4823  -27.6497  -45.7920 C.3       10 UNK        -0.0849 
      7 S7         15.3497  -29.0251  -46.2247 S.3       10 UNK        -0.2776 
      8 C8         14.6007  -29.4709  -44.6166 C.3       10 UNK         0.0316 
      9 C9         15.6673  -29.7621  -43.5725 C.ar      10 UNK        -0.0863 
     10 C10        16.5203  -30.8576  -43.7277 C.ar      10 UNK        -0.1009 
     11 C11        17.6256  -31.0165  -42.8880 C.ar      10 UNK        -0.0712 
     12 C12        17.8437  -30.1029  -41.8510 C.ar      10 UNK        -0.0894 
     13 C13        16.9704  -29.0260  -41.6600 C.ar      10 UNK        -0.0745 
     14 C14        15.8737  -28.8737  -42.5147 C.ar      10 UNK        -0.0972 
     15 C15        17.2368  -27.9926  -40.5721 C.3       10 UNK         0.0209 
     16 S16        17.3930  -26.3225  -41.2888 S.3       10 UNK        -0.2568 
     17 C17        18.7854  -25.6057  -40.3572 C.3       10 UNK        -0.0983 
     18 CA         20.1712  -26.0925  -40.8507 C.3       3 UNK         0.0876 
     19 N          20.3112  -26.0354  -42.3107 N.am      3 UNK        -0.4424 
     20 C          21.3734  -26.4593  -43.0067 C.2       2 UNK         0.4918 
     21 O          22.3918  -26.9154  -42.4843 O.2       2 UNK        -0.4875 
     22 CA         21.2569  -26.3976  -44.5406 C.3       2 UNK         0.0481 
     23 CB         22.5705  -26.7880  -45.2431 C.3       2 UNK        -0.1831 
     24 N          20.1915  -27.2814  -45.0157 N.am      2 UNK        -0.4498 
     25 C          18.8836  -26.9870  -45.0499 C.2       1 UNK         0.5027 
     26 O          18.4285  -25.8928  -44.7107 O.2       1 UNK        -0.4969 
     27 C          21.3019  -25.3249  -40.1354 C.2       3 UNK         0.5005 
     28 O          21.7243  -24.2693  -40.6152 O.2       3 UNK        -0.5279 
     29 N          21.7917  -25.8910  -39.0237 N.am      4 UNK        -0.4463 
     30 CA         22.9474  -25.4756  -38.2121 C.3       4 UNK         0.0283 
     31 CB         22.7684  -24.0562  -37.6384 C.3       4 UNK        -0.1875 
     32 C          24.3116  -25.6230  -38.9164 C.2       4 UNK         0.4949 
     33 O          25.2638  -26.0687  -38.2767 O.2       4 UNK        -0.5039 
     34 N          24.3899  -25.2654  -40.2046 N.am      5 UNK        -0.4663 
     35 CA         25.5872  -25.3680  -41.0432 C.3       5 UNK         0.0242 
     36 CB         25.3611  -24.5927  -42.3516 C.3       5 UNK        -0.1982 
     37 C          25.9886  -26.8237  -41.3333 C.2       5 UNK         0.5017 
     38 O          27.1642  -27.1672  -41.2040 O.2       5 UNK        -0.5012 
     39 N          25.0035  -27.6488  -41.7024 N.am      6 UNK        -0.4439 
     40 CA         25.1397  -29.0761  -41.9745 C.3       6 UNK         0.0297 
     41 CB         25.6118  -29.3002  -43.4249 C.3       6 UNK        -0.2006 
     42 C          23.7926  -29.7395  -41.6665 C.2       6 UNK         0.4892 
     43 O          23.1648  -30.3122  -42.5570 O.2       6 UNK        -0.5089 
     44 N          23.3604  -29.6144  -40.4028 N.am      7 UNK        -0.4243 
     45 CA         22.0342  -29.9928  -39.8961 C.3       7 UNK         0.0196 
     46 CB         21.9460  -29.6158  -38.4081 C.3       7 UNK        -0.2007 
     47 C          21.6376  -31.4690  -40.0851 C.2       7 UNK         0.5020 
     48 O          20.4467  -31.7741  -40.0510 O.2       7 UNK        -0.5147 
     49 N          22.6217  -32.3567  -40.2728 N.am      8 UNK        -0.4734 
     50 CA         22.4048  -33.7693  -40.5929 C.3       8 UNK         0.0238 
     51 CB         23.6673  -34.5642  -40.2194 C.3       8 UNK        -0.1912 
     52 C          22.0363  -34.0116  -42.0697 C.2       8 UNK         0.5038 
     53 O          21.5131  -35.0834  -42.3768 O.2       8 UNK        -0.5046 
     54 N          22.3330  -33.0443  -42.9520 N.am      9 UNK        -0.4200 
     55 CA         22.1637  -33.1124  -44.4148 C.3       9 UNK         0.0839 
     56 C          23.0168  -34.2147  -45.1169 C.2       9 UNK         0.5513 
     57 N          24.1063  -34.6826  -44.5188 N.am      9 UNK        -0.7519 
     58 O          22.7126  -34.6330  -46.2314 O.2       9 UNK        -0.4960 
     59 C59        20.6710  -33.1192  -44.8516 C.3       10 UNK        -0.0876 
     60 S60        19.8216  -31.5635  -44.4218 S.3       10 UNK        -0.2414 
     61 C61        18.6256  -32.1240  -43.1714 C.3       10 UNK         0.0169 
     62 H62        20.4149  -29.1716  -49.1403 H         1 UNK         0.0903 
     63 H63        19.5556  -30.4851  -48.3340 H         1 UNK         0.0903 
     64 H64        18.7940  -29.6257  -49.6739 H         1 UNK         0.0903 
     65 H65        18.7029  -29.8854  -46.3762 H         1 UNK         0.3096 
     66 H66        17.9193  -28.7866  -44.6681 H         1 UNK         0.1121 
     67 H67        16.4633  -26.9255  -46.6078 H         1 UNK         0.0849 
     68 H68        16.0804  -27.1279  -44.9216 H         1 UNK         0.0849 
     69 H69        13.9434  -28.6631  -44.2909 H         1 UNK         0.0865 
     70 H70        13.9681  -30.3502  -44.7456 H         1 UNK         0.0865 
     71 H71        16.3755  -31.5349  -44.5588 H         1 UNK         0.1346 
     72 H72        18.7116  -30.2145  -41.2163 H         1 UNK         0.1412 
     73 H73        15.2206  -28.0198  -42.3940 H         1 UNK         0.1426 
     74 H74        18.1396  -28.2478  -40.0159 H         1 UNK         0.0716 
     75 H75        16.4164  -28.0001  -39.8534 H         1 UNK         0.0716 
     76 H76        18.6513  -25.8268  -39.2965 H         1 UNK         0.0695 
     77 H77        18.7090  -24.5206  -40.4533 H         1 UNK         0.0695 
     78 H78        20.2687  -27.1472  -40.5880 H         1 UNK         0.0983 
     79 H79        19.5048  -25.6998  -42.8239 H         1 UNK         0.3095 
     80 H80        21.0233  -25.3669  -44.8148 H         1 UNK         0.0454 
     81 H81        22.8562  -27.8169  -45.0204 H         1 UNK         0.0851 
     82 H82        23.3918  -26.1454  -44.9239 H         1 UNK         0.0851 
     83 H83        22.4860  -26.6901  -46.3254 H         1 UNK         0.0851 
     84 H84        20.4715  -28.2127  -45.2890 H         1 UNK         0.2976 
     85 H85        21.3608  -26.7513  -38.7165 H         1 UNK         0.3116 
     86 H86        22.9647  -26.1625  -37.3642 H         1 UNK         0.0646 
     87 H87        22.7807  -23.2927  -38.4166 H         1 UNK         0.0847 
     88 H88        23.5732  -23.8164  -36.9423 H         1 UNK         0.0847 
     89 H89        21.8299  -23.9637  -37.0921 H         1 UNK         0.0847 
     90 H90        23.5479  -24.8897  -40.6332 H         1 UNK         0.3040 
     91 H91        26.4152  -24.8992  -40.5066 H         1 UNK         0.1015 
     92 H92        24.5119  -24.9843  -42.9128 H         1 UNK         0.0786 
     93 H93        26.2374  -24.6533  -42.9987 H         1 UNK         0.0786 
     94 H94        25.1742  -23.5363  -42.1578 H         1 UNK         0.0786 
     95 H95        24.0604  -27.2760  -41.8192 H         1 UNK         0.3172 
     96 H96        25.8769  -29.5097  -41.2956 H         1 UNK         0.0595 
     97 H97        24.9161  -28.8679  -44.1444 H         1 UNK         0.0839 
     98 H98        25.6955  -30.3644  -43.6488 H         1 UNK         0.0839 
     99 H99        26.5914  -28.8547  -43.5977 H         1 UNK         0.0839 
    100 H100       23.9664  -29.1384  -39.7499 H         1 UNK         0.2998 
    101 H101       21.3044  -29.3991  -40.4499 H         1 UNK         0.0822 
    102 H102       22.1856  -28.5677  -38.2400 H         1 UNK         0.0787 
    103 H103       20.9403  -29.7862  -38.0204 H         1 UNK         0.0787 
    104 H104       22.6314  -30.2119  -37.8039 H         1 UNK         0.0787 
    105 H105       23.5747  -32.0235  -40.2694 H         1 UNK         0.3055 
    106 H106       21.5748  -34.1436  -39.9887 H         1 UNK         0.1106 
    107 H107       23.5337  -35.6278  -40.4225 H         1 UNK         0.0828 
    108 H108       24.5386  -34.2318  -40.7849 H         1 UNK         0.0828 
    109 H109       23.8977  -34.4668  -39.1583 H         1 UNK         0.0828 
    110 H110       22.7133  -32.1650  -42.6133 H         1 UNK         0.2931 
    111 H111       22.5948  -32.1818  -44.7863 H         1 UNK         0.0412 
    112 H112       24.6596  -35.3871  -44.9811 H         1 UNK         0.3472 
    113 H113       24.3806  -34.3374  -43.6134 H         1 UNK         0.3472 
    114 H114       20.5857  -33.2244  -45.9344 H         1 UNK         0.0970 
    115 H115       20.1454  -33.9761  -44.4284 H         1 UNK         0.0970 
    116 H116       18.1022  -33.0110  -43.5315 H         1 UNK         0.0612 
    117 H117       19.1531  -32.4170  -42.2637 H         1 UNK         0.0612 
@<TRIPOS>BOND
     1    1    2 1    
     2    1   62 1    
     3    1   63 1    
     4    1   64 1    
     5    2    3 2    
     6    2    4 am   BACKBONE|DICT|INTERRES
     7    4    5 1    
     8    4   65 1    
     9    5    6 1    
    10    5   25 1    
    11    5   66 1    
    12    6    7 1    
    13    6   67 1    
    14    6   68 1    
    15    7    8 1    
    16    8    9 1    
    17    8   69 1    
    18    8   70 1    
    19    9   10 ar   
    20    9   14 ar   
    21   10   11 ar   
    22   10   71 1    
    23   11   12 ar   
    24   11   61 1    
    25   12   13 ar   
    26   12   72 1    
    27   13   14 ar   
    28   13   15 1    
    29   14   73 1    
    30   15   16 1    
    31   15   74 1    
    32   15   75 1    
    33   16   17 1    
    34   17   18 1    
    35   17   76 1    
    36   17   77 1    
    37   18   19 1    
    38   18   27 1    
    39   18   78 1    
    40   19   20 am   BACKBONE|DICT|INTERRES
    41   19   79 1    
    42   20   21 2    
    43   20   22 1    
    44   22   23 1    
    45   22   24 1    
    46   22   80 1    
    47   23   81 1    
    48   23   82 1    
    49   23   83 1    
    50   24   25 am   BACKBONE|DICT|INTERRES
    51   24   84 1    
    52   25   26 2    
    53   27   28 2    
    54   27   29 am   BACKBONE|DICT|INTERRES
    55   29   30 1    
    56   29   85 1    
    57   30   31 1    
    58   30   32 1    
    59   30   86 1    
    60   31   87 1    
    61   31   88 1    
    62   31   89 1    
    63   32   33 2    
    64   32   34 am   BACKBONE|DICT|INTERRES
    65   34   35 1    
    66   34   90 1    
    67   35   36 1    
    68   35   37 1    
    69   35   91 1    
    70   36   92 1    
    71   36   93 1    
    72   36   94 1    
    73   37   38 2    
    74   37   39 am   BACKBONE|DICT|INTERRES
    75   39   40 1    
    76   39   95 1    
    77   40   41 1    
    78   40   42 1    
    79   40   96 1    
    80   41   97 1    
    81   41   98 1    
    82   41   99 1    
    83   42   43 2    
    84   42   44 am   BACKBONE|DICT|INTERRES
    85   44   45 1    
    86   44  100 1    
    87   45   46 1    
    88   45   47 1    
    89   45  101 1    
    90   46  102 1    
    91   46  103 1    
    92   46  104 1    
    93   47   48 2    
    94   47   49 am   BACKBONE|DICT|INTERRES
    95   49   50 1    
    96   49  105 1    
    97   50   51 1    
    98   50   52 1    
    99   50  106 1    
   100   51  107 1    
   101   51  108 1    
   102   51  109 1    
   103   52   53 2    
   104   52   54 am   BACKBONE|DICT|INTERRES
   105   54   55 1    
   106   54  110 1    
   107   55   56 1    
   108   55   59 1    
   109   55  111 1    
   110   56   57 am   BACKBONE|DICT|INTERRES
   111   56   58 2    
   112   57  112 1    
   113   57  113 1    
   114   59   60 1    
   115   59  114 1    
   116   59  115 1    
   117   60   61 1    
   118   61  116 1    
   119   61  117 1    
@<TRIPOS>SUBSTRUCTURE
     1 UNK         1 GROUP             0       ****    0 ROOT    
