@<TRIPOS>MOLECULE
3R8
117   119    1
SMALL
USER_CHARGES


@<TRIPOS>ATOM
      1 CA         16.1680  -26.2510  -47.0775 C.3       0 UNK        -0.2013 
      2 C          17.5127  -25.5940  -47.3519 C.2       0 UNK         0.4866 
      3 O          17.5553  -24.4108  -47.6883 O.2       0 UNK        -0.5176 
      4 N          18.6078  -26.3567  -47.2251 N.am      1 UNK        -0.4884 
      5 CA         19.9878  -25.9038  -47.4413 C.3       1 UNK         0.0853 
      6 C6         20.9835  -27.0965  -47.5162 C.3       10 UNK        -0.0849 
      7 S7         21.0945  -28.1141  -45.9952 S.3       10 UNK        -0.2776 
      8 C8         19.9449  -29.4824  -46.3368 C.3       10 UNK         0.0316 
      9 C9         19.1599  -29.8321  -45.0816 C.ar      10 UNK        -0.0863 
     10 C10        19.6181  -30.8259  -44.2135 C.ar      10 UNK        -0.1009 
     11 C11        18.9096  -31.1439  -43.0446 C.ar      10 UNK        -0.0712 
     12 C12        17.7326  -30.4420  -42.7579 C.ar      10 UNK        -0.0894 
     13 C13        17.2554  -29.4548  -43.6254 C.ar      10 UNK        -0.0745 
     14 C14        17.9734  -29.1588  -44.7855 C.ar      10 UNK        -0.0972 
     15 C15        15.9477  -28.7288  -43.3370 C.3       10 UNK         0.0209 
     16 S16        16.1744  -26.9278  -43.1797 S.3       10 UNK        -0.2568 
     17 C17        16.9345  -26.7885  -41.5279 C.3       10 UNK        -0.0983 
     18 CA         18.4791  -26.6823  -41.5667 C.3       3 UNK         0.0876 
     19 N          18.9422  -25.6247  -42.4809 N.am      3 UNK        -0.4424 
     20 C          20.2210  -25.3506  -42.7695 C.2       2 UNK         0.4918 
     21 O          21.1757  -25.8870  -42.2072 O.2       2 UNK        -0.4875 
     22 CA         20.4664  -24.3722  -43.9229 C.3       2 UNK         0.0481 
     23 CB         21.9162  -23.8333  -43.8968 C.3       2 UNK        -0.1831 
     24 N          20.1684  -25.1305  -45.1356 N.am      2 UNK        -0.4498 
     25 C          20.4195  -24.8312  -46.4159 C.2       1 UNK         0.5027 
     26 O          20.9317  -23.7813  -46.8067 O.2       1 UNK        -0.4969 
     27 C          19.0301  -26.5666  -40.1279 C.2       3 UNK         0.5005 
     28 O          19.1931  -27.5890  -39.4612 O.2       3 UNK        -0.5279 
     29 N          19.3158  -25.3341  -39.6805 N.am      4 UNK        -0.4463 
     30 CA         19.9336  -25.0384  -38.3848 C.3       4 UNK         0.0283 
     31 CB         19.8041  -23.5352  -38.0904 C.3       4 UNK        -0.1875 
     32 C          21.4076  -25.4767  -38.2990 C.2       4 UNK         0.4949 
     33 O          21.8660  -25.8242  -37.2105 O.2       4 UNK        -0.5039 
     34 N          22.1192  -25.4523  -39.4344 N.am      5 UNK        -0.4663 
     35 CA         23.4914  -25.9472  -39.5604 C.3       5 UNK         0.0242 
     36 CB         24.2354  -25.1381  -40.6367 C.3       5 UNK        -0.1982 
     37 C          23.5034  -27.4463  -39.8962 C.2       5 UNK         0.5017 
     38 O          24.2792  -28.1862  -39.2903 O.2       5 UNK        -0.5012 
     39 N          22.6213  -27.8431  -40.8283 N.am      6 UNK        -0.4439 
     40 CA         22.3913  -29.1766  -41.3942 C.3       6 UNK         0.0297 
     41 CB         22.0837  -30.2113  -40.2928 C.3       6 UNK        -0.2006 
     42 C          23.5328  -29.6609  -42.3046 C.2       6 UNK         0.4892 
     43 O          24.7043  -29.3519  -42.0785 O.2       6 UNK        -0.5089 
     44 N          23.1760  -30.4838  -43.2979 N.am      7 UNK        -0.4243 
     45 CA         24.1099  -31.1905  -44.1809 C.3       7 UNK         0.0196 
     46 CB         23.4325  -31.4270  -45.5437 C.3       7 UNK        -0.2007 
     47 C          24.5777  -32.4984  -43.5141 C.2       7 UNK         0.5020 
     48 O          24.3777  -33.5826  -44.0652 O.2       7 UNK        -0.5147 
     49 N          25.1344  -32.3684  -42.3010 N.am      8 UNK        -0.4734 
     50 CA         25.4464  -33.4106  -41.3132 C.3       8 UNK         0.0238 
     51 CB         26.4673  -34.4378  -41.8447 C.3       8 UNK        -0.1912 
     52 C          24.1784  -34.0810  -40.7547 C.2       8 UNK         0.5038 
     53 O          23.8985  -33.9371  -39.5645 O.2       8 UNK        -0.5046 
     54 N          23.4284  -34.7632  -41.6297 N.am      9 UNK        -0.4200 
     55 CA         22.1168  -35.3866  -41.3772 C.3       9 UNK         0.0839 
     56 C          22.1193  -36.5253  -40.3113 C.2       9 UNK         0.5513 
     57 N          23.2522  -37.1578  -40.0300 N.am      9 UNK        -0.7519 
     58 O          21.0792  -36.8669  -39.7535 O.2       9 UNK        -0.4960 
     59 C59        20.9945  -34.3328  -41.1466 C.3       10 UNK        -0.0876 
     60 S60        20.8232  -33.1967  -42.5642 S.3       10 UNK        -0.2414 
     61 C61        19.3545  -32.2342  -42.0645 C.3       10 UNK         0.0169 
     62 H62        15.7834  -25.9293  -46.1102 H         1 UNK         0.0903 
     63 H63        15.4466  -25.9630  -47.8417 H         1 UNK         0.0903 
     64 H64        16.2348  -27.3383  -47.0779 H         1 UNK         0.0903 
     65 H65        18.5105  -27.3234  -46.9589 H         1 UNK         0.3096 
     66 H66        20.0055  -25.4124  -48.4172 H         1 UNK         0.1121 
     67 H67        20.7267  -27.7399  -48.3592 H         1 UNK         0.0849 
     68 H68        21.9854  -26.7248  -47.7401 H         1 UNK         0.0849 
     69 H69        20.5103  -30.3462  -46.6899 H         1 UNK         0.0865 
     70 H70        19.2575  -29.2231  -47.1426 H         1 UNK         0.0865 
     71 H71        20.5258  -31.3489  -44.4696 H         1 UNK         0.1346 
     72 H72        17.1764  -30.6791  -41.8610 H         1 UNK         0.1412 
     73 H73        17.6018  -28.3962  -45.4517 H         1 UNK         0.1426 
     74 H74        15.4671  -29.1177  -42.4380 H         1 UNK         0.0716 
     75 H75        15.2558  -28.9204  -44.1582 H         1 UNK         0.0716 
     76 H76        16.6242  -27.6415  -40.9211 H         1 UNK         0.0695 
     77 H77        16.5066  -25.9066  -41.0471 H         1 UNK         0.0695 
     78 H78        18.8682  -27.6222  -41.9652 H         1 UNK         0.0983 
     79 H79        18.2140  -25.1537  -42.9992 H         1 UNK         0.3095 
     80 H80        19.7663  -23.5397  -43.8380 H         1 UNK         0.0454 
     81 H81        22.0641  -23.0302  -44.6176 H         1 UNK         0.0851 
     82 H82        22.6431  -24.6175  -44.1123 H         1 UNK         0.0851 
     83 H83        22.1624  -23.4207  -42.9175 H         1 UNK         0.0851 
     84 H84        19.7707  -26.0450  -44.9638 H         1 UNK         0.2976 
     85 H85        19.1322  -24.5512  -40.2913 H         1 UNK         0.3116 
     86 H86        19.3825  -25.5841  -37.6157 H         1 UNK         0.0646 
     87 H87        20.2322  -23.2913  -37.1170 H         1 UNK         0.0847 
     88 H88        18.7601  -23.2220  -38.0695 H         1 UNK         0.0847 
     89 H89        20.3235  -22.9297  -38.8342 H         1 UNK         0.0847 
     90 H90        21.6471  -25.2112  -40.2971 H         1 UNK         0.3040 
     91 H91        24.0178  -25.8102  -38.6128 H         1 UNK         0.1015 
     92 H92        24.2650  -24.0780  -40.3848 H         1 UNK         0.0786 
     93 H93        23.7700  -25.2364  -41.6179 H         1 UNK         0.0786 
     94 H94        25.2676  -25.4780  -40.7320 H         1 UNK         0.0786 
     95 H95        22.0814  -27.1061  -41.2798 H         1 UNK         0.3172 
     96 H96        21.4994  -29.0763  -42.0159 H         1 UNK         0.0595 
     97 H97        22.9271  -30.3603  -39.6187 H         1 UNK         0.0839 
     98 H98        21.8577  -31.1857  -40.7217 H         1 UNK         0.0839 
     99 H99        21.2231  -29.9089  -39.6957 H         1 UNK         0.0839 
    100 H100       22.2027  -30.7369  -43.3853 H         1 UNK         0.2998 
    101 H101       24.9939  -30.5719  -44.3511 H         1 UNK         0.0822 
    102 H102       22.5596  -32.0748  -45.4569 H         1 UNK         0.0787 
    103 H103       23.1136  -30.4881  -45.9962 H         1 UNK         0.0787 
    104 H104       24.1215  -31.9038  -46.2420 H         1 UNK         0.0787 
    105 H105       25.2266  -31.4167  -41.9600 H         1 UNK         0.3055 
    106 H106       25.9177  -32.8933  -40.4754 H         1 UNK         0.1106 
    107 H107       26.7440  -35.1468  -41.0635 H         1 UNK         0.0828 
    108 H108       26.0817  -35.0178  -42.6830 H         1 UNK         0.0828 
    109 H109       27.3834  -33.9475  -42.1739 H         1 UNK         0.0828 
    110 H110       23.7292  -34.7458  -42.5990 H         1 UNK         0.2931 
    111 H111       21.8728  -35.9028  -42.3065 H         1 UNK         0.0412 
    112 H112       24.1098  -36.8955  -40.4890 H         1 UNK         0.3472 
    113 H113       23.2489  -37.9005  -39.3483 H         1 UNK         0.3472 
    114 H114       20.0311  -34.8241  -40.9985 H         1 UNK         0.0970 
    115 H115       21.1876  -33.7548  -40.2414 H         1 UNK         0.0970 
    116 H116       18.5268  -32.9300  -41.9194 H         1 UNK         0.0612 
    117 H117       19.5479  -31.7744  -41.0947 H         1 UNK         0.0612 
@<TRIPOS>BOND
     1    1    2 1    
     2    1   62 1    
     3    1   63 1    
     4    1   64 1    
     5    2    3 2    
     6    2    4 am   BACKBONE|DICT|INTERRES
     7    4    5 1    
     8    4   65 1    
     9    5    6 1    
    10    5   25 1    
    11    5   66 1    
    12    6    7 1    
    13    6   67 1    
    14    6   68 1    
    15    7    8 1    
    16    8    9 1    
    17    8   69 1    
    18    8   70 1    
    19    9   10 ar   
    20    9   14 ar   
    21   10   11 ar   
    22   10   71 1    
    23   11   12 ar   
    24   11   61 1    
    25   12   13 ar   
    26   12   72 1    
    27   13   14 ar   
    28   13   15 1    
    29   14   73 1    
    30   15   16 1    
    31   15   74 1    
    32   15   75 1    
    33   16   17 1    
    34   17   18 1    
    35   17   76 1    
    36   17   77 1    
    37   18   19 1    
    38   18   27 1    
    39   18   78 1    
    40   19   20 am   BACKBONE|DICT|INTERRES
    41   19   79 1    
    42   20   21 2    
    43   20   22 1    
    44   22   23 1    
    45   22   24 1    
    46   22   80 1    
    47   23   81 1    
    48   23   82 1    
    49   23   83 1    
    50   24   25 am   BACKBONE|DICT|INTERRES
    51   24   84 1    
    52   25   26 2    
    53   27   28 2    
    54   27   29 am   BACKBONE|DICT|INTERRES
    55   29   30 1    
    56   29   85 1    
    57   30   31 1    
    58   30   32 1    
    59   30   86 1    
    60   31   87 1    
    61   31   88 1    
    62   31   89 1    
    63   32   33 2    
    64   32   34 am   BACKBONE|DICT|INTERRES
    65   34   35 1    
    66   34   90 1    
    67   35   36 1    
    68   35   37 1    
    69   35   91 1    
    70   36   92 1    
    71   36   93 1    
    72   36   94 1    
    73   37   38 2    
    74   37   39 am   BACKBONE|DICT|INTERRES
    75   39   40 1    
    76   39   95 1    
    77   40   41 1    
    78   40   42 1    
    79   40   96 1    
    80   41   97 1    
    81   41   98 1    
    82   41   99 1    
    83   42   43 2    
    84   42   44 am   BACKBONE|DICT|INTERRES
    85   44   45 1    
    86   44  100 1    
    87   45   46 1    
    88   45   47 1    
    89   45  101 1    
    90   46  102 1    
    91   46  103 1    
    92   46  104 1    
    93   47   48 2    
    94   47   49 am   BACKBONE|DICT|INTERRES
    95   49   50 1    
    96   49  105 1    
    97   50   51 1    
    98   50   52 1    
    99   50  106 1    
   100   51  107 1    
   101   51  108 1    
   102   51  109 1    
   103   52   53 2    
   104   52   54 am   BACKBONE|DICT|INTERRES
   105   54   55 1    
   106   54  110 1    
   107   55   56 1    
   108   55   59 1    
   109   55  111 1    
   110   56   57 am   BACKBONE|DICT|INTERRES
   111   56   58 2    
   112   57  112 1    
   113   57  113 1    
   114   59   60 1    
   115   59  114 1    
   116   59  115 1    
   117   60   61 1    
   118   61  116 1    
   119   61  117 1    
@<TRIPOS>SUBSTRUCTURE
     1 UNK         1 GROUP             0       ****    0 ROOT    
