@<TRIPOS>MOLECULE
3R8
117   119    1
SMALL
USER_CHARGES


@<TRIPOS>ATOM
      1 CA         18.5372  -22.7868  -45.3810 C.3       0 UNK        -0.2013 
      2 C          17.9762  -23.1012  -43.9964 C.2       0 UNK         0.4866 
      3 O          17.7965  -22.1836  -43.1976 O.2       0 UNK        -0.5176 
      4 N          17.6712  -24.3633  -43.6641 N.am      1 UNK        -0.4884 
      5 CA         17.8777  -25.5725  -44.4718 C.3       1 UNK         0.0853 
      6 C6         16.7693  -26.6228  -44.1849 C.3       10 UNK        -0.0849 
      7 S7         16.4161  -27.6616  -45.6426 S.3       10 UNK        -0.2776 
      8 C8         15.4362  -29.0019  -44.9018 C.3       10 UNK         0.0316 
      9 C9         16.3168  -30.0707  -44.2708 C.ar      10 UNK        -0.0863 
     10 C10        16.9343  -31.0295  -45.0805 C.ar      10 UNK        -0.1009 
     11 C11        17.7032  -32.0518  -44.5157 C.ar      10 UNK        -0.0712 
     12 C12        17.8431  -32.1131  -43.1262 C.ar      10 UNK        -0.0894 
     13 C13        17.2223  -31.1670  -42.3046 C.ar      10 UNK        -0.0745 
     14 C14        16.4708  -30.1388  -42.8822 C.ar      10 UNK        -0.0972 
     15 C15        17.3046  -31.3114  -40.7922 C.3       10 UNK         0.0209 
     16 S16        18.9815  -31.0141  -40.1575 S.3       10 UNK        -0.2568 
     17 C17        19.0135  -29.2037  -39.9704 C.3       10 UNK        -0.0983 
     18 CA         20.2428  -28.5757  -40.6666 C.3       3 UNK         0.0876 
     19 N          20.1292  -28.6098  -42.1250 N.am      3 UNK        -0.4424 
     20 C          21.1322  -28.3061  -42.9586 C.2       2 UNK         0.4918 
     21 O          22.2894  -28.1150  -42.5932 O.2       2 UNK        -0.4875 
     22 CA         20.7750  -28.1288  -44.4414 C.3       2 UNK         0.0481 
     23 CB         20.7040  -29.4909  -45.1372 C.3       2 UNK        -0.1831 
     24 N          19.5142  -27.4066  -44.6299 N.am      2 UNK        -0.4498 
     25 C          19.3092  -26.1284  -44.2790 C.2       1 UNK         0.5027 
     26 O          20.2001  -25.4016  -43.8337 O.2       1 UNK        -0.4969 
     27 C          20.4415  -27.1201  -40.1982 C.2       3 UNK         0.5005 
     28 O          19.6854  -26.2434  -40.6204 O.2       3 UNK        -0.5279 
     29 N          21.4525  -26.9088  -39.3456 N.am      4 UNK        -0.4463 
     30 CA         21.9438  -25.6473  -38.7721 C.3       4 UNK         0.0283 
     31 CB         20.8248  -24.6946  -38.3042 C.3       4 UNK        -0.1875 
     32 C          22.9747  -24.9385  -39.6649 C.2       4 UNK         0.4949 
     33 O          23.8535  -24.2650  -39.1260 O.2       4 UNK        -0.5039 
     34 N          22.9078  -25.1354  -40.9898 N.am      5 UNK        -0.4663 
     35 CA         24.0049  -24.8121  -41.9103 C.3       5 UNK         0.0242 
     36 CB         23.4758  -24.7451  -43.3517 C.3       5 UNK        -0.1982 
     37 C          25.1384  -25.8465  -41.7840 C.2       5 UNK         0.5017 
     38 O          26.3128  -25.4771  -41.7595 O.2       5 UNK        -0.5012 
     39 N          24.7432  -27.1160  -41.6604 N.am      6 UNK        -0.4439 
     40 CA         25.5499  -28.2771  -41.3141 C.3       6 UNK         0.0297 
     41 CB         25.8739  -29.0581  -42.6024 C.3       6 UNK        -0.2006 
     42 C          24.7492  -29.1193  -40.3029 C.2       6 UNK         0.4892 
     43 O          23.7258  -28.6602  -39.7838 O.2       6 UNK        -0.5089 
     44 N          25.2221  -30.3416  -40.0282 N.am      7 UNK        -0.4243 
     45 CA         24.5367  -31.3033  -39.1588 C.3       7 UNK         0.0196 
     46 CB         25.4865  -32.4674  -38.8327 C.3       7 UNK        -0.2007 
     47 C          23.2215  -31.8313  -39.7623 C.2       7 UNK         0.5020 
     48 O          22.2650  -32.0425  -39.0184 O.2       7 UNK        -0.5147 
     49 N          23.2083  -32.0269  -41.0867 N.am      8 UNK        -0.4734 
     50 CA         22.1095  -32.5194  -41.9190 C.3       8 UNK         0.0238 
     51 CB         21.6747  -33.9411  -41.4888 C.3       8 UNK        -0.1912 
     52 C          22.5832  -32.4912  -43.3830 C.2       8 UNK         0.5038 
     53 O          23.6633  -31.9618  -43.6614 O.2       8 UNK        -0.5046 
     54 N          21.7874  -33.0771  -44.2878 N.am      9 UNK        -0.4200 
     55 CA         22.1238  -33.2643  -45.7120 C.3       9 UNK         0.0839 
     56 C          23.2971  -34.2532  -45.9833 C.2       9 UNK         0.5513 
     57 N          23.7052  -35.0850  -45.0319 N.am      9 UNK        -0.7519 
     58 O          23.8460  -34.2638  -47.0819 O.2       9 UNK        -0.4960 
     59 C59        20.8822  -33.6654  -46.5544 C.3       10 UNK        -0.0876 
     60 S60        19.5768  -32.3937  -46.5306 S.3       10 UNK        -0.2414 
     61 C61        18.3457  -33.1134  -45.3991 C.3       10 UNK         0.0169 
     62 H62        19.4366  -23.3673  -45.5835 H         1 UNK         0.0903 
     63 H63        17.7981  -22.9955  -46.1540 H         1 UNK         0.0903 
     64 H64        18.8043  -21.7327  -45.4539 H         1 UNK         0.0903 
     65 H65        17.3526  -24.5351  -42.7210 H         1 UNK         0.3096 
     66 H66        17.8017  -25.2949  -45.5244 H         1 UNK         0.1121 
     67 H67        15.8329  -26.1209  -43.9339 H         1 UNK         0.0849 
     68 H68        17.0122  -27.2406  -43.3180 H         1 UNK         0.0849 
     69 H69        14.7354  -28.5904  -44.1734 H         1 UNK         0.0865 
     70 H70        14.8235  -29.4579  -45.6811 H         1 UNK         0.0865 
     71 H71        16.8103  -30.9858  -46.1542 H         1 UNK         0.1346 
     72 H72        18.4140  -32.9125  -42.6742 H         1 UNK         0.1412 
     73 H73        15.9747  -29.4151  -42.2497 H         1 UNK         0.1426 
     74 H74        17.0110  -32.3271  -40.5233 H         1 UNK         0.0716 
     75 H75        16.5950  -30.6523  -40.2896 H         1 UNK         0.0716 
     76 H76        19.0309  -29.0001  -38.8977 H         1 UNK         0.0695 
     77 H77        18.0889  -28.7634  -40.3485 H         1 UNK         0.0695 
     78 H78        21.1278  -29.1537  -40.3887 H         1 UNK         0.0983 
     79 H79        19.2023  -28.7383  -42.5000 H         1 UNK         0.3095 
     80 H80        21.5693  -27.5466  -44.9132 H         1 UNK         0.0454 
     81 H81        20.4774  -29.3873  -46.1982 H         1 UNK         0.0851 
     82 H82        19.9410  -30.1278  -44.6892 H         1 UNK         0.0851 
     83 H83        21.6558  -30.0177  -45.0599 H         1 UNK         0.0851 
     84 H84        18.7349  -27.9281  -45.0121 H         1 UNK         0.2976 
     85 H85        22.0777  -27.6950  -39.1803 H         1 UNK         0.3116 
     86 H86        22.4878  -25.9527  -37.8768 H         1 UNK         0.0646 
     87 H87        20.2976  -24.2380  -39.1422 H         1 UNK         0.0847 
     88 H88        20.0931  -25.2106  -37.6828 H         1 UNK         0.0847 
     89 H89        21.2392  -23.8797  -37.7096 H         1 UNK         0.0847 
     90 H90        22.1359  -25.6734  -41.3606 H         1 UNK         0.3040 
     91 H91        24.4114  -23.8321  -41.6497 H         1 UNK         0.1015 
     92 H92        24.2736  -24.4828  -44.0476 H         1 UNK         0.0786 
     93 H93        22.6956  -23.9902  -43.4520 H         1 UNK         0.0786 
     94 H94        23.0588  -25.6984  -43.6778 H         1 UNK         0.0786 
     95 H95        23.7478  -27.3223  -41.7206 H         1 UNK         0.3172 
     96 H96        26.4754  -27.9588  -40.8303 H         1 UNK         0.0595 
     97 H97        24.9711  -29.4645  -43.0619 H         1 UNK         0.0839 
     98 H98        26.5511  -29.8907  -42.4113 H         1 UNK         0.0839 
     99 H99        26.3595  -28.4178  -43.3389 H         1 UNK         0.0839 
    100 H100       26.0760  -30.6494  -40.4704 H         1 UNK         0.2998 
    101 H101       24.2886  -30.7958  -38.2237 H         1 UNK         0.0822 
    102 H102       25.0056  -33.1872  -38.1686 H         1 UNK         0.0787 
    103 H103       25.7908  -33.0063  -39.7310 H         1 UNK         0.0787 
    104 H104       26.3873  -32.1161  -38.3290 H         1 UNK         0.0787 
    105 H105       24.0308  -31.7862  -41.6283 H         1 UNK         0.3055 
    106 H106       21.2699  -31.8285  -41.8266 H         1 UNK         0.1106 
    107 H107       21.3128  -33.9603  -40.4614 H         1 UNK         0.0828 
    108 H108       20.8558  -34.3189  -42.1010 H         1 UNK         0.0828 
    109 H109       22.4982  -34.6522  -41.5628 H         1 UNK         0.0828 
    110 H110       20.9181  -33.4862  -43.9846 H         1 UNK         0.2931 
    111 H111       22.4664  -32.2954  -46.0812 H         1 UNK         0.0412 
    112 H112       23.2638  -35.0886  -44.1273 H         1 UNK         0.3472 
    113 H113       24.4671  -35.7166  -45.2240 H         1 UNK         0.3472 
    114 H114       20.4828  -34.6274  -46.2289 H         1 UNK         0.0970 
    115 H115       21.1637  -33.8028  -47.6005 H         1 UNK         0.0970 
    116 H116       17.5740  -33.6135  -45.9858 H         1 UNK         0.0612 
    117 H117       18.8099  -33.8840  -44.7827 H         1 UNK         0.0612 
@<TRIPOS>BOND
     1    1    2 1    
     2    1   62 1    
     3    1   63 1    
     4    1   64 1    
     5    2    3 2    
     6    2    4 am   BACKBONE|DICT|INTERRES
     7    4    5 1    
     8    4   65 1    
     9    5    6 1    
    10    5   25 1    
    11    5   66 1    
    12    6    7 1    
    13    6   67 1    
    14    6   68 1    
    15    7    8 1    
    16    8    9 1    
    17    8   69 1    
    18    8   70 1    
    19    9   10 ar   
    20    9   14 ar   
    21   10   11 ar   
    22   10   71 1    
    23   11   12 ar   
    24   11   61 1    
    25   12   13 ar   
    26   12   72 1    
    27   13   14 ar   
    28   13   15 1    
    29   14   73 1    
    30   15   16 1    
    31   15   74 1    
    32   15   75 1    
    33   16   17 1    
    34   17   18 1    
    35   17   76 1    
    36   17   77 1    
    37   18   19 1    
    38   18   27 1    
    39   18   78 1    
    40   19   20 am   BACKBONE|DICT|INTERRES
    41   19   79 1    
    42   20   21 2    
    43   20   22 1    
    44   22   23 1    
    45   22   24 1    
    46   22   80 1    
    47   23   81 1    
    48   23   82 1    
    49   23   83 1    
    50   24   25 am   BACKBONE|DICT|INTERRES
    51   24   84 1    
    52   25   26 2    
    53   27   28 2    
    54   27   29 am   BACKBONE|DICT|INTERRES
    55   29   30 1    
    56   29   85 1    
    57   30   31 1    
    58   30   32 1    
    59   30   86 1    
    60   31   87 1    
    61   31   88 1    
    62   31   89 1    
    63   32   33 2    
    64   32   34 am   BACKBONE|DICT|INTERRES
    65   34   35 1    
    66   34   90 1    
    67   35   36 1    
    68   35   37 1    
    69   35   91 1    
    70   36   92 1    
    71   36   93 1    
    72   36   94 1    
    73   37   38 2    
    74   37   39 am   BACKBONE|DICT|INTERRES
    75   39   40 1    
    76   39   95 1    
    77   40   41 1    
    78   40   42 1    
    79   40   96 1    
    80   41   97 1    
    81   41   98 1    
    82   41   99 1    
    83   42   43 2    
    84   42   44 am   BACKBONE|DICT|INTERRES
    85   44   45 1    
    86   44  100 1    
    87   45   46 1    
    88   45   47 1    
    89   45  101 1    
    90   46  102 1    
    91   46  103 1    
    92   46  104 1    
    93   47   48 2    
    94   47   49 am   BACKBONE|DICT|INTERRES
    95   49   50 1    
    96   49  105 1    
    97   50   51 1    
    98   50   52 1    
    99   50  106 1    
   100   51  107 1    
   101   51  108 1    
   102   51  109 1    
   103   52   53 2    
   104   52   54 am   BACKBONE|DICT|INTERRES
   105   54   55 1    
   106   54  110 1    
   107   55   56 1    
   108   55   59 1    
   109   55  111 1    
   110   56   57 am   BACKBONE|DICT|INTERRES
   111   56   58 2    
   112   57  112 1    
   113   57  113 1    
   114   59   60 1    
   115   59  114 1    
   116   59  115 1    
   117   60   61 1    
   118   61  116 1    
   119   61  117 1    
@<TRIPOS>SUBSTRUCTURE
     1 UNK         1 GROUP             0       ****    0 ROOT    
