@<TRIPOS>MOLECULE
3R8
117   119    1
SMALL
USER_CHARGES


@<TRIPOS>ATOM
      1 CA         16.3551  -23.1123  -40.4869 C.3       0 UNK        -0.2013 
      2 C          16.1893  -23.1571  -41.9983 C.2       0 UNK         0.4866 
      3 O          15.8485  -22.1437  -42.6083 O.2       0 UNK        -0.5176 
      4 N          16.4358  -24.3227  -42.6102 N.am      1 UNK        -0.4884 
      5 CA         16.3162  -24.5607  -44.0562 C.3       1 UNK         0.0853 
      6 C6         15.9178  -26.0284  -44.3551 C.3       10 UNK        -0.0849 
      7 S7         17.1235  -27.2643  -43.7610 S.3       10 UNK        -0.2776 
      8 C8         16.5137  -28.7559  -44.6114 C.3       10 UNK         0.0316 
      9 C9         17.6710  -29.6864  -44.9230 C.ar      10 UNK        -0.0863 
     10 C10        17.8957  -30.8363  -44.1622 C.ar      10 UNK        -0.1009 
     11 C11        19.0083  -31.6466  -44.4148 C.ar      10 UNK        -0.0712 
     12 C12        19.8911  -31.2981  -45.4450 C.ar      10 UNK        -0.0894 
     13 C13        19.6685  -30.1527  -46.2176 C.ar      10 UNK        -0.0745 
     14 C14        18.5409  -29.3690  -45.9668 C.ar      10 UNK        -0.0972 
     15 C15        20.6353  -29.7614  -47.3277 C.3       10 UNK         0.0209 
     16 S16        22.0123  -28.7260  -46.7244 S.3       10 UNK        -0.2568 
     17 C17        21.2104  -27.1033  -46.4253 C.3       10 UNK        -0.0983 
     18 CA         21.6564  -26.3522  -45.1353 C.3       3 UNK         0.0876 
     19 N          20.7623  -25.2572  -44.7720 N.am      3 UNK        -0.4424 
     20 C          20.7358  -24.0597  -45.3651 C.2       2 UNK         0.4918 
     21 O          21.4161  -23.7721  -46.3515 O.2       2 UNK        -0.4875 
     22 CA         19.8212  -22.9984  -44.7197 C.3       2 UNK         0.0481 
     23 CB         19.5506  -21.7920  -45.6448 C.3       2 UNK        -0.1831 
     24 N          18.5687  -23.5468  -44.1811 N.am      2 UNK        -0.4498 
     25 C          17.5550  -24.1027  -44.8657 C.2       1 UNK         0.5027 
     26 O          17.5618  -24.2566  -46.0880 O.2       1 UNK        -0.4969 
     27 C          21.8144  -27.2240  -43.8833 C.2       3 UNK         0.5005 
     28 O          22.8654  -27.1791  -43.2401 O.2       3 UNK        -0.5279 
     29 N          20.7737  -28.0123  -43.5690 N.am      4 UNK        -0.4463 
     30 CA         20.7008  -28.9760  -42.4604 C.3       4 UNK         0.0283 
     31 CB         20.6033  -28.2354  -41.1110 C.3       4 UNK        -0.1875 
     32 C          21.8283  -30.0325  -42.4687 C.2       4 UNK         0.4949 
     33 O          22.1585  -30.5760  -41.4145 O.2       4 UNK        -0.5039 
     34 N          22.4326  -30.2710  -43.6439 N.am      5 UNK        -0.4663 
     35 CA         23.6393  -31.0742  -43.8741 C.3       5 UNK         0.0242 
     36 CB         23.3330  -32.5748  -43.6782 C.3       5 UNK        -0.1982 
     37 C          24.8436  -30.5855  -43.0396 C.2       5 UNK         0.5017 
     38 O          25.6115  -31.4061  -42.5397 O.2       5 UNK        -0.5012 
     39 N          24.9567  -29.2576  -42.8628 N.am      6 UNK        -0.4439 
     40 CA         25.8859  -28.5664  -41.9572 C.3       6 UNK         0.0297 
     41 CB         27.3560  -28.7785  -42.3788 C.3       6 UNK        -0.2006 
     42 C          25.6146  -28.9165  -40.4790 C.2       6 UNK         0.4892 
     43 O          26.5498  -29.1432  -39.7102 O.2       6 UNK        -0.5089 
     44 N          24.3195  -28.9670  -40.1342 N.am      7 UNK        -0.4243 
     45 CA         23.7192  -29.3398  -38.8471 C.3       7 UNK         0.0196 
     46 CB         24.2135  -28.4262  -37.7056 C.3       7 UNK        -0.2007 
     47 C          23.8329  -30.8375  -38.4963 C.2       7 UNK         0.5020 
     48 O          23.5040  -31.2096  -37.3690 O.2       7 UNK        -0.5147 
     49 N          24.2600  -31.6848  -39.4443 N.am      8 UNK        -0.4734 
     50 CA         24.4228  -33.1268  -39.2406 C.3       8 UNK         0.0238 
     51 CB         25.3091  -33.7202  -40.3456 C.3       8 UNK        -0.1912 
     52 C          23.0951  -33.8961  -39.1436 C.2       8 UNK         0.5038 
     53 O          23.0595  -34.9048  -38.4369 O.2       8 UNK        -0.5046 
     54 N          22.0399  -33.4285  -39.8300 N.am      9 UNK        -0.4200 
     55 CA         20.6908  -34.0209  -39.7451 C.3       9 UNK         0.0839 
     56 C          19.8054  -33.4279  -38.6087 C.2       9 UNK         0.5513 
     57 N          20.2931  -32.4930  -37.8004 N.am      9 UNK        -0.7519 
     58 O          18.6616  -33.8432  -38.4392 O.2       9 UNK        -0.4960 
     59 C59        19.9758  -34.0929  -41.1231 C.3       10 UNK        -0.0876 
     60 S60        19.4711  -32.4823  -41.8075 S.3       10 UNK        -0.2414 
     61 C61        19.2574  -32.8906  -43.5697 C.3       10 UNK         0.0169 
     62 H62        15.4125  -22.8366  -40.0148 H         1 UNK         0.0903 
     63 H63        16.6680  -24.0745  -40.0816 H         1 UNK         0.0903 
     64 H64        17.1034  -22.3692  -40.2127 H         1 UNK         0.0903 
     65 H65        16.7145  -25.1286  -42.0662 H         1 UNK         0.3096 
     66 H66        15.4970  -23.9394  -44.4263 H         1 UNK         0.1121 
     67 H67        14.9540  -26.2462  -43.8921 H         1 UNK         0.0849 
     68 H68        15.7638  -26.1615  -45.4278 H         1 UNK         0.0849 
     69 H69        15.7674  -29.2500  -43.9874 H         1 UNK         0.0865 
     70 H70        16.0110  -28.4907  -45.5427 H         1 UNK         0.0865 
     71 H71        17.2224  -31.0894  -43.3544 H         1 UNK         0.1346 
     72 H72        20.7580  -31.9129  -45.6428 H         1 UNK         0.1412 
     73 H73        18.3448  -28.4917  -46.5675 H         1 UNK         0.1426 
     74 H74        20.1093  -29.2360  -48.1266 H         1 UNK         0.0716 
     75 H75        21.0506  -30.6619  -47.7825 H         1 UNK         0.0716 
     76 H76        20.1306  -27.2273  -46.4145 H         1 UNK         0.0695 
     77 H77        21.4114  -26.4740  -47.2935 H         1 UNK         0.0695 
     78 H78        22.6454  -25.9306  -45.3309 H         1 UNK         0.0983 
     79 H79        20.1935  -25.4042  -43.9499 H         1 UNK         0.3095 
     80 H80        20.3723  -22.6217  -43.8570 H         1 UNK         0.0454 
     81 H81        20.4806  -21.2901  -45.9145 H         1 UNK         0.0851 
     82 H82        18.9156  -21.0522  -45.1576 H         1 UNK         0.0851 
     83 H83        19.0653  -22.0921  -46.5739 H         1 UNK         0.0851 
     84 H84        18.4498  -23.4715  -43.1805 H         1 UNK         0.2976 
     85 H85        19.9668  -28.0067  -44.1798 H         1 UNK         0.3116 
     86 H86        19.7704  -29.5252  -42.5940 H         1 UNK         0.0646 
     87 H87        21.5151  -27.6837  -40.8820 H         1 UNK         0.0847 
     88 H88        19.7740  -27.5282  -41.1095 H         1 UNK         0.0847 
     89 H89        20.4276  -28.9349  -40.2927 H         1 UNK         0.0847 
     90 H90        22.0764  -29.7782  -44.4529 H         1 UNK         0.3040 
     91 H91        23.9198  -30.9268  -44.9183 H         1 UNK         0.1015 
     92 H92        24.2092  -33.1883  -43.8913 H         1 UNK         0.0786 
     93 H93        22.5417  -32.9067  -44.3484 H         1 UNK         0.0786 
     94 H94        23.0177  -32.7958  -42.6587 H         1 UNK         0.0786 
     95 H95        24.2412  -28.6614  -43.2704 H         1 UNK         0.3172 
     96 H96        25.6681  -27.5022  -42.0600 H         1 UNK         0.0595 
     97 H97        27.6787  -29.8098  -42.2339 H         1 UNK         0.0839 
     98 H98        28.0230  -28.1478  -41.7899 H         1 UNK         0.0839 
     99 H99        27.5099  -28.5220  -43.4268 H         1 UNK         0.0839 
    100 H100       23.6480  -28.8272  -40.8774 H         1 UNK         0.2998 
    101 H101       22.6506  -29.1562  -38.9644 H         1 UNK         0.0822 
    102 H102       23.6358  -28.5910  -36.7952 H         1 UNK         0.0787 
    103 H103       24.1097  -27.3729  -37.9660 H         1 UNK         0.0787 
    104 H104       25.2594  -28.6116  -37.4602 H         1 UNK         0.0787 
    105 H105       24.4774  -31.3192  -40.3623 H         1 UNK         0.3055 
    106 H106       24.9430  -33.2676  -38.2901 H         1 UNK         0.1106 
    107 H107       26.2666  -33.2029  -40.4099 H         1 UNK         0.0828 
    108 H108       25.5217  -34.7722  -40.1505 H         1 UNK         0.0828 
    109 H109       24.8308  -33.6641  -41.3228 H         1 UNK         0.0828 
    110 H110       22.1245  -32.5679  -40.3598 H         1 UNK         0.2931 
    111 H111       20.8117  -35.0659  -39.4540 H         1 UNK         0.0412 
    112 H112       19.7111  -32.1265  -37.0639 H         1 UNK         0.3472 
    113 H113       21.2427  -32.1679  -37.9027 H         1 UNK         0.3472 
    114 H114       20.6296  -34.5925  -41.8395 H         1 UNK         0.0970 
    115 H115       19.0861  -34.7211  -41.0502 H         1 UNK         0.0970 
    116 H116       20.1430  -33.4203  -43.9228 H         1 UNK         0.0612 
    117 H117       18.4165  -33.5763  -43.6804 H         1 UNK         0.0612 
@<TRIPOS>BOND
     1    1    2 1    
     2    1   62 1    
     3    1   63 1    
     4    1   64 1    
     5    2    3 2    
     6    2    4 am   BACKBONE|DICT|INTERRES
     7    4    5 1    
     8    4   65 1    
     9    5    6 1    
    10    5   25 1    
    11    5   66 1    
    12    6    7 1    
    13    6   67 1    
    14    6   68 1    
    15    7    8 1    
    16    8    9 1    
    17    8   69 1    
    18    8   70 1    
    19    9   10 ar   
    20    9   14 ar   
    21   10   11 ar   
    22   10   71 1    
    23   11   12 ar   
    24   11   61 1    
    25   12   13 ar   
    26   12   72 1    
    27   13   14 ar   
    28   13   15 1    
    29   14   73 1    
    30   15   16 1    
    31   15   74 1    
    32   15   75 1    
    33   16   17 1    
    34   17   18 1    
    35   17   76 1    
    36   17   77 1    
    37   18   19 1    
    38   18   27 1    
    39   18   78 1    
    40   19   20 am   BACKBONE|DICT|INTERRES
    41   19   79 1    
    42   20   21 2    
    43   20   22 1    
    44   22   23 1    
    45   22   24 1    
    46   22   80 1    
    47   23   81 1    
    48   23   82 1    
    49   23   83 1    
    50   24   25 am   BACKBONE|DICT|INTERRES
    51   24   84 1    
    52   25   26 2    
    53   27   28 2    
    54   27   29 am   BACKBONE|DICT|INTERRES
    55   29   30 1    
    56   29   85 1    
    57   30   31 1    
    58   30   32 1    
    59   30   86 1    
    60   31   87 1    
    61   31   88 1    
    62   31   89 1    
    63   32   33 2    
    64   32   34 am   BACKBONE|DICT|INTERRES
    65   34   35 1    
    66   34   90 1    
    67   35   36 1    
    68   35   37 1    
    69   35   91 1    
    70   36   92 1    
    71   36   93 1    
    72   36   94 1    
    73   37   38 2    
    74   37   39 am   BACKBONE|DICT|INTERRES
    75   39   40 1    
    76   39   95 1    
    77   40   41 1    
    78   40   42 1    
    79   40   96 1    
    80   41   97 1    
    81   41   98 1    
    82   41   99 1    
    83   42   43 2    
    84   42   44 am   BACKBONE|DICT|INTERRES
    85   44   45 1    
    86   44  100 1    
    87   45   46 1    
    88   45   47 1    
    89   45  101 1    
    90   46  102 1    
    91   46  103 1    
    92   46  104 1    
    93   47   48 2    
    94   47   49 am   BACKBONE|DICT|INTERRES
    95   49   50 1    
    96   49  105 1    
    97   50   51 1    
    98   50   52 1    
    99   50  106 1    
   100   51  107 1    
   101   51  108 1    
   102   51  109 1    
   103   52   53 2    
   104   52   54 am   BACKBONE|DICT|INTERRES
   105   54   55 1    
   106   54  110 1    
   107   55   56 1    
   108   55   59 1    
   109   55  111 1    
   110   56   57 am   BACKBONE|DICT|INTERRES
   111   56   58 2    
   112   57  112 1    
   113   57  113 1    
   114   59   60 1    
   115   59  114 1    
   116   59  115 1    
   117   60   61 1    
   118   61  116 1    
   119   61  117 1    
@<TRIPOS>SUBSTRUCTURE
     1 UNK         1 GROUP             0       ****    0 ROOT    
