@<TRIPOS>MOLECULE
3R8
117   119    1
SMALL
USER_CHARGES


@<TRIPOS>ATOM
      1 CA         16.0892  -22.1350  -46.6370 C.3       0 UNK        -0.2013 
      2 C          17.0275  -23.3096  -46.8701 C.2       0 UNK         0.4866 
      3 O          17.9364  -23.2126  -47.6947 O.2       0 UNK        -0.5176 
      4 N          16.8167  -24.4196  -46.1487 N.am      1 UNK        -0.4884 
      5 CA         17.6244  -25.6452  -46.2464 C.3       1 UNK         0.0853 
      6 C6         16.8459  -26.8744  -45.7041 C.3       10 UNK        -0.0849 
      7 S7         17.2301  -28.3947  -46.6327 S.3       10 UNK        -0.2776 
      8 C8         16.2025  -29.6132  -45.7564 C.3       10 UNK         0.0316 
      9 C9         16.8976  -30.1596  -44.5173 C.ar      10 UNK        -0.0863 
     10 C10        17.8190  -31.2032  -44.6423 C.ar      10 UNK        -0.1009 
     11 C11        18.4267  -31.7572  -43.5121 C.ar      10 UNK        -0.0712 
     12 C12        18.1096  -31.2553  -42.2464 C.ar      10 UNK        -0.0894 
     13 C13        17.1816  -30.2171  -42.1063 C.ar      10 UNK        -0.0745 
     14 C14        16.5861  -29.6660  -43.2463 C.ar      10 UNK        -0.0972 
     15 C15        16.7664  -29.7462  -40.7189 C.3       10 UNK         0.0209 
     16 S16        18.1198  -28.9382  -39.8113 S.3       10 UNK        -0.2568 
     17 C17        18.2573  -27.3283  -40.6609 C.3       10 UNK        -0.0983 
     18 CA         19.6553  -27.0769  -41.2801 C.3       3 UNK         0.0876 
     19 N          19.6193  -25.9295  -42.1976 N.am      3 UNK        -0.4424 
     20 C          20.6535  -25.4194  -42.8834 C.2       2 UNK         0.4918 
     21 O          21.8117  -25.8269  -42.7858 O.2       2 UNK        -0.4875 
     22 CA         20.3201  -24.2472  -43.8249 C.3       2 UNK         0.0481 
     23 CB         21.5236  -23.8020  -44.6827 C.3       2 UNK        -0.1831 
     24 N          19.1451  -24.5291  -44.6592 N.am      2 UNK        -0.4498 
     25 C          19.0073  -25.5114  -45.5670 C.2       1 UNK         0.5027 
     26 O          19.9062  -26.2967  -45.8696 O.2       1 UNK        -0.4969 
     27 C          20.7490  -26.9567  -40.1941 C.2       3 UNK         0.5005 
     28 O          21.4324  -27.9401  -39.9118 O.2       3 UNK        -0.5279 
     29 N          20.9345  -25.7455  -39.6475 N.am      4 UNK        -0.4463 
     30 CA         21.9560  -25.4302  -38.6433 C.3       4 UNK         0.0283 
     31 CB         21.7329  -24.0004  -38.1249 C.3       4 UNK        -0.1875 
     32 C          23.4047  -25.5990  -39.1415 C.2       4 UNK         0.4949 
     33 O          24.2840  -25.8882  -38.3298 O.2       4 UNK        -0.5039 
     34 N          23.6291  -25.4178  -40.4500 N.am      5 UNK        -0.4663 
     35 CA         24.9219  -25.6316  -41.1014 C.3       5 UNK         0.0242 
     36 CB         25.0938  -24.6163  -42.2438 C.3       5 UNK        -0.1982 
     37 C          25.0488  -27.0681  -41.6302 C.2       5 UNK         0.5017 
     38 O          26.1186  -27.6638  -41.5009 O.2       5 UNK        -0.5012 
     39 N          23.9653  -27.5896  -42.2240 N.am      6 UNK        -0.4439 
     40 CA         23.8955  -28.9223  -42.8263 C.3       6 UNK         0.0297 
     41 CB         22.6113  -29.0378  -43.6624 C.3       6 UNK        -0.2006 
     42 C          23.9819  -30.0655  -41.8002 C.2       6 UNK         0.4892 
     43 O          24.6515  -31.0619  -42.0766 O.2       6 UNK        -0.5089 
     44 N          23.3233  -29.8911  -40.6431 N.am      7 UNK        -0.4243 
     45 CA         23.2242  -30.8317  -39.5233 C.3       7 UNK         0.0196 
     46 CB         24.5816  -30.9393  -38.7903 C.3       7 UNK        -0.2007 
     47 C          22.6223  -32.1812  -39.9647 C.2       7 UNK         0.5020 
     48 O          21.5575  -32.1946  -40.5850 O.2       7 UNK        -0.5147 
     49 N          23.2983  -33.2909  -39.6435 N.am      8 UNK        -0.4734 
     50 CA         22.9746  -34.6288  -40.1339 C.3       8 UNK         0.0238 
     51 CB         23.5818  -35.6760  -39.1823 C.3       8 UNK        -0.1912 
     52 C          23.4998  -34.7776  -41.5714 C.2       8 UNK         0.5038 
     53 O          24.6685  -35.1249  -41.7556 O.2       8 UNK        -0.5046 
     54 N          22.6403  -34.4581  -42.5468 N.am      9 UNK        -0.4200 
     55 CA         22.9179  -34.4790  -43.9914 C.3       9 UNK         0.0839 
     56 C          23.4603  -35.8435  -44.5016 C.2       9 UNK         0.5513 
     57 N          24.4331  -35.8283  -45.4023 N.am      9 UNK        -0.7519 
     58 O          22.9699  -36.9069  -44.1266 O.2       9 UNK        -0.4960 
     59 C59        21.6674  -34.0761  -44.8156 C.3       10 UNK        -0.0876 
     60 S60        20.9766  -32.4468  -44.3633 S.3       10 UNK        -0.2414 
     61 C61        19.3716  -32.9397  -43.6635 C.3       10 UNK         0.0169 
     62 H62        15.3335  -22.3581  -45.8841 H         1 UNK         0.0903 
     63 H63        16.6535  -21.2644  -46.3038 H         1 UNK         0.0903 
     64 H64        15.5775  -21.8749  -47.5633 H         1 UNK         0.0903 
     65 H65        16.0481  -24.4449  -45.4925 H         1 UNK         0.3096 
     66 H66        17.8218  -25.8040  -47.3096 H         1 UNK         0.1121 
     67 H67        15.7707  -26.7151  -45.8033 H         1 UNK         0.0849 
     68 H68        17.0260  -27.0342  -44.6389 H         1 UNK         0.0849 
     69 H69        15.2374  -29.1737  -45.4994 H         1 UNK         0.0865 
     70 H70        15.9821  -30.4364  -46.4379 H         1 UNK         0.0865 
     71 H71        18.0543  -31.5973  -45.6219 H         1 UNK         0.1346 
     72 H72        18.5660  -31.6880  -41.3659 H         1 UNK         0.1412 
     73 H73        15.8570  -28.8739  -43.1431 H         1 UNK         0.1426 
     74 H74        16.4323  -30.6104  -40.1431 H         1 UNK         0.0716 
     75 H75        15.9116  -29.0699  -40.7701 H         1 UNK         0.0716 
     76 H76        17.9986  -26.5395  -39.9520 H         1 UNK         0.0695 
     77 H77        17.4972  -27.2852  -41.4424 H         1 UNK         0.0695 
     78 H78        19.9090  -27.9451  -41.8918 H         1 UNK         0.0983 
     79 H79        18.7116  -25.5146  -42.3459 H         1 UNK         0.3095 
     80 H80        20.0476  -23.4073  -43.1845 H         1 UNK         0.0454 
     81 H81        22.3449  -23.4601  -44.0521 H         1 UNK         0.0851 
     82 H82        21.2574  -22.9766  -45.3426 H         1 UNK         0.0851 
     83 H83        21.9081  -24.6145  -45.2999 H         1 UNK         0.0851 
     84 H84        18.3441  -23.9318  -44.5082 H         1 UNK         0.2976 
     85 H85        20.3360  -24.9885  -39.9448 H         1 UNK         0.3116 
     86 H86        21.8187  -26.1203  -37.8081 H         1 UNK         0.0646 
     87 H87        22.4622  -23.7475  -37.3538 H         1 UNK         0.0847 
     88 H88        21.8325  -23.2611  -38.9206 H         1 UNK         0.0847 
     89 H89        20.7441  -23.8872  -37.6803 H         1 UNK         0.0847 
     90 H90        22.8410  -25.2342  -41.0588 H         1 UNK         0.3040 
     91 H91        25.7289  -25.4678  -40.3833 H         1 UNK         0.1015 
     92 H92        26.0641  -24.7367  -42.7275 H         1 UNK         0.0786 
     93 H93        25.0412  -23.5921  -41.8742 H         1 UNK         0.0786 
     94 H94        24.3303  -24.7345  -43.0134 H         1 UNK         0.0786 
     95 H95        23.1430  -26.9993  -42.3283 H         1 UNK         0.3172 
     96 H96        24.7462  -29.0187  -43.5042 H         1 UNK         0.0595 
     97 H97        21.7177  -29.0202  -43.0382 H         1 UNK         0.0839 
     98 H98        22.6000  -29.9743  -44.2198 H         1 UNK         0.0839 
     99 H99        22.5292  -28.2287  -44.3888 H         1 UNK         0.0839 
    100 H100       22.7521  -29.0546  -40.5336 H         1 UNK         0.2998 
    101 H101       22.5056  -30.3961  -38.8274 H         1 UNK         0.0822 
    102 H102       24.4977  -31.5386  -37.8829 H         1 UNK         0.0787 
    103 H103       25.3547  -31.3839  -39.4183 H         1 UNK         0.0787 
    104 H104       24.9359  -29.9541  -38.4858 H         1 UNK         0.0787 
    105 H105       24.1822  -33.1876  -39.1661 H         1 UNK         0.3055 
    106 H106       21.8906  -34.7666  -40.1370 H         1 UNK         0.1106 
    107 H107       23.1603  -35.5917  -38.1805 H         1 UNK         0.0828 
    108 H108       23.3758  -36.6871  -39.5361 H         1 UNK         0.0828 
    109 H109       24.6647  -35.5749  -39.0988 H         1 UNK         0.0828 
    110 H110       21.7324  -34.1028  -42.2850 H         1 UNK         0.2931 
    111 H111       23.6889  -33.7244  -44.1606 H         1 UNK         0.0412 
    112 H112       24.8328  -34.9597  -45.7232 H         1 UNK         0.3472 
    113 H113       24.7858  -36.7032  -45.7590 H         1 UNK         0.3472 
    114 H114       21.9190  -34.0329  -45.8772 H         1 UNK         0.0970 
    115 H115       20.8950  -34.8426  -44.7280 H         1 UNK         0.0970 
    116 H116       18.9004  -33.6789  -44.3130 H         1 UNK         0.0612 
    117 H117       19.5368  -33.4296  -42.7027 H         1 UNK         0.0612 
@<TRIPOS>BOND
     1    1    2 1    
     2    1   62 1    
     3    1   63 1    
     4    1   64 1    
     5    2    3 2    
     6    2    4 am   BACKBONE|DICT|INTERRES
     7    4    5 1    
     8    4   65 1    
     9    5    6 1    
    10    5   25 1    
    11    5   66 1    
    12    6    7 1    
    13    6   67 1    
    14    6   68 1    
    15    7    8 1    
    16    8    9 1    
    17    8   69 1    
    18    8   70 1    
    19    9   10 ar   
    20    9   14 ar   
    21   10   11 ar   
    22   10   71 1    
    23   11   12 ar   
    24   11   61 1    
    25   12   13 ar   
    26   12   72 1    
    27   13   14 ar   
    28   13   15 1    
    29   14   73 1    
    30   15   16 1    
    31   15   74 1    
    32   15   75 1    
    33   16   17 1    
    34   17   18 1    
    35   17   76 1    
    36   17   77 1    
    37   18   19 1    
    38   18   27 1    
    39   18   78 1    
    40   19   20 am   BACKBONE|DICT|INTERRES
    41   19   79 1    
    42   20   21 2    
    43   20   22 1    
    44   22   23 1    
    45   22   24 1    
    46   22   80 1    
    47   23   81 1    
    48   23   82 1    
    49   23   83 1    
    50   24   25 am   BACKBONE|DICT|INTERRES
    51   24   84 1    
    52   25   26 2    
    53   27   28 2    
    54   27   29 am   BACKBONE|DICT|INTERRES
    55   29   30 1    
    56   29   85 1    
    57   30   31 1    
    58   30   32 1    
    59   30   86 1    
    60   31   87 1    
    61   31   88 1    
    62   31   89 1    
    63   32   33 2    
    64   32   34 am   BACKBONE|DICT|INTERRES
    65   34   35 1    
    66   34   90 1    
    67   35   36 1    
    68   35   37 1    
    69   35   91 1    
    70   36   92 1    
    71   36   93 1    
    72   36   94 1    
    73   37   38 2    
    74   37   39 am   BACKBONE|DICT|INTERRES
    75   39   40 1    
    76   39   95 1    
    77   40   41 1    
    78   40   42 1    
    79   40   96 1    
    80   41   97 1    
    81   41   98 1    
    82   41   99 1    
    83   42   43 2    
    84   42   44 am   BACKBONE|DICT|INTERRES
    85   44   45 1    
    86   44  100 1    
    87   45   46 1    
    88   45   47 1    
    89   45  101 1    
    90   46  102 1    
    91   46  103 1    
    92   46  104 1    
    93   47   48 2    
    94   47   49 am   BACKBONE|DICT|INTERRES
    95   49   50 1    
    96   49  105 1    
    97   50   51 1    
    98   50   52 1    
    99   50  106 1    
   100   51  107 1    
   101   51  108 1    
   102   51  109 1    
   103   52   53 2    
   104   52   54 am   BACKBONE|DICT|INTERRES
   105   54   55 1    
   106   54  110 1    
   107   55   56 1    
   108   55   59 1    
   109   55  111 1    
   110   56   57 am   BACKBONE|DICT|INTERRES
   111   56   58 2    
   112   57  112 1    
   113   57  113 1    
   114   59   60 1    
   115   59  114 1    
   116   59  115 1    
   117   60   61 1    
   118   61  116 1    
   119   61  117 1    
@<TRIPOS>SUBSTRUCTURE
     1 UNK         1 GROUP             0       ****    0 ROOT    
