@<TRIPOS>MOLECULE
3R8
117   119    1
SMALL
USER_CHARGES


@<TRIPOS>ATOM
      1 CA         16.5628  -23.8328  -40.1600 C.3       0 UNK        -0.2013 
      2 C          16.4899  -24.2421  -41.6235 C.2       0 UNK         0.4866 
      3 O          15.4360  -24.1101  -42.2458 O.2       0 UNK        -0.5176 
      4 N          17.6015  -24.7353  -42.1764 N.am      1 UNK        -0.4884 
      5 CA         17.7549  -25.1547  -43.5676 C.3       1 UNK         0.0853 
      6 C6         17.0736  -26.5196  -43.8574 C.3       10 UNK        -0.0849 
      7 S7         16.5601  -26.6602  -45.6003 S.3       10 UNK        -0.2776 
      8 C8         15.6772  -28.2532  -45.5805 C.3       10 UNK         0.0316 
      9 C9         16.6310  -29.4242  -45.3954 C.ar      10 UNK        -0.0863 
     10 C10        16.6237  -30.1695  -44.2102 C.ar      10 UNK        -0.1009 
     11 C11        17.5069  -31.2415  -44.0457 C.ar      10 UNK        -0.0712 
     12 C12        18.3849  -31.5740  -45.0789 C.ar      10 UNK        -0.0894 
     13 C13        18.4360  -30.8051  -46.2444 C.ar      10 UNK        -0.0745 
     14 C14        17.5388  -29.7476  -46.4091 C.ar      10 UNK        -0.0972 
     15 C15        19.5058  -31.0810  -47.2916 C.3       10 UNK         0.0209 
     16 S16        20.8772  -29.8750  -47.2070 S.3       10 UNK        -0.2568 
     17 C17        21.4700  -30.0569  -45.4831 C.3       10 UNK        -0.0983 
     18 CA         22.0005  -28.7579  -44.8173 C.3       3 UNK         0.0876 
     19 N          21.3138  -27.5387  -45.2596 N.am      3 UNK        -0.4424 
     20 C          21.8595  -26.3174  -45.1892 C.2       2 UNK         0.4918 
     21 O          22.9834  -26.0951  -44.7385 O.2       2 UNK        -0.4875 
     22 CA         20.9918  -25.1431  -45.6725 C.3       2 UNK         0.0481 
     23 CB         20.9873  -25.0704  -47.2077 C.3       2 UNK        -0.1831 
     24 N          19.6119  -25.1839  -45.1757 N.am      2 UNK        -0.4498 
     25 C          19.2614  -25.1733  -43.8826 C.2       1 UNK         0.5027 
     26 O          20.0754  -25.1929  -42.9539 O.2       1 UNK        -0.4969 
     27 C          21.9758  -28.8812  -43.2766 C.2       3 UNK         0.5005 
     28 O          22.9045  -29.4437  -42.6953 O.2       3 UNK        -0.5279 
     29 N          20.9303  -28.3332  -42.6360 N.am      4 UNK        -0.4463 
     30 CA         20.7705  -28.2878  -41.1795 C.3       4 UNK         0.0283 
     31 CB         19.3394  -27.8634  -40.8130 C.3       4 UNK        -0.1875 
     32 C          21.8003  -27.3662  -40.5115 C.2       4 UNK         0.4949 
     33 O          22.3113  -27.7085  -39.4469 O.2       4 UNK        -0.5039 
     34 N          22.1437  -26.2532  -41.1756 N.am      5 UNK        -0.4663 
     35 CA         23.2282  -25.3469  -40.7825 C.3       5 UNK         0.0242 
     36 CB         23.1828  -24.0906  -41.6662 C.3       5 UNK        -0.1982 
     37 C          24.6217  -26.0040  -40.8386 C.2       5 UNK         0.5017 
     38 O          25.5047  -25.6094  -40.0771 O.2       5 UNK        -0.5012 
     39 N          24.7801  -27.0120  -41.7081 N.am      6 UNK        -0.4439 
     40 CA         25.9622  -27.8729  -41.8028 C.3       6 UNK         0.0297 
     41 CB         26.1428  -28.3073  -43.2682 C.3       6 UNK        -0.2006 
     42 C          25.8865  -29.1015  -40.8705 C.2       6 UNK         0.4892 
     43 O          26.8337  -29.8884  -40.8540 O.2       6 UNK        -0.5089 
     44 N          24.7777  -29.2529  -40.1268 N.am      7 UNK        -0.4243 
     45 CA         24.4456  -30.3478  -39.2064 C.3       7 UNK         0.0196 
     46 CB         25.4180  -30.3750  -38.0077 C.3       7 UNK        -0.2007 
     47 C          24.3023  -31.7206  -39.8939 C.2       7 UNK         0.5020 
     48 O          24.5279  -32.7491  -39.2539 O.2       7 UNK        -0.5147 
     49 N          23.9117  -31.7312  -41.1764 N.am      8 UNK        -0.4734 
     50 CA         23.7720  -32.9515  -41.9792 C.3       8 UNK         0.0238 
     51 CB         23.7947  -32.5756  -43.4670 C.3       8 UNK        -0.1912 
     52 C          22.5041  -33.7631  -41.6588 C.2       8 UNK         0.5038 
     53 O          22.4569  -34.9488  -41.9890 O.2       8 UNK        -0.5046 
     54 N          21.5028  -33.1195  -41.0442 N.am      9 UNK        -0.4200 
     55 CA         20.2062  -33.7198  -40.6830 C.3       9 UNK         0.0839 
     56 C          20.2642  -34.7350  -39.5037 C.2       9 UNK         0.5513 
     57 N          21.3623  -34.8387  -38.7638 N.am      9 UNK        -0.7519 
     58 O          19.2915  -35.4438  -39.2583 O.2       9 UNK        -0.4960 
     59 C59        19.1123  -32.6466  -40.4282 C.3       10 UNK        -0.0876 
     60 S60        18.9969  -31.4126  -41.7647 S.3       10 UNK        -0.2414 
     61 C61        17.5786  -32.0061  -42.7340 C.3       10 UNK         0.0169 
     62 H62        15.8305  -24.3915  -39.5775 H         1 UNK         0.0903 
     63 H63        17.5483  -24.0190  -39.7330 H         1 UNK         0.0903 
     64 H64        16.3429  -22.7705  -40.0559 H         1 UNK         0.0903 
     65 H65        18.4703  -24.7695  -41.6555 H         1 UNK         0.3096 
     66 H66        17.3013  -24.3765  -44.1863 H         1 UNK         0.1121 
     67 H67        17.7152  -27.3605  -43.5871 H         1 UNK         0.0849 
     68 H68        16.1725  -26.6304  -43.2524 H         1 UNK         0.0849 
     69 H69        14.9141  -28.2392  -44.8006 H         1 UNK         0.0865 
     70 H70        15.1446  -28.3737  -46.5250 H         1 UNK         0.0865 
     71 H71        15.9472  -29.9047  -43.4091 H         1 UNK         0.1346 
     72 H72        19.0841  -32.3875  -44.9398 H         1 UNK         0.1412 
     73 H73        17.5726  -29.1510  -47.3108 H         1 UNK         0.1426 
     74 H74        19.9094  -32.0881  -47.1746 H         1 UNK         0.0716 
     75 H75        19.0604  -31.0434  -48.2867 H         1 UNK         0.0716 
     76 H76        22.2633  -30.8036  -45.5023 H         1 UNK         0.0695 
     77 H77        20.6837  -30.4883  -44.8700 H         1 UNK         0.0695 
     78 H78        23.0499  -28.6625  -45.1063 H         1 UNK         0.0983 
     79 H79        20.4018  -27.6564  -45.6769 H         1 UNK         0.3095 
     80 H80        21.4455  -24.2249  -45.2934 H         1 UNK         0.0454 
     81 H81        20.5048  -25.9402  -47.6553 H         1 UNK         0.0851 
     82 H82        20.4684  -24.1795  -47.5616 H         1 UNK         0.0851 
     83 H83        22.0047  -25.0258  -47.5990 H         1 UNK         0.0851 
     84 H84        18.8788  -25.2013  -45.8717 H         1 UNK         0.2976 
     85 H85        20.2233  -27.8720  -43.1873 H         1 UNK         0.3116 
     86 H86        20.9339  -29.2972  -40.7966 H         1 UNK         0.0646 
     87 H87        18.5943  -28.4899  -41.3026 H         1 UNK         0.0847 
     88 H88        19.1765  -27.9497  -39.7380 H         1 UNK         0.0847 
     89 H89        19.1384  -26.8294  -41.0855 H         1 UNK         0.0847 
     90 H90        21.6164  -26.0027  -42.0073 H         1 UNK         0.3040 
     91 H91        23.0523  -25.0460  -39.7473 H         1 UNK         0.1015 
     92 H92        23.3473  -24.3299  -42.7172 H         1 UNK         0.0786 
     93 H93        23.9517  -23.3760  -41.3695 H         1 UNK         0.0786 
     94 H94        22.2205  -23.5841  -41.5863 H         1 UNK         0.0786 
     95 H95        23.9922  -27.2667  -42.2887 H         1 UNK         0.3172 
     96 H96        26.8458  -27.3011  -41.5121 H         1 UNK         0.0595 
     97 H97        25.3255  -28.9431  -43.6085 H         1 UNK         0.0839 
     98 H98        27.0661  -28.8737  -43.3961 H         1 UNK         0.0839 
     99 H99        26.1979  -27.4463  -43.9348 H         1 UNK         0.0839 
    100 H100       24.0565  -28.5458  -40.2089 H         1 UNK         0.2998 
    101 H101       23.4552  -30.1147  -38.8134 H         1 UNK         0.0822 
    102 H102       25.0824  -31.0804  -37.2465 H         1 UNK         0.0787 
    103 H103       26.4225  -30.6752  -38.3072 H         1 UNK         0.0787 
    104 H104       25.4871  -29.3969  -37.5316 H         1 UNK         0.0787 
    105 H105       23.7062  -30.8494  -41.6424 H         1 UNK         0.3055 
    106 H106       24.6310  -33.5957  -41.7773 H         1 UNK         0.1106 
    107 H107       24.6764  -31.9866  -43.7206 H         1 UNK         0.0828 
    108 H108       23.8028  -33.4663  -44.0968 H         1 UNK         0.0828 
    109 H109       22.9118  -31.9972  -43.7323 H         1 UNK         0.0828 
    110 H110       21.6226  -32.1424  -40.8256 H         1 UNK         0.2931 
    111 H111       19.8816  -34.2975  -41.5508 H         1 UNK         0.0412 
    112 H112       21.3864  -35.5022  -38.0053 H         1 UNK         0.3472 
    113 H113       22.1706  -34.2687  -38.9625 H         1 UNK         0.3472 
    114 H114       18.1360  -33.1158  -40.2912 H         1 UNK         0.0970 
    115 H115       19.3200  -32.1100  -39.5006 H         1 UNK         0.0970 
    116 H116       17.6884  -33.0735  -42.9318 H         1 UNK         0.0612 
    117 H117       16.6611  -31.8807  -42.1571 H         1 UNK         0.0612 
@<TRIPOS>BOND
     1    1    2 1    
     2    1   62 1    
     3    1   63 1    
     4    1   64 1    
     5    2    3 2    
     6    2    4 am   BACKBONE|DICT|INTERRES
     7    4    5 1    
     8    4   65 1    
     9    5    6 1    
    10    5   25 1    
    11    5   66 1    
    12    6    7 1    
    13    6   67 1    
    14    6   68 1    
    15    7    8 1    
    16    8    9 1    
    17    8   69 1    
    18    8   70 1    
    19    9   10 ar   
    20    9   14 ar   
    21   10   11 ar   
    22   10   71 1    
    23   11   12 ar   
    24   11   61 1    
    25   12   13 ar   
    26   12   72 1    
    27   13   14 ar   
    28   13   15 1    
    29   14   73 1    
    30   15   16 1    
    31   15   74 1    
    32   15   75 1    
    33   16   17 1    
    34   17   18 1    
    35   17   76 1    
    36   17   77 1    
    37   18   19 1    
    38   18   27 1    
    39   18   78 1    
    40   19   20 am   BACKBONE|DICT|INTERRES
    41   19   79 1    
    42   20   21 2    
    43   20   22 1    
    44   22   23 1    
    45   22   24 1    
    46   22   80 1    
    47   23   81 1    
    48   23   82 1    
    49   23   83 1    
    50   24   25 am   BACKBONE|DICT|INTERRES
    51   24   84 1    
    52   25   26 2    
    53   27   28 2    
    54   27   29 am   BACKBONE|DICT|INTERRES
    55   29   30 1    
    56   29   85 1    
    57   30   31 1    
    58   30   32 1    
    59   30   86 1    
    60   31   87 1    
    61   31   88 1    
    62   31   89 1    
    63   32   33 2    
    64   32   34 am   BACKBONE|DICT|INTERRES
    65   34   35 1    
    66   34   90 1    
    67   35   36 1    
    68   35   37 1    
    69   35   91 1    
    70   36   92 1    
    71   36   93 1    
    72   36   94 1    
    73   37   38 2    
    74   37   39 am   BACKBONE|DICT|INTERRES
    75   39   40 1    
    76   39   95 1    
    77   40   41 1    
    78   40   42 1    
    79   40   96 1    
    80   41   97 1    
    81   41   98 1    
    82   41   99 1    
    83   42   43 2    
    84   42   44 am   BACKBONE|DICT|INTERRES
    85   44   45 1    
    86   44  100 1    
    87   45   46 1    
    88   45   47 1    
    89   45  101 1    
    90   46  102 1    
    91   46  103 1    
    92   46  104 1    
    93   47   48 2    
    94   47   49 am   BACKBONE|DICT|INTERRES
    95   49   50 1    
    96   49  105 1    
    97   50   51 1    
    98   50   52 1    
    99   50  106 1    
   100   51  107 1    
   101   51  108 1    
   102   51  109 1    
   103   52   53 2    
   104   52   54 am   BACKBONE|DICT|INTERRES
   105   54   55 1    
   106   54  110 1    
   107   55   56 1    
   108   55   59 1    
   109   55  111 1    
   110   56   57 am   BACKBONE|DICT|INTERRES
   111   56   58 2    
   112   57  112 1    
   113   57  113 1    
   114   59   60 1    
   115   59  114 1    
   116   59  115 1    
   117   60   61 1    
   118   61  116 1    
   119   61  117 1    
@<TRIPOS>SUBSTRUCTURE
     1 UNK         1 GROUP             0       ****    0 ROOT    
