@<TRIPOS>MOLECULE
3R8
117   119    1
SMALL
USER_CHARGES


@<TRIPOS>ATOM
      1 CA         18.7728  -24.7511  -49.4513 C.3       0 UNK        -0.2013 
      2 C          19.5620  -24.7538  -48.1507 C.2       0 UNK         0.4866 
      3 O          19.9171  -23.6877  -47.6469 O.2       0 UNK        -0.5176 
      4 N          19.8498  -25.9447  -47.6115 N.am      1 UNK        -0.4884 
      5 CA         20.5500  -26.1605  -46.3410 C.3       1 UNK         0.0853 
      6 C6         20.9750  -27.6471  -46.0974 C.3       10 UNK        -0.0849 
      7 S7         20.2177  -28.9240  -47.1681 S.3       10 UNK        -0.2776 
      8 C8         18.4885  -28.9832  -46.5817 C.3       10 UNK         0.0316 
      9 C9         18.2853  -29.5826  -45.1915 C.ar      10 UNK        -0.0863 
     10 C10        19.0592  -30.6514  -44.7235 C.ar      10 UNK        -0.1009 
     11 C11        18.7965  -31.2293  -43.4769 C.ar      10 UNK        -0.0712 
     12 C12        17.7521  -30.7332  -42.6923 C.ar      10 UNK        -0.0894 
     13 C13        16.9706  -29.6690  -43.1470 C.ar      10 UNK        -0.0745 
     14 C14        17.2446  -29.0978  -44.3930 C.ar      10 UNK        -0.0972 
     15 C15        15.8071  -29.1565  -42.3118 C.3       10 UNK         0.0209 
     16 S16        16.1346  -27.5026  -41.6324 S.3       10 UNK        -0.2568 
     17 C17        17.3609  -27.8550  -40.3250 C.3       10 UNK        -0.0983 
     18 CA         18.8338  -27.6197  -40.7572 C.3       3 UNK         0.0876 
     19 N          19.0009  -26.3498  -41.4678 N.am      3 UNK        -0.4424 
     20 C          20.1298  -25.8903  -42.0152 C.2       2 UNK         0.4918 
     21 O          21.2370  -26.4277  -41.9015 O.2       2 UNK        -0.4875 
     22 CA         19.9937  -24.6262  -42.8777 C.3       2 UNK         0.0481 
     23 CB         20.8245  -23.4681  -42.3041 C.3       2 UNK        -0.1831 
     24 N          20.4553  -24.9298  -44.2289 N.am      2 UNK        -0.4498 
     25 C          19.7505  -25.6172  -45.1376 C.2       1 UNK         0.5027 
     26 O          18.5499  -25.8747  -45.0274 O.2       1 UNK        -0.4969 
     27 C          19.7697  -27.7163  -39.5355 C.2       3 UNK         0.5005 
     28 O          19.6538  -26.8923  -38.6254 O.2       3 UNK        -0.5279 
     29 N          20.6812  -28.7005  -39.5468 N.am      4 UNK        -0.4463 
     30 CA         21.6948  -28.9916  -38.5226 C.3       4 UNK         0.0283 
     31 CB         21.0460  -29.3276  -37.1630 C.3       4 UNK        -0.1875 
     32 C          22.8068  -27.9306  -38.4006 C.2       4 UNK         0.4949 
     33 O          23.6006  -28.0058  -37.4617 O.2       4 UNK        -0.5039 
     34 N          22.8721  -26.9878  -39.3492 N.am      5 UNK        -0.4663 
     35 CA         23.8988  -25.9494  -39.4279 C.3       5 UNK         0.0242 
     36 CB         23.2382  -24.5629  -39.3597 C.3       5 UNK        -0.1982 
     37 C          24.7265  -26.1174  -40.7066 C.2       5 UNK         0.5017 
     38 O          25.9523  -26.1974  -40.6219 O.2       5 UNK        -0.5012 
     39 N          24.0494  -26.1901  -41.8612 N.am      6 UNK        -0.4439 
     40 CA         24.6756  -26.4202  -43.1653 C.3       6 UNK         0.0297 
     41 CB         23.8643  -25.7068  -44.2549 C.3       6 UNK        -0.2006 
     42 C          24.7860  -27.9174  -43.4892 C.2       6 UNK         0.4892 
     43 O          25.7516  -28.3211  -44.1381 O.2       6 UNK        -0.5089 
     44 N          23.8052  -28.7087  -43.0381 N.am      7 UNK        -0.4243 
     45 CA         23.7507  -30.1558  -43.2037 C.3       7 UNK         0.0196 
     46 CB         23.0492  -30.5086  -44.5271 C.3       7 UNK        -0.2007 
     47 C          22.9895  -30.7423  -42.0151 C.2       7 UNK         0.5020 
     48 O          21.9766  -30.1691  -41.6071 O.2       7 UNK        -0.5147 
     49 N          23.4723  -31.8797  -41.5031 N.am      8 UNK        -0.4734 
     50 CA         22.8617  -32.6159  -40.3901 C.3       8 UNK         0.0238 
     51 CB         23.9663  -33.0342  -39.4048 C.3       8 UNK        -0.1912 
     52 C          22.0530  -33.8423  -40.8474 C.2       8 UNK         0.5038 
     53 O          21.3233  -34.4018  -40.0287 O.2       8 UNK        -0.5046 
     54 N          22.1846  -34.2363  -42.1246 N.am      9 UNK        -0.4200 
     55 CA         21.5006  -35.3828  -42.7559 C.3       9 UNK         0.0839 
     56 C          21.9251  -36.7760  -42.1917 C.2       9 UNK         0.5513 
     57 N          23.0644  -36.8970  -41.5203 N.am      9 UNK        -0.7519 
     58 O          21.2352  -37.7725  -42.3928 O.2       9 UNK        -0.4960 
     59 C59        19.9530  -35.2003  -42.8274 C.3       10 UNK        -0.0876 
     60 S60        19.4209  -33.8855  -43.9772 S.3       10 UNK        -0.2414 
     61 C61        19.6406  -32.3870  -42.9713 C.3       10 UNK         0.0169 
     62 H62        18.5363  -25.7606  -49.7872 H         1 UNK         0.0903 
     63 H63        17.8363  -24.2096  -49.3201 H         1 UNK         0.0903 
     64 H64        19.3449  -24.2578  -50.2366 H         1 UNK         0.0903 
     65 H65        19.5451  -26.7922  -48.0703 H         1 UNK         0.3096 
     66 H66        21.4656  -25.5681  -46.4093 H         1 UNK         0.1121 
     67 H67        20.8373  -27.9554  -45.0577 H         1 UNK         0.0849 
     68 H68        22.0512  -27.7267  -46.2590 H         1 UNK         0.0849 
     69 H69        18.0660  -27.9790  -46.6274 H         1 UNK         0.0865 
     70 H70        17.9132  -29.5821  -47.2887 H         1 UNK         0.0865 
     71 H71        19.8547  -31.0536  -45.3353 H         1 UNK         0.1346 
     72 H72        17.5413  -31.1814  -41.7310 H         1 UNK         0.1412 
     73 H73        16.6326  -28.2781  -44.7453 H         1 UNK         0.1426 
     74 H74        15.5674  -29.8457  -41.5006 H         1 UNK         0.0716 
     75 H75        14.9160  -29.1057  -42.9392 H         1 UNK         0.0716 
     76 H76        17.2291  -28.8790  -39.9708 H         1 UNK         0.0695 
     77 H77        17.1034  -27.2121  -39.4806 H         1 UNK         0.0695 
     78 H78        19.1065  -28.4056  -41.4651 H         1 UNK         0.0983 
     79 H79        18.1431  -25.8432  -41.6315 H         1 UNK         0.3095 
     80 H80        18.9475  -24.3141  -42.9134 H         1 UNK         0.0454 
     81 H81        21.8913  -23.6934  -42.2993 H         1 UNK         0.0851 
     82 H82        20.5292  -23.2463  -41.2777 H         1 UNK         0.0851 
     83 H83        20.6813  -22.5565  -42.8842 H         1 UNK         0.0851 
     84 H84        21.4310  -24.7478  -44.4076 H         1 UNK         0.2976 
     85 H85        20.7777  -29.2703  -40.3856 H         1 UNK         0.3116 
     86 H86        22.2036  -29.8925  -38.8630 H         1 UNK         0.0646 
     87 H87        20.5872  -28.4521  -36.7031 H         1 UNK         0.0847 
     88 H88        21.7874  -29.7081  -36.4594 H         1 UNK         0.0847 
     89 H89        20.2790  -30.0947  -37.2673 H         1 UNK         0.0847 
     90 H90        22.1789  -27.0043  -40.0878 H         1 UNK         0.3040 
     91 H91        24.5923  -26.0273  -38.5873 H         1 UNK         0.1015 
     92 H92        22.4709  -24.4404  -40.1220 H         1 UNK         0.0786 
     93 H93        23.9731  -23.7686  -39.4980 H         1 UNK         0.0786 
     94 H94        22.7662  -24.4032  -38.3901 H         1 UNK         0.0786 
     95 H95        23.0330  -26.1457  -41.8433 H         1 UNK         0.3172 
     96 H96        25.6827  -25.9972  -43.1672 H         1 UNK         0.0595 
     97 H97        22.8708  -26.1409  -44.3440 H         1 UNK         0.0839 
     98 H98        24.3505  -25.8027  -45.2269 H         1 UNK         0.0839 
     99 H99        23.7628  -24.6420  -44.0449 H         1 UNK         0.0839 
    100 H100       23.0511  -28.3170  -42.4886 H         1 UNK         0.2998 
    101 H101       24.7654  -30.5603  -43.2103 H         1 UNK         0.0822 
    102 H102       23.5835  -30.0969  -45.3834 H         1 UNK         0.0787 
    103 H103       22.9926  -31.5886  -44.6676 H         1 UNK         0.0787 
    104 H104       22.0299  -30.1224  -44.5535 H         1 UNK         0.0787 
    105 H105       24.3230  -32.2665  -41.8887 H         1 UNK         0.3055 
    106 H106       22.1595  -31.9737  -39.8555 H         1 UNK         0.1106 
    107 H107       23.5480  -33.5661  -38.5489 H         1 UNK         0.0828 
    108 H108       24.6994  -33.6932  -39.8713 H         1 UNK         0.0828 
    109 H109       24.4963  -32.1654  -39.0140 H         1 UNK         0.0828 
    110 H110       22.8111  -33.7203  -42.7228 H         1 UNK         0.2931 
    111 H111       21.8650  -35.3993  -43.7837 H         1 UNK         0.0412 
    112 H112       23.3367  -37.8023  -41.1702 H         1 UNK         0.3472 
    113 H113       23.6524  -36.0955  -41.3594 H         1 UNK         0.3472 
    114 H114       19.4780  -36.1129  -43.1911 H         1 UNK         0.0970 
    115 H115       19.5241  -35.0286  -41.8396 H         1 UNK         0.0970 
    116 H116       19.4098  -32.6038  -41.9273 H         1 UNK         0.0612 
    117 H117       20.6877  -32.0958  -43.0096 H         1 UNK         0.0612 
@<TRIPOS>BOND
     1    1    2 1    
     2    1   62 1    
     3    1   63 1    
     4    1   64 1    
     5    2    3 2    
     6    2    4 am   BACKBONE|DICT|INTERRES
     7    4    5 1    
     8    4   65 1    
     9    5    6 1    
    10    5   25 1    
    11    5   66 1    
    12    6    7 1    
    13    6   67 1    
    14    6   68 1    
    15    7    8 1    
    16    8    9 1    
    17    8   69 1    
    18    8   70 1    
    19    9   10 ar   
    20    9   14 ar   
    21   10   11 ar   
    22   10   71 1    
    23   11   12 ar   
    24   11   61 1    
    25   12   13 ar   
    26   12   72 1    
    27   13   14 ar   
    28   13   15 1    
    29   14   73 1    
    30   15   16 1    
    31   15   74 1    
    32   15   75 1    
    33   16   17 1    
    34   17   18 1    
    35   17   76 1    
    36   17   77 1    
    37   18   19 1    
    38   18   27 1    
    39   18   78 1    
    40   19   20 am   BACKBONE|DICT|INTERRES
    41   19   79 1    
    42   20   21 2    
    43   20   22 1    
    44   22   23 1    
    45   22   24 1    
    46   22   80 1    
    47   23   81 1    
    48   23   82 1    
    49   23   83 1    
    50   24   25 am   BACKBONE|DICT|INTERRES
    51   24   84 1    
    52   25   26 2    
    53   27   28 2    
    54   27   29 am   BACKBONE|DICT|INTERRES
    55   29   30 1    
    56   29   85 1    
    57   30   31 1    
    58   30   32 1    
    59   30   86 1    
    60   31   87 1    
    61   31   88 1    
    62   31   89 1    
    63   32   33 2    
    64   32   34 am   BACKBONE|DICT|INTERRES
    65   34   35 1    
    66   34   90 1    
    67   35   36 1    
    68   35   37 1    
    69   35   91 1    
    70   36   92 1    
    71   36   93 1    
    72   36   94 1    
    73   37   38 2    
    74   37   39 am   BACKBONE|DICT|INTERRES
    75   39   40 1    
    76   39   95 1    
    77   40   41 1    
    78   40   42 1    
    79   40   96 1    
    80   41   97 1    
    81   41   98 1    
    82   41   99 1    
    83   42   43 2    
    84   42   44 am   BACKBONE|DICT|INTERRES
    85   44   45 1    
    86   44  100 1    
    87   45   46 1    
    88   45   47 1    
    89   45  101 1    
    90   46  102 1    
    91   46  103 1    
    92   46  104 1    
    93   47   48 2    
    94   47   49 am   BACKBONE|DICT|INTERRES
    95   49   50 1    
    96   49  105 1    
    97   50   51 1    
    98   50   52 1    
    99   50  106 1    
   100   51  107 1    
   101   51  108 1    
   102   51  109 1    
   103   52   53 2    
   104   52   54 am   BACKBONE|DICT|INTERRES
   105   54   55 1    
   106   54  110 1    
   107   55   56 1    
   108   55   59 1    
   109   55  111 1    
   110   56   57 am   BACKBONE|DICT|INTERRES
   111   56   58 2    
   112   57  112 1    
   113   57  113 1    
   114   59   60 1    
   115   59  114 1    
   116   59  115 1    
   117   60   61 1    
   118   61  116 1    
   119   61  117 1    
@<TRIPOS>SUBSTRUCTURE
     1 UNK         1 GROUP             0       ****    0 ROOT    
