@<TRIPOS>MOLECULE
3R8
117   119    1
SMALL
USER_CHARGES


@<TRIPOS>ATOM
      1 CA         15.1182  -23.0774  -42.2464 C.3       0 UNK        -0.2013 
      2 C          16.1962  -23.3621  -43.2814 C.2       0 UNK         0.4866 
      3 O          16.8407  -22.4322  -43.7676 O.2       0 UNK        -0.5176 
      4 N          16.3917  -24.6394  -43.6292 N.am      1 UNK        -0.4884 
      5 CA         17.4296  -25.1167  -44.5457 C.3       1 UNK         0.0853 
      6 C6         17.1414  -26.5560  -45.0667 C.3       10 UNK        -0.0849 
      7 S7         16.5811  -27.7387  -43.7858 S.3       10 UNK        -0.2776 
      8 C8         16.1237  -29.2010  -44.7724 C.3       10 UNK         0.0316 
      9 C9         17.2877  -30.1703  -44.9359 C.ar      10 UNK        -0.0863 
     10 C10        17.4391  -31.2486  -44.0556 C.ar      10 UNK        -0.1009 
     11 C11        18.4931  -32.1606  -44.2109 C.ar      10 UNK        -0.0712 
     12 C12        19.3960  -31.9745  -45.2637 C.ar      10 UNK        -0.0894 
     13 C13        19.2480  -30.9119  -46.1601 C.ar      10 UNK        -0.0745 
     14 C14        18.1892  -30.0149  -45.9914 C.ar      10 UNK        -0.0972 
     15 C15        20.1989  -30.7692  -47.3427 C.3       10 UNK         0.0209 
     16 S16        21.7941  -30.0185  -46.8834 S.3       10 UNK        -0.2568 
     17 C17        21.3021  -28.2958  -46.5297 C.3       10 UNK        -0.0983 
     18 CA         22.0268  -27.6333  -45.3311 C.3       3 UNK         0.0876 
     19 N          21.5321  -26.2687  -45.1422 N.am      3 UNK        -0.4424 
     20 C          21.9428  -25.3907  -44.2174 C.2       2 UNK         0.4918 
     21 O          22.8711  -25.5978  -43.4357 O.2       2 UNK        -0.4875 
     22 CA         21.1330  -24.0855  -44.1151 C.3       2 UNK         0.0481 
     23 CB         21.8023  -22.9736  -44.9369 C.3       2 UNK        -0.1831 
     24 N          19.7344  -24.2437  -44.5422 N.am      2 UNK        -0.4498 
     25 C          18.8258  -24.9942  -43.8985 C.2       1 UNK         0.5027 
     26 O          19.0683  -25.5988  -42.8527 O.2       1 UNK        -0.4969 
     27 C          21.9469  -28.4647  -44.0303 C.2       3 UNK         0.5005 
     28 O          22.9200  -29.1389  -43.6966 O.2       3 UNK        -0.5279 
     29 N          20.8372  -28.3391  -43.2844 N.am      4 UNK        -0.4463 
     30 CA         20.6192  -29.0272  -42.0094 C.3       4 UNK         0.0283 
     31 CB         19.1477  -28.8950  -41.5916 C.3       4 UNK        -0.1875 
     32 C          21.5277  -28.5542  -40.8646 C.2       4 UNK         0.4949 
     33 O          21.7085  -29.3064  -39.9068 O.2       4 UNK        -0.5039 
     34 N          22.0618  -27.3296  -40.9655 N.am      5 UNK        -0.4663 
     35 CA         23.0566  -26.7922  -40.0379 C.3       5 UNK         0.0242 
     36 CB         22.9201  -25.2626  -39.9600 C.3       5 UNK        -0.1982 
     37 C          24.4775  -27.1977  -40.4577 C.2       5 UNK         0.5017 
     38 O          25.2899  -27.5209  -39.5909 O.2       5 UNK        -0.5012 
     39 N          24.7492  -27.1770  -41.7718 N.am      6 UNK        -0.4439 
     40 CA         26.0267  -27.5676  -42.3737 C.3       6 UNK         0.0297 
     41 CB         26.0373  -27.1744  -43.8598 C.3       6 UNK        -0.2006 
     42 C          26.3385  -29.0646  -42.2012 C.2       6 UNK         0.4892 
     43 O          27.4616  -29.4080  -41.8298 O.2       6 UNK        -0.5089 
     44 N          25.3398  -29.9172  -42.4536 N.am      7 UNK        -0.4243 
     45 CA         25.3738  -31.3575  -42.2317 C.3       7 UNK         0.0196 
     46 CB         25.2784  -32.0816  -43.5868 C.3       7 UNK        -0.2007 
     47 C          24.1858  -31.6824  -41.3225 C.2       7 UNK         0.5020 
     48 O          23.0534  -31.6930  -41.8027 O.2       7 UNK        -0.5147 
     49 N          24.4729  -31.8810  -40.0272 N.am      8 UNK        -0.4734 
     50 CA         23.5269  -32.0410  -38.9133 C.3       8 UNK         0.0238 
     51 CB         24.3103  -32.4539  -37.6540 C.3       8 UNK        -0.1912 
     52 C          22.3692  -33.0194  -39.1930 C.2       8 UNK         0.5038 
     53 O          22.5535  -34.2327  -39.0704 O.2       8 UNK        -0.5046 
     54 N          21.2137  -32.4683  -39.5831 N.am      9 UNK        -0.4200 
     55 CA         19.9854  -33.2158  -39.8801 C.3       9 UNK         0.0839 
     56 C          19.3189  -33.7643  -38.5891 C.2       9 UNK         0.5513 
     57 N          18.7973  -34.9826  -38.6244 N.am      9 UNK        -0.7519 
     58 O          19.2447  -33.0820  -37.5689 O.2       9 UNK        -0.4960 
     59 C59        19.0110  -32.3522  -40.7228 C.3       10 UNK        -0.0876 
     60 S60        17.8318  -33.3449  -41.6947 S.3       10 UNK        -0.2414 
     61 C61        18.6584  -33.3994  -43.3243 C.3       10 UNK         0.0169 
     62 H62        14.6238  -23.9892  -41.9115 H         1 UNK         0.0903 
     63 H63        15.5543  -22.5888  -41.3755 H         1 UNK         0.0903 
     64 H64        14.3608  -22.4155  -42.6655 H         1 UNK         0.0903 
     65 H65        15.8619  -25.3728  -43.1777 H         1 UNK         0.3096 
     66 H66        17.4140  -24.4573  -45.4168 H         1 UNK         0.1121 
     67 H67        16.3562  -26.5002  -45.8223 H         1 UNK         0.0849 
     68 H68        18.0112  -26.9690  -45.5802 H         1 UNK         0.0849 
     69 H69        15.2936  -29.7058  -44.2757 H         1 UNK         0.0865 
     70 H70        15.7428  -28.8944  -45.7477 H         1 UNK         0.0865 
     71 H71        16.7204  -31.3786  -43.2591 H         1 UNK         0.1346 
     72 H72        20.2066  -32.6767  -45.4052 H         1 UNK         0.1412 
     73 H73        18.0564  -29.2015  -46.6912 H         1 UNK         0.1426 
     74 H74        19.7399  -30.1794  -48.1379 H         1 UNK         0.0716 
     75 H75        20.3890  -31.7542  -47.7715 H         1 UNK         0.0716 
     76 H76        21.4881  -27.7152  -47.4347 H         1 UNK         0.0695 
     77 H77        20.2259  -28.2524  -46.3703 H         1 UNK         0.0695 
     78 H78        23.0851  -27.5519  -45.5872 H         1 UNK         0.0983 
     79 H79        20.7777  -25.9841  -45.7477 H         1 UNK         0.3095 
     80 H80        21.1330  -23.7809  -43.0663 H         1 UNK         0.0454 
     81 H81        22.8354  -22.8237  -44.6197 H         1 UNK         0.0851 
     82 H82        21.8200  -23.2089  -46.0017 H         1 UNK         0.0851 
     83 H83        21.2866  -22.0215  -44.8108 H         1 UNK         0.0851 
     84 H84        19.4570  -23.7439  -45.3756 H         1 UNK         0.2976 
     85 H85        20.1008  -27.7191  -43.5919 H         1 UNK         0.3116 
     86 H86        20.8431  -30.0817  -42.1746 H         1 UNK         0.0646 
     87 H87        18.9703  -29.3421  -40.6134 H         1 UNK         0.0847 
     88 H88        18.4928  -29.4000  -42.2981 H         1 UNK         0.0847 
     89 H89        18.8358  -27.8530  -41.5252 H         1 UNK         0.0847 
     90 H90        21.8585  -26.7796  -41.7896 H         1 UNK         0.3040 
     91 H91        22.8757  -27.1964  -39.0390 H         1 UNK         0.1015 
     92 H92        21.9206  -24.9708  -39.6372 H         1 UNK         0.0786 
     93 H93        23.1149  -24.7831  -40.9194 H         1 UNK         0.0786 
     94 H94        23.6270  -24.8471  -39.2406 H         1 UNK         0.0786 
     95 H95        24.0284  -26.8457  -42.4051 H         1 UNK         0.3172 
     96 H96        26.8142  -27.0030  -41.8701 H         1 UNK         0.0595 
     97 H97        26.9990  -27.4097  -44.3177 H         1 UNK         0.0839 
     98 H98        25.8685  -26.1051  -43.9897 H         1 UNK         0.0839 
     99 H99        25.2701  -27.7052  -44.4239 H         1 UNK         0.0839 
    100 H100       24.4391  -29.5536  -42.7686 H         1 UNK         0.2998 
    101 H101       26.2993  -31.6618  -41.7381 H         1 UNK         0.0822 
    102 H102       24.3828  -31.7911  -44.1389 H         1 UNK         0.0787 
    103 H103       26.1417  -31.8585  -44.2138 H         1 UNK         0.0787 
    104 H104       25.2437  -33.1629  -43.4495 H         1 UNK         0.0787 
    105 H105       25.4463  -31.8475  -39.7606 H         1 UNK         0.3055 
    106 H106       23.0973  -31.0589  -38.7128 H         1 UNK         0.1106 
    107 H107       24.8441  -33.3940  -37.7995 H         1 UNK         0.0828 
    108 H108       25.0385  -31.6939  -37.3700 H         1 UNK         0.0828 
    109 H109       23.6396  -32.5892  -36.8041 H         1 UNK         0.0828 
    110 H110       21.1705  -31.4611  -39.6772 H         1 UNK         0.2931 
    111 H111       20.2890  -34.0669  -40.4940 H         1 UNK         0.0412 
    112 H112       18.8324  -35.5356  -39.4670 H         1 UNK         0.3472 
    113 H113       18.3493  -35.3513  -37.7999 H         1 UNK         0.3472 
    114 H114       18.4572  -31.6529  -40.0939 H         1 UNK         0.0970 
    115 H115       19.5720  -31.7430  -41.4287 H         1 UNK         0.0970 
    116 H116       19.7188  -33.6050  -43.1672 H         1 UNK         0.0612 
    117 H117       18.2596  -34.2547  -43.8709 H         1 UNK         0.0612 
@<TRIPOS>BOND
     1    1    2 1    
     2    1   62 1    
     3    1   63 1    
     4    1   64 1    
     5    2    3 2    
     6    2    4 am   BACKBONE|DICT|INTERRES
     7    4    5 1    
     8    4   65 1    
     9    5    6 1    
    10    5   25 1    
    11    5   66 1    
    12    6    7 1    
    13    6   67 1    
    14    6   68 1    
    15    7    8 1    
    16    8    9 1    
    17    8   69 1    
    18    8   70 1    
    19    9   10 ar   
    20    9   14 ar   
    21   10   11 ar   
    22   10   71 1    
    23   11   12 ar   
    24   11   61 1    
    25   12   13 ar   
    26   12   72 1    
    27   13   14 ar   
    28   13   15 1    
    29   14   73 1    
    30   15   16 1    
    31   15   74 1    
    32   15   75 1    
    33   16   17 1    
    34   17   18 1    
    35   17   76 1    
    36   17   77 1    
    37   18   19 1    
    38   18   27 1    
    39   18   78 1    
    40   19   20 am   BACKBONE|DICT|INTERRES
    41   19   79 1    
    42   20   21 2    
    43   20   22 1    
    44   22   23 1    
    45   22   24 1    
    46   22   80 1    
    47   23   81 1    
    48   23   82 1    
    49   23   83 1    
    50   24   25 am   BACKBONE|DICT|INTERRES
    51   24   84 1    
    52   25   26 2    
    53   27   28 2    
    54   27   29 am   BACKBONE|DICT|INTERRES
    55   29   30 1    
    56   29   85 1    
    57   30   31 1    
    58   30   32 1    
    59   30   86 1    
    60   31   87 1    
    61   31   88 1    
    62   31   89 1    
    63   32   33 2    
    64   32   34 am   BACKBONE|DICT|INTERRES
    65   34   35 1    
    66   34   90 1    
    67   35   36 1    
    68   35   37 1    
    69   35   91 1    
    70   36   92 1    
    71   36   93 1    
    72   36   94 1    
    73   37   38 2    
    74   37   39 am   BACKBONE|DICT|INTERRES
    75   39   40 1    
    76   39   95 1    
    77   40   41 1    
    78   40   42 1    
    79   40   96 1    
    80   41   97 1    
    81   41   98 1    
    82   41   99 1    
    83   42   43 2    
    84   42   44 am   BACKBONE|DICT|INTERRES
    85   44   45 1    
    86   44  100 1    
    87   45   46 1    
    88   45   47 1    
    89   45  101 1    
    90   46  102 1    
    91   46  103 1    
    92   46  104 1    
    93   47   48 2    
    94   47   49 am   BACKBONE|DICT|INTERRES
    95   49   50 1    
    96   49  105 1    
    97   50   51 1    
    98   50   52 1    
    99   50  106 1    
   100   51  107 1    
   101   51  108 1    
   102   51  109 1    
   103   52   53 2    
   104   52   54 am   BACKBONE|DICT|INTERRES
   105   54   55 1    
   106   54  110 1    
   107   55   56 1    
   108   55   59 1    
   109   55  111 1    
   110   56   57 am   BACKBONE|DICT|INTERRES
   111   56   58 2    
   112   57  112 1    
   113   57  113 1    
   114   59   60 1    
   115   59  114 1    
   116   59  115 1    
   117   60   61 1    
   118   61  116 1    
   119   61  117 1    
@<TRIPOS>SUBSTRUCTURE
     1 UNK         1 GROUP             0       ****    0 ROOT    
