@<TRIPOS>MOLECULE
3R8
117   119    1
SMALL
USER_CHARGES


@<TRIPOS>ATOM
      1 CA         18.9250  -24.1347  -38.7207 C.3       0 UNK        -0.2013 
      2 C          18.2978  -24.4212  -40.0769 C.2       0 UNK         0.4866 
      3 O          17.3936  -23.7003  -40.5011 O.2       0 UNK        -0.5176 
      4 N          18.7675  -25.4714  -40.7567 N.am      1 UNK        -0.4884 
      5 CA         18.3502  -25.8534  -42.1074 C.3       1 UNK         0.0853 
      6 C6         18.7733  -27.3057  -42.4295 C.3       10 UNK        -0.0849 
      7 S7         17.9811  -28.5711  -41.3780 S.3       10 UNK        -0.2776 
      8 C8         17.2806  -29.7323  -42.6118 C.3       10 UNK         0.0316 
      9 C9         18.2814  -30.6740  -43.2952 C.ar      10 UNK        -0.0863 
     10 C10        17.8364  -31.9125  -43.7710 C.ar      10 UNK        -0.1009 
     11 C11        18.7134  -32.7886  -44.4208 C.ar      10 UNK        -0.0712 
     12 C12        20.0407  -32.4047  -44.6369 C.ar      10 UNK        -0.0894 
     13 C13        20.5048  -31.1768  -44.1638 C.ar      10 UNK        -0.0745 
     14 C14        19.6280  -30.3374  -43.4767 C.ar      10 UNK        -0.0972 
     15 C15        21.9561  -30.7573  -44.3655 C.3       10 UNK         0.0209 
     16 S16        22.1701  -29.6467  -45.7982 S.3       10 UNK        -0.2568 
     17 C17        21.3570  -28.1279  -45.1984 C.3       10 UNK        -0.0983 
     18 CA         21.8325  -26.8267  -45.8907 C.3       3 UNK         0.0876 
     19 N          20.9352  -25.7216  -45.5723 N.am      3 UNK        -0.4424 
     20 C          19.8088  -25.4087  -46.2172 C.2       2 UNK         0.4918 
     21 O          19.4153  -25.9891  -47.2300 O.2       2 UNK        -0.4875 
     22 CA         18.9459  -24.3102  -45.5647 C.3       2 UNK         0.0481 
     23 CB         17.8254  -23.8065  -46.4929 C.3       2 UNK        -0.1831 
     24 N          18.3506  -24.8382  -44.3345 N.am      2 UNK        -0.4498 
     25 C          18.9864  -24.9212  -43.1578 C.2       1 UNK         0.5027 
     26 O          20.0790  -24.3902  -42.9377 O.2       1 UNK        -0.4969 
     27 C          23.2340  -26.4080  -45.4236 C.2       3 UNK         0.5005 
     28 O          23.3472  -25.7095  -44.4123 O.2       3 UNK        -0.5279 
     29 N          24.2752  -26.8610  -46.1349 N.am      4 UNK        -0.4463 
     30 CA         25.6820  -26.5347  -45.8662 C.3       4 UNK         0.0283 
     31 CB         26.5623  -27.1217  -46.9813 C.3       4 UNK        -0.1875 
     32 C          26.1885  -26.9952  -44.4867 C.2       4 UNK         0.4949 
     33 O          27.0828  -26.3582  -43.9303 O.2       4 UNK        -0.5039 
     34 N          25.6038  -28.0776  -43.9558 N.am      5 UNK        -0.4663 
     35 CA         25.9071  -28.6089  -42.6249 C.3       5 UNK         0.0242 
     36 CB         25.5788  -30.1110  -42.5990 C.3       5 UNK        -0.1982 
     37 C          25.1654  -27.8796  -41.4889 C.2       5 UNK         0.5017 
     38 O          25.5099  -28.1051  -40.3282 O.2       5 UNK        -0.5012 
     39 N          24.1538  -27.0588  -41.8203 N.am      6 UNK        -0.4439 
     40 CA         23.2378  -26.3058  -40.9453 C.3       6 UNK         0.0297 
     41 CB         23.9945  -25.2623  -40.1023 C.3       6 UNK        -0.2006 
     42 C          22.3140  -27.1664  -40.0590 C.2       6 UNK         0.4892 
     43 O          21.1317  -26.8446  -39.9385 O.2       6 UNK        -0.5089 
     44 N          22.8527  -28.2323  -39.4584 N.am      7 UNK        -0.4243 
     45 CA         22.1157  -29.2589  -38.7248 C.3       7 UNK         0.0196 
     46 CB         23.1038  -30.0441  -37.8470 C.3       7 UNK        -0.2007 
     47 C          21.3823  -30.2060  -39.6885 C.2       7 UNK         0.5020 
     48 O          21.8191  -30.3849  -40.8276 O.2       7 UNK        -0.5147 
     49 N          20.2939  -30.8118  -39.2008 N.am      8 UNK        -0.4734 
     50 CA         19.4633  -31.7474  -39.9605 C.3       8 UNK         0.0238 
     51 CB         18.1031  -31.8966  -39.2591 C.3       8 UNK        -0.1912 
     52 C          20.1277  -33.1199  -40.1543 C.2       8 UNK         0.5038 
     53 O          20.9457  -33.5308  -39.3271 O.2       8 UNK        -0.5046 
     54 N          19.7152  -33.8221  -41.2174 N.am      9 UNK        -0.4200 
     55 CA         20.1106  -35.2066  -41.5247 C.3       9 UNK         0.0839 
     56 C          19.5598  -36.2905  -40.5494 C.2       9 UNK         0.5513 
     57 N          18.5975  -35.9883  -39.6856 N.am      9 UNK        -0.7519 
     58 O          20.0256  -37.4270  -40.5726 O.2       9 UNK        -0.4960 
     59 C59        19.8287  -35.5728  -43.0084 C.3       10 UNK        -0.0876 
     60 S60        18.0842  -35.3363  -43.5140 S.3       10 UNK        -0.2414 
     61 C61        18.2256  -34.1505  -44.8911 C.3       10 UNK         0.0169 
     62 H62        19.3747  -23.1422  -38.7175 H         1 UNK         0.0903 
     63 H63        18.1655  -24.1691  -37.9402 H         1 UNK         0.0903 
     64 H64        19.7007  -24.8591  -38.4716 H         1 UNK         0.0903 
     65 H65        19.5495  -26.0064  -40.3804 H         1 UNK         0.3096 
     66 H66        17.2632  -25.7699  -42.1763 H         1 UNK         0.1121 
     67 H67        18.5612  -27.5442  -43.4738 H         1 UNK         0.0849 
     68 H68        19.8543  -27.3989  -42.3087 H         1 UNK         0.0849 
     69 H69        16.5275  -30.3298  -42.0958 H         1 UNK         0.0865 
     70 H70        16.7448  -29.1685  -43.3765 H         1 UNK         0.0865 
     71 H71        16.8042  -32.2041  -43.6297 H         1 UNK         0.1346 
     72 H72        20.7175  -33.0668  -45.1592 H         1 UNK         0.1412 
     73 H73        20.0231  -29.4208  -43.0812 H         1 UNK         0.1426 
     74 H74        22.5850  -31.6377  -44.5047 H         1 UNK         0.0716 
     75 H75        22.3225  -30.2620  -43.4663 H         1 UNK         0.0716 
     76 H76        21.4908  -28.0448  -44.1183 H         1 UNK         0.0695 
     77 H77        20.2868  -28.2614  -45.3645 H         1 UNK         0.0695 
     78 H78        21.8493  -26.9671  -46.9741 H         1 UNK         0.0983 
     79 H79        21.2080  -25.1853  -44.7545 H         1 UNK         0.3095 
     80 H80        19.5931  -23.4622  -45.3305 H         1 UNK         0.0454 
     81 H81        18.2385  -23.4108  -47.4216 H         1 UNK         0.0851 
     82 H82        17.2556  -23.0035  -46.0253 H         1 UNK         0.0851 
     83 H83        17.1273  -24.6010  -46.7594 H         1 UNK         0.0851 
     84 H84        17.4717  -25.3242  -44.4456 H         1 UNK         0.2976 
     85 H85        24.0949  -27.4575  -46.9308 H         1 UNK         0.3116 
     86 H86        25.7758  -25.4470  -45.8964 H         1 UNK         0.0646 
     87 H87        26.4893  -28.2091  -47.0244 H         1 UNK         0.0847 
     88 H88        26.2849  -26.7259  -47.9584 H         1 UNK         0.0847 
     89 H89        27.6125  -26.8728  -46.8211 H         1 UNK         0.0847 
     90 H90        24.8862  -28.5478  -44.4893 H         1 UNK         0.3040 
     91 H91        26.9769  -28.4950  -42.4344 H         1 UNK         0.1015 
     92 H92        25.8694  -30.5568  -41.6467 H         1 UNK         0.0786 
     93 H93        26.1118  -30.6500  -43.3825 H         1 UNK         0.0786 
     94 H94        24.5127  -30.2949  -42.7270 H         1 UNK         0.0786 
     95 H95        23.9863  -26.9116  -42.8098 H         1 UNK         0.3172 
     96 H96        22.5825  -25.7574  -41.6248 H         1 UNK         0.0595 
     97 H97        24.6732  -25.7275  -39.3869 H         1 UNK         0.0839 
     98 H98        23.2979  -24.6451  -39.5333 H         1 UNK         0.0839 
     99 H99        24.5789  -24.5929  -40.7337 H         1 UNK         0.0839 
    100 H100       23.8388  -28.4075  -39.6321 H         1 UNK         0.2998 
    101 H101       21.3807  -28.7679  -38.0831 H         1 UNK         0.0822 
    102 H102       22.5898  -30.8108  -37.2657 H         1 UNK         0.0787 
    103 H103       23.6143  -29.3891  -37.1407 H         1 UNK         0.0787 
    104 H104       23.8633  -30.5458  -38.4486 H         1 UNK         0.0787 
    105 H105       20.0308  -30.6500  -38.2397 H         1 UNK         0.3055 
    106 H106       19.3001  -31.3130  -40.9439 H         1 UNK         0.1106 
    107 H107       17.6055  -30.9323  -39.1528 H         1 UNK         0.0828 
    108 H108       17.4331  -32.5384  -39.8326 H         1 UNK         0.0828 
    109 H109       18.2061  -32.3344  -38.2653 H         1 UNK         0.0828 
    110 H110       19.0396  -33.4172  -41.8503 H         1 UNK         0.2931 
    111 H111       21.1949  -35.2448  -41.4017 H         1 UNK         0.0412 
    112 H112       18.2041  -35.0623  -39.6615 H         1 UNK         0.3472 
    113 H113       18.2557  -36.6999  -39.0586 H         1 UNK         0.3472 
    114 H114       20.4801  -34.9831  -43.6523 H         1 UNK         0.0970 
    115 H115       20.1060  -36.6095  -43.2087 H         1 UNK         0.0970 
    116 H116       18.8889  -34.5604  -45.6544 H         1 UNK         0.0612 
    117 H117       17.2480  -34.0416  -45.3630 H         1 UNK         0.0612 
@<TRIPOS>BOND
     1    1    2 1    
     2    1   62 1    
     3    1   63 1    
     4    1   64 1    
     5    2    3 2    
     6    2    4 am   BACKBONE|DICT|INTERRES
     7    4    5 1    
     8    4   65 1    
     9    5    6 1    
    10    5   25 1    
    11    5   66 1    
    12    6    7 1    
    13    6   67 1    
    14    6   68 1    
    15    7    8 1    
    16    8    9 1    
    17    8   69 1    
    18    8   70 1    
    19    9   10 ar   
    20    9   14 ar   
    21   10   11 ar   
    22   10   71 1    
    23   11   12 ar   
    24   11   61 1    
    25   12   13 ar   
    26   12   72 1    
    27   13   14 ar   
    28   13   15 1    
    29   14   73 1    
    30   15   16 1    
    31   15   74 1    
    32   15   75 1    
    33   16   17 1    
    34   17   18 1    
    35   17   76 1    
    36   17   77 1    
    37   18   19 1    
    38   18   27 1    
    39   18   78 1    
    40   19   20 am   BACKBONE|DICT|INTERRES
    41   19   79 1    
    42   20   21 2    
    43   20   22 1    
    44   22   23 1    
    45   22   24 1    
    46   22   80 1    
    47   23   81 1    
    48   23   82 1    
    49   23   83 1    
    50   24   25 am   BACKBONE|DICT|INTERRES
    51   24   84 1    
    52   25   26 2    
    53   27   28 2    
    54   27   29 am   BACKBONE|DICT|INTERRES
    55   29   30 1    
    56   29   85 1    
    57   30   31 1    
    58   30   32 1    
    59   30   86 1    
    60   31   87 1    
    61   31   88 1    
    62   31   89 1    
    63   32   33 2    
    64   32   34 am   BACKBONE|DICT|INTERRES
    65   34   35 1    
    66   34   90 1    
    67   35   36 1    
    68   35   37 1    
    69   35   91 1    
    70   36   92 1    
    71   36   93 1    
    72   36   94 1    
    73   37   38 2    
    74   37   39 am   BACKBONE|DICT|INTERRES
    75   39   40 1    
    76   39   95 1    
    77   40   41 1    
    78   40   42 1    
    79   40   96 1    
    80   41   97 1    
    81   41   98 1    
    82   41   99 1    
    83   42   43 2    
    84   42   44 am   BACKBONE|DICT|INTERRES
    85   44   45 1    
    86   44  100 1    
    87   45   46 1    
    88   45   47 1    
    89   45  101 1    
    90   46  102 1    
    91   46  103 1    
    92   46  104 1    
    93   47   48 2    
    94   47   49 am   BACKBONE|DICT|INTERRES
    95   49   50 1    
    96   49  105 1    
    97   50   51 1    
    98   50   52 1    
    99   50  106 1    
   100   51  107 1    
   101   51  108 1    
   102   51  109 1    
   103   52   53 2    
   104   52   54 am   BACKBONE|DICT|INTERRES
   105   54   55 1    
   106   54  110 1    
   107   55   56 1    
   108   55   59 1    
   109   55  111 1    
   110   56   57 am   BACKBONE|DICT|INTERRES
   111   56   58 2    
   112   57  112 1    
   113   57  113 1    
   114   59   60 1    
   115   59  114 1    
   116   59  115 1    
   117   60   61 1    
   118   61  116 1    
   119   61  117 1    
@<TRIPOS>SUBSTRUCTURE
     1 UNK         1 GROUP             0       ****    0 ROOT    
