@<TRIPOS>MOLECULE
3R8
117   119    1
SMALL
USER_CHARGES


@<TRIPOS>ATOM
      1 CA         14.0076  -24.7910  -47.2728 C.3       0 UNK        -0.2013 
      2 C          15.1758  -25.6143  -47.7937 C.2       0 UNK         0.4866 
      3 O          15.6780  -25.3447  -48.8847 O.2       0 UNK        -0.5176 
      4 N          15.6191  -26.6125  -47.0189 N.am      1 UNK        -0.4884 
      5 CA         16.7243  -27.5210  -47.3576 C.3       1 UNK         0.0853 
      6 C6         16.5240  -28.9268  -46.7295 C.3       10 UNK        -0.0849 
      7 S7         16.2878  -28.9273  -44.9171 S.3       10 UNK        -0.2776 
      8 C8         17.9412  -29.4445  -44.3558 C.3       10 UNK         0.0316 
      9 C9         18.0275  -29.5312  -42.8383 C.ar      10 UNK        -0.0863 
     10 C10        18.3401  -30.7420  -42.2105 C.ar      10 UNK        -0.1009 
     11 C11        18.4614  -30.8106  -40.8181 C.ar      10 UNK        -0.0712 
     12 C12        18.2744  -29.6535  -40.0557 C.ar      10 UNK        -0.0894 
     13 C13        17.9533  -28.4397  -40.6707 C.ar      10 UNK        -0.0745 
     14 C14        17.8222  -28.3887  -42.0604 C.ar      10 UNK        -0.0972 
     15 C15        17.7368  -27.1895  -39.8315 C.3       10 UNK         0.0209 
     16 S16        19.2267  -26.1435  -39.7844 S.3       10 UNK        -0.2568 
     17 C17        19.0805  -25.1839  -41.3328 C.3       10 UNK        -0.0983 
     18 CA         20.0212  -25.6788  -42.4616 C.3       3 UNK         0.0876 
     19 N          19.5666  -25.1893  -43.7652 N.am      3 UNK        -0.4424 
     20 C          20.0716  -25.5429  -44.9536 C.2       2 UNK         0.4918 
     21 O          20.9997  -26.3377  -45.1034 O.2       2 UNK        -0.4875 
     22 CA         19.3778  -24.9184  -46.1763 C.3       2 UNK         0.0481 
     23 CB         20.3403  -24.7102  -47.3648 C.3       2 UNK        -0.1831 
     24 N          18.1881  -25.6867  -46.5671 N.am      2 UNK        -0.4498 
     25 C          18.1268  -26.9338  -47.0660 C.2       1 UNK         0.5027 
     26 O          19.1155  -27.6255  -47.3115 O.2       1 UNK        -0.4969 
     27 C          21.4948  -25.3222  -42.1685 C.2       3 UNK         0.5005 
     28 O          21.9375  -24.2076  -42.4589 O.2       3 UNK        -0.5279 
     29 N          22.1970  -26.2771  -41.5553 N.am      4 UNK        -0.4463 
     30 CA         23.5571  -26.2031  -41.0449 C.3       4 UNK         0.0283 
     31 CB         24.5805  -26.3515  -42.1847 C.3       4 UNK        -0.1875 
     32 C          23.6740  -27.3494  -40.0374 C.2       4 UNK         0.4949 
     33 O          23.1293  -28.4261  -40.2996 O.2       4 UNK        -0.5039 
     34 N          24.3497  -27.0947  -38.9092 N.am      5 UNK        -0.4663 
     35 CA         24.4801  -28.0043  -37.7649 C.3       5 UNK         0.0242 
     36 CB         25.3158  -27.3205  -36.6690 C.3       5 UNK        -0.1982 
     37 C          25.0863  -29.3613  -38.1591 C.2       5 UNK         0.5017 
     38 O          26.2807  -29.4263  -38.4561 O.2       5 UNK        -0.5012 
     39 N          24.2340  -30.3951  -38.2152 N.am      6 UNK        -0.4439 
     40 CA         24.4774  -31.7787  -38.6520 C.3       6 UNK         0.0297 
     41 CB         25.5361  -32.4725  -37.7733 C.3       6 UNK        -0.2006 
     42 C          24.8124  -31.9384  -40.1482 C.2       6 UNK         0.4892 
     43 O          24.3731  -32.9148  -40.7536 O.2       6 UNK        -0.5089 
     44 N          25.5652  -30.9917  -40.7217 N.am      7 UNK        -0.4243 
     45 CA         26.0390  -30.9789  -42.1072 C.3       7 UNK         0.0196 
     46 CB         26.9742  -29.7749  -42.3033 C.3       7 UNK        -0.2007 
     47 C          24.9230  -30.9696  -43.1656 C.2       7 UNK         0.5020 
     48 O          25.1218  -31.5267  -44.2455 O.2       7 UNK        -0.5147 
     49 N          23.7776  -30.3492  -42.8515 N.am      8 UNK        -0.4734 
     50 CA         22.6080  -30.3181  -43.7359 C.3       8 UNK         0.0238 
     51 CB         21.7698  -29.0759  -43.4103 C.3       8 UNK        -0.1912 
     52 C          21.7324  -31.5784  -43.6349 C.2       8 UNK         0.5038 
     53 O          20.8943  -31.7940  -44.5118 O.2       8 UNK        -0.5046 
     54 N          21.9037  -32.3576  -42.5620 N.am      9 UNK        -0.4200 
     55 CA         21.0803  -33.5262  -42.2373 C.3       9 UNK         0.0839 
     56 C          21.5247  -34.8004  -43.0033 C.2       9 UNK         0.5513 
     57 N          20.6403  -35.7808  -43.1294 N.am      9 UNK        -0.7519 
     58 O          22.6588  -34.9271  -43.4606 O.2       9 UNK        -0.4960 
     59 C59        21.0164  -33.7697  -40.7062 C.3       10 UNK        -0.0876 
     60 S60        20.5505  -32.2820  -39.7499 S.3       10 UNK        -0.2414 
     61 C61        18.7753  -32.1310  -40.1269 C.3       10 UNK         0.0169 
     62 H62        14.2956  -23.7439  -47.1840 H         1 UNK         0.0903 
     63 H63        13.1668  -24.8555  -47.9631 H         1 UNK         0.0903 
     64 H64        13.6699  -25.1343  -46.2951 H         1 UNK         0.0903 
     65 H65        15.1751  -26.7955  -46.1285 H         1 UNK         0.3096 
     66 H66        16.7090  -27.6670  -48.4404 H         1 UNK         0.1121 
     67 H67        15.6341  -29.3823  -47.1668 H         1 UNK         0.0849 
     68 H68        17.3426  -29.5970  -46.9997 H         1 UNK         0.0849 
     69 H69        18.1961  -30.4029  -44.8116 H         1 UNK         0.0865 
     70 H70        18.6806  -28.7262  -44.7110 H         1 UNK         0.0865 
     71 H71        18.4931  -31.6298  -42.8074 H         1 UNK         0.1346 
     72 H72        18.3756  -29.7015  -38.9800 H         1 UNK         0.1412 
     73 H73        17.5669  -27.4558  -42.5434 H         1 UNK         0.1426 
     74 H74        16.8836  -26.6221  -40.2058 H         1 UNK         0.0716 
     75 H75        17.4816  -27.4697  -38.8083 H         1 UNK         0.0716 
     76 H76        19.2695  -24.1326  -41.1064 H         1 UNK         0.0695 
     77 H77        18.0419  -25.2235  -41.6636 H         1 UNK         0.0695 
     78 H78        19.9545  -26.7664  -42.5173 H         1 UNK         0.0983 
     79 H79        18.8224  -24.5081  -43.7447 H         1 UNK         0.3095 
     80 H80        19.0199  -23.9303  -45.8821 H         1 UNK         0.0454 
     81 H81        19.8336  -24.2408  -48.2078 H         1 UNK         0.0851 
     82 H82        20.7761  -25.6460  -47.7151 H         1 UNK         0.0851 
     83 H83        21.1681  -24.0599  -47.0801 H         1 UNK         0.0851 
     84 H84        17.3025  -25.2280  -46.4064 H         1 UNK         0.2976 
     85 H85        21.7405  -27.1480  -41.3087 H         1 UNK         0.3116 
     86 H86        23.6978  -25.2470  -40.5366 H         1 UNK         0.0646 
     87 H87        24.4707  -25.5585  -42.9244 H         1 UNK         0.0847 
     88 H88        25.5999  -26.2979  -41.8010 H         1 UNK         0.0847 
     89 H89        24.4758  -27.3060  -42.7013 H         1 UNK         0.0847 
     90 H90        24.7831  -26.1884  -38.8052 H         1 UNK         0.3040 
     91 H91        23.4784  -28.1731  -37.3636 H         1 UNK         0.1015 
     92 H92        26.3164  -27.0664  -37.0217 H         1 UNK         0.0786 
     93 H93        25.4326  -27.9738  -35.8031 H         1 UNK         0.0786 
     94 H94        24.8403  -26.4040  -36.3192 H         1 UNK         0.0786 
     95 H95        23.2617  -30.1891  -38.0289 H         1 UNK         0.3172 
     96 H96        23.5322  -32.3007  -38.4936 H         1 UNK         0.0595 
     97 H97        26.5232  -32.0241  -37.8893 H         1 UNK         0.0839 
     98 H98        25.6286  -33.5266  -38.0384 H         1 UNK         0.0839 
     99 H99        25.2682  -32.4266  -36.7179 H         1 UNK         0.0839 
    100 H100       25.9005  -30.2498  -40.1136 H         1 UNK         0.2998 
    101 H101       26.6188  -31.8918  -42.2588 H         1 UNK         0.0822 
    102 H102       27.8350  -29.8289  -41.6364 H         1 UNK         0.0787 
    103 H103       27.3578  -29.7380  -43.3240 H         1 UNK         0.0787 
    104 H104       26.4614  -28.8320  -42.1116 H         1 UNK         0.0787 
    105 H105       23.6852  -29.9061  -41.9442 H         1 UNK         0.3055 
    106 H106       22.9423  -30.2371  -44.7729 H         1 UNK         0.1106 
    107 H107       22.3554  -28.1668  -43.5357 H         1 UNK         0.0828 
    108 H108       20.9181  -28.9965  -44.0850 H         1 UNK         0.0828 
    109 H109       21.3797  -29.1048  -42.3920 H         1 UNK         0.0828 
    110 H110       22.6696  -32.1682  -41.9294 H         1 UNK         0.2931 
    111 H111       20.0641  -33.3101  -42.5693 H         1 UNK         0.0412 
    112 H112       19.7057  -35.6947  -42.7608 H         1 UNK         0.3472 
    113 H113       20.9096  -36.6228  -43.6147 H         1 UNK         0.3472 
    114 H114       20.3122  -34.5697  -40.4710 H         1 UNK         0.0970 
    115 H115       21.9859  -34.1100  -40.3383 H         1 UNK         0.0970 
    116 H116       18.2135  -32.1999  -39.1943 H         1 UNK         0.0612 
    117 H117       18.4397  -32.9675  -40.7411 H         1 UNK         0.0612 
@<TRIPOS>BOND
     1    1    2 1    
     2    1   62 1    
     3    1   63 1    
     4    1   64 1    
     5    2    3 2    
     6    2    4 am   BACKBONE|DICT|INTERRES
     7    4    5 1    
     8    4   65 1    
     9    5    6 1    
    10    5   25 1    
    11    5   66 1    
    12    6    7 1    
    13    6   67 1    
    14    6   68 1    
    15    7    8 1    
    16    8    9 1    
    17    8   69 1    
    18    8   70 1    
    19    9   10 ar   
    20    9   14 ar   
    21   10   11 ar   
    22   10   71 1    
    23   11   12 ar   
    24   11   61 1    
    25   12   13 ar   
    26   12   72 1    
    27   13   14 ar   
    28   13   15 1    
    29   14   73 1    
    30   15   16 1    
    31   15   74 1    
    32   15   75 1    
    33   16   17 1    
    34   17   18 1    
    35   17   76 1    
    36   17   77 1    
    37   18   19 1    
    38   18   27 1    
    39   18   78 1    
    40   19   20 am   BACKBONE|DICT|INTERRES
    41   19   79 1    
    42   20   21 2    
    43   20   22 1    
    44   22   23 1    
    45   22   24 1    
    46   22   80 1    
    47   23   81 1    
    48   23   82 1    
    49   23   83 1    
    50   24   25 am   BACKBONE|DICT|INTERRES
    51   24   84 1    
    52   25   26 2    
    53   27   28 2    
    54   27   29 am   BACKBONE|DICT|INTERRES
    55   29   30 1    
    56   29   85 1    
    57   30   31 1    
    58   30   32 1    
    59   30   86 1    
    60   31   87 1    
    61   31   88 1    
    62   31   89 1    
    63   32   33 2    
    64   32   34 am   BACKBONE|DICT|INTERRES
    65   34   35 1    
    66   34   90 1    
    67   35   36 1    
    68   35   37 1    
    69   35   91 1    
    70   36   92 1    
    71   36   93 1    
    72   36   94 1    
    73   37   38 2    
    74   37   39 am   BACKBONE|DICT|INTERRES
    75   39   40 1    
    76   39   95 1    
    77   40   41 1    
    78   40   42 1    
    79   40   96 1    
    80   41   97 1    
    81   41   98 1    
    82   41   99 1    
    83   42   43 2    
    84   42   44 am   BACKBONE|DICT|INTERRES
    85   44   45 1    
    86   44  100 1    
    87   45   46 1    
    88   45   47 1    
    89   45  101 1    
    90   46  102 1    
    91   46  103 1    
    92   46  104 1    
    93   47   48 2    
    94   47   49 am   BACKBONE|DICT|INTERRES
    95   49   50 1    
    96   49  105 1    
    97   50   51 1    
    98   50   52 1    
    99   50  106 1    
   100   51  107 1    
   101   51  108 1    
   102   51  109 1    
   103   52   53 2    
   104   52   54 am   BACKBONE|DICT|INTERRES
   105   54   55 1    
   106   54  110 1    
   107   55   56 1    
   108   55   59 1    
   109   55  111 1    
   110   56   57 am   BACKBONE|DICT|INTERRES
   111   56   58 2    
   112   57  112 1    
   113   57  113 1    
   114   59   60 1    
   115   59  114 1    
   116   59  115 1    
   117   60   61 1    
   118   61  116 1    
   119   61  117 1    
@<TRIPOS>SUBSTRUCTURE
     1 UNK         1 GROUP             0       ****    0 ROOT    
