@<TRIPOS>MOLECULE
3R8
117   119    1
SMALL
USER_CHARGES


@<TRIPOS>ATOM
      1 CA         19.5659  -25.1716  -40.0694 C.3       0 UNK        -0.2013 
      2 C          18.2577  -25.2580  -40.8434 C.2       0 UNK         0.4866 
      3 O          17.1844  -25.1334  -40.2523 O.2       0 UNK        -0.5176 
      4 N          18.3411  -25.4709  -42.1581 N.am      1 UNK        -0.4884 
      5 CA         17.2062  -25.6358  -43.0696 C.3       1 UNK         0.0853 
      6 C6         16.5636  -27.0567  -42.9897 C.3       10 UNK        -0.0849 
      7 S7         17.7785  -28.4149  -43.1329 S.3       10 UNK        -0.2776 
      8 C8         17.0595  -29.5370  -44.3700 C.3       10 UNK         0.0316 
      9 C9         18.0630  -30.6339  -44.6906 C.ar      10 UNK        -0.0863 
     10 C10        17.8892  -31.9310  -44.2008 C.ar      10 UNK        -0.1009 
     11 C11        18.8548  -32.9145  -44.4381 C.ar      10 UNK        -0.0712 
     12 C12        20.0069  -32.5824  -45.1595 C.ar      10 UNK        -0.0894 
     13 C13        20.1930  -31.2913  -45.6688 C.ar      10 UNK        -0.0745 
     14 C14        19.1977  -30.3317  -45.4473 C.ar      10 UNK        -0.0972 
     15 C15        21.4816  -30.9928  -46.4444 C.3       10 UNK         0.0209 
     16 S16        21.7516  -29.2589  -46.9662 S.3       10 UNK        -0.2568 
     17 C17        22.0274  -28.4029  -45.3758 C.3       10 UNK        -0.0983 
     18 CA         21.6083  -26.9103  -45.4301 C.3       3 UNK         0.0876 
     19 N          20.1881  -26.7487  -45.7295 N.am      3 UNK        -0.4424 
     20 C          19.6711  -26.1006  -46.7800 C.2       2 UNK         0.4918 
     21 O          20.3398  -25.6377  -47.7046 O.2       2 UNK        -0.4875 
     22 CA         18.1385  -25.9274  -46.8007 C.3       2 UNK         0.0481 
     23 CB         17.4999  -26.9468  -47.7579 C.3       2 UNK        -0.1831 
     24 N          17.5341  -26.0690  -45.4720 N.am      2 UNK        -0.4498 
     25 C          17.6771  -25.1933  -44.4674 C.2       1 UNK         0.5027 
     26 O          18.1966  -24.0836  -44.6053 O.2       1 UNK        -0.4969 
     27 C          21.8868  -26.2026  -44.0893 C.2       3 UNK         0.5005 
     28 O          20.9534  -25.9301  -43.3256 O.2       3 UNK        -0.5279 
     29 N          23.1691  -25.9113  -43.8353 N.am      4 UNK        -0.4463 
     30 CA         23.6746  -25.2879  -42.6078 C.3       4 UNK         0.0283 
     31 CB         25.1144  -24.8089  -42.8697 C.3       4 UNK        -0.1875 
     32 C          23.6264  -26.2370  -41.3944 C.2       4 UNK         0.4949 
     33 O          23.2725  -27.4076  -41.5355 O.2       4 UNK        -0.5039 
     34 N          24.0141  -25.7249  -40.2174 N.am      5 UNK        -0.4663 
     35 CA         24.1243  -26.4827  -38.9636 C.3       5 UNK         0.0242 
     36 CB         24.6722  -25.5616  -37.8622 C.3       5 UNK        -0.1982 
     37 C          25.0041  -27.7415  -39.1017 C.2       5 UNK         0.5017 
     38 O          26.0237  -27.7000  -39.7944 O.2       5 UNK        -0.5012 
     39 N          24.5636  -28.8416  -38.4760 N.am      6 UNK        -0.4439 
     40 CA         25.0809  -30.2168  -38.5651 C.3       6 UNK         0.0297 
     41 CB         26.5689  -30.3148  -38.1740 C.3       6 UNK        -0.2006 
     42 C          24.8055  -30.9016  -39.9186 C.2       6 UNK         0.4892 
     43 O          24.3940  -32.0626  -39.9224 O.2       6 UNK        -0.5089 
     44 N          24.9870  -30.1806  -41.0351 N.am      7 UNK        -0.4243 
     45 CA         24.6465  -30.6306  -42.3908 C.3       7 UNK         0.0196 
     46 CB         25.2089  -29.6416  -43.4237 C.3       7 UNK        -0.2007 
     47 C          23.1332  -30.8408  -42.5863 C.2       7 UNK         0.5020 
     48 O          22.7423  -31.7523  -43.3111 O.2       7 UNK        -0.5147 
     49 N          22.3238  -30.0431  -41.8754 N.am      8 UNK        -0.4734 
     50 CA         20.8611  -30.0944  -41.7446 C.3       8 UNK         0.0238 
     51 CB         20.4261  -28.8887  -40.8890 C.3       8 UNK        -0.1912 
     52 C          20.2657  -31.4030  -41.1781 C.2       8 UNK         0.5038 
     53 O          19.0471  -31.4778  -41.0279 O.2       8 UNK        -0.5046 
     54 N          21.1174  -32.3823  -40.8491 N.am      9 UNK        -0.4200 
     55 CA         20.8122  -33.7729  -40.4799 C.3       9 UNK         0.0839 
     56 C          20.0116  -33.9997  -39.1617 C.2       9 UNK         0.5513 
     57 N          19.7452  -32.9773  -38.3588 N.am      9 UNK        -0.7519 
     58 O          19.6745  -35.1341  -38.8309 O.2       9 UNK        -0.4960 
     59 C59        20.3377  -34.6316  -41.6935 C.3       10 UNK        -0.0876 
     60 S60        18.5689  -34.5002  -42.1433 S.3       10 UNK        -0.2414 
     61 C61        18.6256  -34.3440  -43.9590 C.3       10 UNK         0.0169 
     62 H62        19.6465  -24.2057  -39.5718 H         1 UNK         0.0903 
     63 H63        19.6041  -25.9526  -39.3106 H         1 UNK         0.0903 
     64 H64        20.4326  -25.2919  -40.7196 H         1 UNK         0.0903 
     65 H65        19.2590  -25.5508  -42.5968 H         1 UNK         0.3096 
     66 H66        16.4388  -24.9110  -42.7883 H         1 UNK         0.1121 
     67 H67        16.0756  -27.1684  -42.0203 H         1 UNK         0.0849 
     68 H68        15.7634  -27.1742  -43.7225 H         1 UNK         0.0849 
     69 H69        16.1305  -29.9581  -43.9822 H         1 UNK         0.0865 
     70 H70        16.8039  -28.9943  -45.2801 H         1 UNK         0.0865 
     71 H71        17.0107  -32.1763  -43.6197 H         1 UNK         0.1346 
     72 H72        20.7638  -33.3351  -45.3331 H         1 UNK         0.1412 
     73 H73        19.3097  -29.3293  -45.8289 H         1 UNK         0.1426 
     74 H74        22.3414  -31.3077  -45.8530 H         1 UNK         0.0716 
     75 H75        21.4868  -31.6128  -47.3416 H         1 UNK         0.0716 
     76 H76        23.0865  -28.4953  -45.1350 H         1 UNK         0.0695 
     77 H77        21.4899  -28.9225  -44.5821 H         1 UNK         0.0695 
     78 H78        22.2073  -26.4080  -46.1930 H         1 UNK         0.0983 
     79 H79        19.5706  -27.0101  -44.9747 H         1 UNK         0.3095 
     80 H80        17.9206  -24.9241  -47.1724 H         1 UNK         0.0454 
     81 H81        16.4192  -26.8172  -47.8158 H         1 UNK         0.0851 
     82 H82        17.7019  -27.9741  -47.4527 H         1 UNK         0.0851 
     83 H83        17.8925  -26.8279  -48.7687 H         1 UNK         0.0851 
     84 H84        17.0946  -26.9533  -45.2655 H         1 UNK         0.2976 
     85 H85        23.8685  -26.1946  -44.5056 H         1 UNK         0.3116 
     86 H86        23.0492  -24.4221  -42.3808 H         1 UNK         0.0646 
     87 H87        25.1619  -24.1445  -43.7328 H         1 UNK         0.0847 
     88 H88        25.5126  -24.2518  -42.0211 H         1 UNK         0.0847 
     89 H89        25.7897  -25.6460  -43.0526 H         1 UNK         0.0847 
     90 H90        24.3131  -24.7614  -40.1856 H         1 UNK         0.3040 
     91 H91        23.1134  -26.7920  -38.6893 H         1 UNK         0.1015 
     92 H92        25.6707  -25.1950  -38.1046 H         1 UNK         0.0786 
     93 H93        24.7416  -26.0884  -36.9093 H         1 UNK         0.0786 
     94 H94        24.0250  -24.6982  -37.7060 H         1 UNK         0.0786 
     95 H95        23.7112  -28.7553  -37.9389 H         1 UNK         0.3172 
     96 H96        24.5189  -30.7793  -37.8176 H         1 UNK         0.0595 
     97 H97        27.2205  -29.8313  -38.9020 H         1 UNK         0.0839 
     98 H98        26.8819  -31.3577  -38.1091 H         1 UNK         0.0839 
     99 H99        26.7551  -29.8597  -37.2014 H         1 UNK         0.0839 
    100 H100       25.3230  -29.2285  -40.9306 H         1 UNK         0.2998 
    101 H101       25.1310  -31.5965  -42.5491 H         1 UNK         0.0822 
    102 H102       26.2923  -29.5557  -43.3400 H         1 UNK         0.0787 
    103 H103       24.9881  -29.9736  -44.4391 H         1 UNK         0.0787 
    104 H104       24.7850  -28.6449  -43.3045 H         1 UNK         0.0787 
    105 H105       22.7661  -29.2446  -41.4268 H         1 UNK         0.3055 
    106 H106       20.4351  -29.9844  -42.7430 H         1 UNK         0.1106 
    107 H107       20.6398  -27.9495  -41.3991 H         1 UNK         0.0828 
    108 H108       19.3542  -28.8989  -40.6891 H         1 UNK         0.0828 
    109 H109       20.9347  -28.8726  -39.9250 H         1 UNK         0.0828 
    110 H110       22.1018  -32.1846  -40.9632 H         1 UNK         0.2931 
    111 H111       21.7994  -34.1620  -40.2275 H         1 UNK         0.0412 
    112 H112       19.9903  -32.0411  -38.6386 H         1 UNK         0.3472 
    113 H113       19.2431  -33.1373  -37.4998 H         1 UNK         0.3472 
    114 H114       20.5356  -35.6845  -41.4859 H         1 UNK         0.0970 
    115 H115       20.9493  -34.3921  -42.5650 H         1 UNK         0.0970 
    116 H116       17.6722  -34.6903  -44.3599 H         1 UNK         0.0612 
    117 H117       19.3825  -35.0206  -44.3588 H         1 UNK         0.0612 
@<TRIPOS>BOND
     1    1    2 1    
     2    1   62 1    
     3    1   63 1    
     4    1   64 1    
     5    2    3 2    
     6    2    4 am   BACKBONE|DICT|INTERRES
     7    4    5 1    
     8    4   65 1    
     9    5    6 1    
    10    5   25 1    
    11    5   66 1    
    12    6    7 1    
    13    6   67 1    
    14    6   68 1    
    15    7    8 1    
    16    8    9 1    
    17    8   69 1    
    18    8   70 1    
    19    9   10 ar   
    20    9   14 ar   
    21   10   11 ar   
    22   10   71 1    
    23   11   12 ar   
    24   11   61 1    
    25   12   13 ar   
    26   12   72 1    
    27   13   14 ar   
    28   13   15 1    
    29   14   73 1    
    30   15   16 1    
    31   15   74 1    
    32   15   75 1    
    33   16   17 1    
    34   17   18 1    
    35   17   76 1    
    36   17   77 1    
    37   18   19 1    
    38   18   27 1    
    39   18   78 1    
    40   19   20 am   BACKBONE|DICT|INTERRES
    41   19   79 1    
    42   20   21 2    
    43   20   22 1    
    44   22   23 1    
    45   22   24 1    
    46   22   80 1    
    47   23   81 1    
    48   23   82 1    
    49   23   83 1    
    50   24   25 am   BACKBONE|DICT|INTERRES
    51   24   84 1    
    52   25   26 2    
    53   27   28 2    
    54   27   29 am   BACKBONE|DICT|INTERRES
    55   29   30 1    
    56   29   85 1    
    57   30   31 1    
    58   30   32 1    
    59   30   86 1    
    60   31   87 1    
    61   31   88 1    
    62   31   89 1    
    63   32   33 2    
    64   32   34 am   BACKBONE|DICT|INTERRES
    65   34   35 1    
    66   34   90 1    
    67   35   36 1    
    68   35   37 1    
    69   35   91 1    
    70   36   92 1    
    71   36   93 1    
    72   36   94 1    
    73   37   38 2    
    74   37   39 am   BACKBONE|DICT|INTERRES
    75   39   40 1    
    76   39   95 1    
    77   40   41 1    
    78   40   42 1    
    79   40   96 1    
    80   41   97 1    
    81   41   98 1    
    82   41   99 1    
    83   42   43 2    
    84   42   44 am   BACKBONE|DICT|INTERRES
    85   44   45 1    
    86   44  100 1    
    87   45   46 1    
    88   45   47 1    
    89   45  101 1    
    90   46  102 1    
    91   46  103 1    
    92   46  104 1    
    93   47   48 2    
    94   47   49 am   BACKBONE|DICT|INTERRES
    95   49   50 1    
    96   49  105 1    
    97   50   51 1    
    98   50   52 1    
    99   50  106 1    
   100   51  107 1    
   101   51  108 1    
   102   51  109 1    
   103   52   53 2    
   104   52   54 am   BACKBONE|DICT|INTERRES
   105   54   55 1    
   106   54  110 1    
   107   55   56 1    
   108   55   59 1    
   109   55  111 1    
   110   56   57 am   BACKBONE|DICT|INTERRES
   111   56   58 2    
   112   57  112 1    
   113   57  113 1    
   114   59   60 1    
   115   59  114 1    
   116   59  115 1    
   117   60   61 1    
   118   61  116 1    
   119   61  117 1    
@<TRIPOS>SUBSTRUCTURE
     1 UNK         1 GROUP             0       ****    0 ROOT    
