@<TRIPOS>MOLECULE
3R8
117   119    1
SMALL
USER_CHARGES


@<TRIPOS>ATOM
      1 CA         14.6837  -28.8021  -41.5804 C.3       0 UNK        -0.2013 
      2 C          14.7491  -27.4676  -42.3091 C.2       0 UNK         0.4866 
      3 O          14.1798  -26.4838  -41.8363 O.2       0 UNK        -0.5176 
      4 N          15.4341  -27.4325  -43.4590 N.am      1 UNK        -0.4884 
      5 CA         15.5749  -26.2499  -44.3158 C.3       1 UNK         0.0853 
      6 C6         15.9561  -26.5826  -45.7825 C.3       10 UNK        -0.0849 
      7 S7         14.8959  -27.8976  -46.4845 S.3       10 UNK        -0.2776 
      8 C8         16.0721  -28.9194  -47.4375 C.3       10 UNK         0.0316 
      9 C9         17.3009  -29.3734  -46.6526 C.ar      10 UNK        -0.0863 
     10 C10        17.1909  -29.9031  -45.3604 C.ar      10 UNK        -0.1009 
     11 C11        18.3335  -30.2968  -44.6561 C.ar      10 UNK        -0.0712 
     12 C12        19.5829  -30.2114  -45.2742 C.ar      10 UNK        -0.0894 
     13 C13        19.7084  -29.6911  -46.5632 C.ar      10 UNK        -0.0745 
     14 C14        18.5645  -29.2667  -47.2431 C.ar      10 UNK        -0.0972 
     15 C15        21.0731  -29.6020  -47.2316 C.3       10 UNK         0.0209 
     16 S16        21.9017  -28.0152  -46.8913 S.3       10 UNK        -0.2568 
     17 C17        22.6331  -28.3042  -45.2438 C.3       10 UNK        -0.0983 
     18 CA         22.1184  -27.3083  -44.1725 C.3       3 UNK         0.0876 
     19 N          20.6597  -27.3639  -44.0034 N.am      3 UNK        -0.4424 
     20 C          19.9081  -26.3680  -43.5195 C.2       2 UNK         0.4918 
     21 O          20.3524  -25.2498  -43.2428 O.2       2 UNK        -0.4875 
     22 CA         18.4514  -26.7041  -43.1823 C.3       2 UNK         0.0481 
     23 CB         18.4168  -27.3342  -41.7762 C.3       2 UNK        -0.1831 
     24 N          17.6874  -25.4560  -43.1762 N.am      2 UNK        -0.4498 
     25 C          16.4943  -25.1580  -43.7174 C.2       1 UNK         0.5027 
     26 O          16.0930  -23.9950  -43.7367 O.2       1 UNK        -0.4969 
     27 C          22.8217  -27.4946  -42.8055 C.2       3 UNK         0.5005 
     28 O          23.5781  -28.4499  -42.6087 O.2       3 UNK        -0.5279 
     29 N          22.5396  -26.5802  -41.8664 N.am      4 UNK        -0.4463 
     30 CA         23.0165  -26.5954  -40.4801 C.3       4 UNK         0.0283 
     31 CB         22.3292  -25.4692  -39.6929 C.3       4 UNK        -0.1875 
     32 C          24.5443  -26.4931  -40.3478 C.2       4 UNK         0.4949 
     33 O          25.1028  -27.0442  -39.4008 O.2       4 UNK        -0.5039 
     34 N          25.1993  -25.8484  -41.3240 N.am      5 UNK        -0.4663 
     35 CA         26.6591  -25.7618  -41.4418 C.3       5 UNK         0.0242 
     36 CB         27.0156  -24.7799  -42.5694 C.3       5 UNK        -0.1982 
     37 C          27.3419  -27.1232  -41.6778 C.2       5 UNK         0.5017 
     38 O          28.5079  -27.2787  -41.3144 O.2       5 UNK        -0.5012 
     39 N          26.6052  -28.0815  -42.2576 N.am      6 UNK        -0.4439 
     40 CA         27.0319  -29.4687  -42.4501 C.3       6 UNK         0.0297 
     41 CB         26.5090  -29.9563  -43.8134 C.3       6 UNK        -0.2006 
     42 C          26.5387  -30.3942  -41.3205 C.2       6 UNK         0.4892 
     43 O          26.8484  -31.5856  -41.3587 O.2       6 UNK        -0.5089 
     44 N          25.7653  -29.8519  -40.3630 N.am      7 UNK        -0.4243 
     45 CA         25.0497  -30.5501  -39.2855 C.3       7 UNK         0.0196 
     46 CB         26.0399  -31.1425  -38.2605 C.3       7 UNK        -0.2007 
     47 C          24.0365  -31.5859  -39.8164 C.2       7 UNK         0.5020 
     48 O          23.8477  -32.6396  -39.2050 O.2       7 UNK        -0.5147 
     49 N          23.4229  -31.2799  -40.9667 N.am      8 UNK        -0.4734 
     50 CA         22.5036  -32.1654  -41.6780 C.3       8 UNK         0.0238 
     51 CB         22.3596  -31.6487  -43.1132 C.3       8 UNK        -0.1912 
     52 C          21.1251  -32.2592  -41.0035 C.2       8 UNK         0.5038 
     53 O          20.7045  -31.3214  -40.3216 O.2       8 UNK        -0.5046 
     54 N          20.4396  -33.3816  -41.2561 N.am      9 UNK        -0.4200 
     55 CA         19.0912  -33.7228  -40.7649 C.3       9 UNK         0.0839 
     56 C          18.9974  -33.9764  -39.2284 C.2       9 UNK         0.5513 
     57 N          20.1034  -34.1262  -38.5092 N.am      9 UNK        -0.7519 
     58 O          17.9022  -34.0750  -38.6807 O.2       9 UNK        -0.4960 
     59 C59        17.9757  -32.7627  -41.2757 C.3       10 UNK        -0.0876 
     60 S60        17.9573  -32.5613  -43.0934 S.3       10 UNK        -0.2414 
     61 C61        18.2325  -30.7715  -43.2150 C.3       10 UNK         0.0169 
     62 H62        13.6479  -29.0544  -41.3546 H         1 UNK         0.0903 
     63 H63        15.1033  -29.6137  -42.1741 H         1 UNK         0.0903 
     64 H64        15.2320  -28.7458  -40.6405 H         1 UNK         0.0903 
     65 H65        15.8671  -28.2714  -43.8120 H         1 UNK         0.3096 
     66 H66        14.5800  -25.7996  -44.3634 H         1 UNK         0.1121 
     67 H67        15.8446  -25.6948  -46.4080 H         1 UNK         0.0849 
     68 H68        17.0058  -26.8639  -45.8607 H         1 UNK         0.0849 
     69 H69        15.5490  -29.8026  -47.8062 H         1 UNK         0.0865 
     70 H70        16.3705  -28.3519  -48.3206 H         1 UNK         0.0865 
     71 H71        16.2175  -29.9991  -44.9003 H         1 UNK         0.1346 
     72 H72        20.4616  -30.5479  -44.7510 H         1 UNK         0.1412 
     73 H73        18.6612  -28.8619  -48.2416 H         1 UNK         0.1426 
     74 H74        21.7094  -30.4318  -46.9200 H         1 UNK         0.0716 
     75 H75        20.9578  -29.7057  -48.3117 H         1 UNK         0.0716 
     76 H76        23.7154  -28.2096  -45.3520 H         1 UNK         0.0695 
     77 H77        22.4582  -29.3342  -44.9382 H         1 UNK         0.0695 
     78 H78        22.3839  -26.3071  -44.5200 H         1 UNK         0.0983 
     79 H79        20.2226  -28.2464  -44.2244 H         1 UNK         0.3095 
     80 H80        18.0735  -27.4058  -43.9241 H         1 UNK         0.0454 
     81 H81        18.8231  -26.6566  -41.0238 H         1 UNK         0.0851 
     82 H82        19.0105  -28.2478  -41.7348 H         1 UNK         0.0851 
     83 H83        17.4097  -27.5943  -41.4635 H         1 UNK         0.0851 
     84 H84        18.2405  -24.6777  -42.8413 H         1 UNK         0.2976 
     85 H85        21.8871  -25.8440  -42.1198 H         1 UNK         0.3116 
     86 H86        22.7165  -27.5501  -40.0425 H         1 UNK         0.0646 
     87 H87        22.5668  -24.4864  -40.1019 H         1 UNK         0.0847 
     88 H88        22.6459  -25.4731  -38.6488 H         1 UNK         0.0847 
     89 H89        21.2450  -25.5833  -39.7006 H         1 UNK         0.0847 
     90 H90        24.6551  -25.4190  -42.0583 H         1 UNK         0.3040 
     91 H91        27.0477  -25.3642  -40.5014 H         1 UNK         0.1015 
     92 H92        26.6357  -25.1171  -43.5348 H         1 UNK         0.0786 
     93 H93        28.0971  -24.6717  -42.6650 H         1 UNK         0.0786 
     94 H94        26.6094  -23.7870  -42.3752 H         1 UNK         0.0786 
     95 H95        25.6399  -27.8804  -42.4951 H         1 UNK         0.3172 
     96 H96        28.1222  -29.5253  -42.4662 H         1 UNK         0.0595 
     97 H97        26.8535  -30.9693  -44.0257 H         1 UNK         0.0839 
     98 H98        26.8617  -29.3199  -44.6251 H         1 UNK         0.0839 
     99 H99        25.4191  -29.9712  -43.8483 H         1 UNK         0.0839 
    100 H100       25.6056  -28.8522  -40.3967 H         1 UNK         0.2998 
    101 H101       24.4595  -29.7900  -38.7712 H         1 UNK         0.0822 
    102 H102       25.5126  -31.5423  -37.3935 H         1 UNK         0.0787 
    103 H103       26.6267  -31.9566  -38.6872 H         1 UNK         0.0787 
    104 H104       26.7326  -30.3842  -37.8956 H         1 UNK         0.0787 
    105 H105       23.6036  -30.3782  -41.3922 H         1 UNK         0.3055 
    106 H106       22.9471  -33.1636  -41.7065 H         1 UNK         0.1106 
    107 H107       21.9440  -30.6420  -43.1107 H         1 UNK         0.0828 
    108 H108       23.3214  -31.6150  -43.6255 H         1 UNK         0.0828 
    109 H109       21.6986  -32.2874  -43.7008 H         1 UNK         0.0828 
    110 H110       20.8702  -34.0896  -41.8328 H         1 UNK         0.2931 
    111 H111       18.8827  -34.6984  -41.2056 H         1 UNK         0.0412 
    112 H112       21.0113  -34.0430  -38.9390 H         1 UNK         0.3472 
    113 H113       20.0280  -34.3020  -37.5194 H         1 UNK         0.3472 
    114 H114       16.9933  -33.1416  -40.9884 H         1 UNK         0.0970 
    115 H115       18.0672  -31.7895  -40.7905 H         1 UNK         0.0970 
    116 H116       17.4219  -30.2478  -42.7073 H         1 UNK         0.0612 
    117 H117       19.1469  -30.5170  -42.6771 H         1 UNK         0.0612 
@<TRIPOS>BOND
     1    1    2 1    
     2    1   62 1    
     3    1   63 1    
     4    1   64 1    
     5    2    3 2    
     6    2    4 am   BACKBONE|DICT|INTERRES
     7    4    5 1    
     8    4   65 1    
     9    5    6 1    
    10    5   25 1    
    11    5   66 1    
    12    6    7 1    
    13    6   67 1    
    14    6   68 1    
    15    7    8 1    
    16    8    9 1    
    17    8   69 1    
    18    8   70 1    
    19    9   10 ar   
    20    9   14 ar   
    21   10   11 ar   
    22   10   71 1    
    23   11   12 ar   
    24   11   61 1    
    25   12   13 ar   
    26   12   72 1    
    27   13   14 ar   
    28   13   15 1    
    29   14   73 1    
    30   15   16 1    
    31   15   74 1    
    32   15   75 1    
    33   16   17 1    
    34   17   18 1    
    35   17   76 1    
    36   17   77 1    
    37   18   19 1    
    38   18   27 1    
    39   18   78 1    
    40   19   20 am   BACKBONE|DICT|INTERRES
    41   19   79 1    
    42   20   21 2    
    43   20   22 1    
    44   22   23 1    
    45   22   24 1    
    46   22   80 1    
    47   23   81 1    
    48   23   82 1    
    49   23   83 1    
    50   24   25 am   BACKBONE|DICT|INTERRES
    51   24   84 1    
    52   25   26 2    
    53   27   28 2    
    54   27   29 am   BACKBONE|DICT|INTERRES
    55   29   30 1    
    56   29   85 1    
    57   30   31 1    
    58   30   32 1    
    59   30   86 1    
    60   31   87 1    
    61   31   88 1    
    62   31   89 1    
    63   32   33 2    
    64   32   34 am   BACKBONE|DICT|INTERRES
    65   34   35 1    
    66   34   90 1    
    67   35   36 1    
    68   35   37 1    
    69   35   91 1    
    70   36   92 1    
    71   36   93 1    
    72   36   94 1    
    73   37   38 2    
    74   37   39 am   BACKBONE|DICT|INTERRES
    75   39   40 1    
    76   39   95 1    
    77   40   41 1    
    78   40   42 1    
    79   40   96 1    
    80   41   97 1    
    81   41   98 1    
    82   41   99 1    
    83   42   43 2    
    84   42   44 am   BACKBONE|DICT|INTERRES
    85   44   45 1    
    86   44  100 1    
    87   45   46 1    
    88   45   47 1    
    89   45  101 1    
    90   46  102 1    
    91   46  103 1    
    92   46  104 1    
    93   47   48 2    
    94   47   49 am   BACKBONE|DICT|INTERRES
    95   49   50 1    
    96   49  105 1    
    97   50   51 1    
    98   50   52 1    
    99   50  106 1    
   100   51  107 1    
   101   51  108 1    
   102   51  109 1    
   103   52   53 2    
   104   52   54 am   BACKBONE|DICT|INTERRES
   105   54   55 1    
   106   54  110 1    
   107   55   56 1    
   108   55   59 1    
   109   55  111 1    
   110   56   57 am   BACKBONE|DICT|INTERRES
   111   56   58 2    
   112   57  112 1    
   113   57  113 1    
   114   59   60 1    
   115   59  114 1    
   116   59  115 1    
   117   60   61 1    
   118   61  116 1    
   119   61  117 1    
@<TRIPOS>SUBSTRUCTURE
     1 UNK         1 GROUP             0       ****    0 ROOT    
