@<TRIPOS>MOLECULE
3R8
117   119    1
SMALL
USER_CHARGES


@<TRIPOS>ATOM
      1 CA         19.9899  -25.1436  -41.3089 C.3       0 UNK        -0.2013 
      2 C          18.9992  -25.8063  -42.2519 C.2       0 UNK         0.4866 
      3 O          19.3792  -26.2066  -43.3528 O.2       0 UNK        -0.5176 
      4 N          17.7294  -25.9176  -41.8333 N.am      1 UNK        -0.4884 
      5 CA         16.6219  -26.5131  -42.5901 C.3       1 UNK         0.0853 
      6 C6         16.8509  -28.0287  -42.8468 C.3       10 UNK        -0.0849 
      7 S7         15.3280  -28.9338  -43.2883 S.3       10 UNK        -0.2776 
      8 C8         15.6270  -29.4287  -45.0246 C.3       10 UNK         0.0316 
      9 C9         16.9730  -30.1114  -45.2649 C.ar      10 UNK        -0.0863 
     10 C10        17.4754  -31.0551  -44.3617 C.ar      10 UNK        -0.1009 
     11 C11        18.7107  -31.6687  -44.5824 C.ar      10 UNK        -0.0712 
     12 C12        19.4390  -31.3477  -45.7317 C.ar      10 UNK        -0.0894 
     13 C13        18.9504  -30.4146  -46.6509 C.ar      10 UNK        -0.0745 
     14 C14        17.7134  -29.8036  -46.4119 C.ar      10 UNK        -0.0972 
     15 C15        19.7511  -30.1207  -47.9175 C.3       10 UNK         0.0209 
     16 S16        19.8611  -28.3510  -48.3428 S.3       10 UNK        -0.2568 
     17 C17        20.8598  -27.6841  -46.9702 C.3       10 UNK        -0.0983 
     18 CA         20.5769  -26.1745  -46.7217 C.3       3 UNK         0.0876 
     19 N          19.2200  -25.9391  -46.2326 N.am      3 UNK        -0.4424 
     20 C          18.1925  -25.4902  -46.9664 C.2       2 UNK         0.4918 
     21 O          18.2897  -25.1714  -48.1524 O.2       2 UNK        -0.4875 
     22 CA         16.8166  -25.3908  -46.2794 C.3       2 UNK         0.0481 
     23 CB         15.6852  -25.9119  -47.1846 C.3       2 UNK        -0.1831 
     24 N          16.8024  -26.1265  -45.0148 N.am      2 UNK        -0.4498 
     25 C          16.3392  -25.6628  -43.8487 C.2       1 UNK         0.5027 
     26 O          15.7503  -24.5873  -43.7223 O.2       1 UNK        -0.4969 
     27 C          21.5239  -25.5095  -45.7068 C.2       3 UNK         0.5005 
     28 O          21.5516  -24.2788  -45.6310 O.2       3 UNK        -0.5279 
     29 N          22.2592  -26.3120  -44.9309 N.am      4 UNK        -0.4463 
     30 CA         23.0850  -25.8917  -43.8061 C.3       4 UNK         0.0283 
     31 CB         24.4861  -25.4848  -44.2957 C.3       4 UNK        -0.1875 
     32 C          23.1596  -27.0639  -42.8232 C.2       4 UNK         0.4949 
     33 O          23.0723  -28.2183  -43.2501 O.2       4 UNK        -0.5039 
     34 N          23.3323  -26.7499  -41.5356 N.am      5 UNK        -0.4663 
     35 CA         23.5132  -27.7386  -40.4736 C.3       5 UNK         0.0242 
     36 CB         22.9988  -27.1584  -39.1458 C.3       5 UNK        -0.1982 
     37 C          24.9923  -28.1297  -40.3453 C.2       5 UNK         0.5017 
     38 O          25.8711  -27.2915  -40.5648 O.2       5 UNK        -0.5012 
     39 N          25.2315  -29.3799  -39.9466 N.am      6 UNK        -0.4439 
     40 CA         26.5432  -29.9353  -39.6265 C.3       6 UNK         0.0297 
     41 CB         27.1735  -30.5521  -40.8940 C.3       6 UNK        -0.2006 
     42 C          26.3490  -30.9109  -38.4566 C.2       6 UNK         0.4892 
     43 O          25.8134  -30.5040  -37.4241 O.2       6 UNK        -0.5089 
     44 N          26.7343  -32.1822  -38.6372 N.am      7 UNK        -0.4243 
     45 CA         26.4295  -33.2827  -37.7127 C.3       7 UNK         0.0196 
     46 CB         27.3073  -34.4941  -38.0678 C.3       7 UNK        -0.2007 
     47 C          24.9373  -33.6770  -37.7166 C.2       7 UNK         0.5020 
     48 O          24.4772  -34.3257  -36.7767 O.2       7 UNK        -0.5147 
     49 N          24.2149  -33.2741  -38.7665 N.am      8 UNK        -0.4734 
     50 CA         22.7731  -33.3998  -38.9416 C.3       8 UNK         0.0238 
     51 CB         22.4771  -34.6604  -39.7769 C.3       8 UNK        -0.1912 
     52 C          22.2571  -32.1234  -39.6274 C.2       8 UNK         0.5038 
     53 O          23.0495  -31.2221  -39.9227 O.2       8 UNK        -0.5046 
     54 N          20.9428  -32.0811  -39.8776 N.am      9 UNK        -0.4200 
     55 CA         20.2255  -31.0171  -40.6071 C.3       9 UNK         0.0839 
     56 C          20.0934  -29.6683  -39.8375 C.2       9 UNK         0.5513 
     57 N          20.3823  -29.6134  -38.5430 N.am      9 UNK        -0.7519 
     58 O          19.6921  -28.6611  -40.4117 O.2       9 UNK        -0.4960 
     59 C59        20.7185  -30.8131  -42.0722 C.3       10 UNK        -0.0876 
     60 S60        20.9268  -32.3649  -43.0161 S.3       10 UNK        -0.2414 
     61 C61        19.2324  -32.7041  -43.5934 C.3       10 UNK         0.0169 
     62 H62        19.4972  -24.6963  -40.4461 H         1 UNK         0.0903 
     63 H63        20.6996  -25.8858  -40.9486 H         1 UNK         0.0903 
     64 H64        20.5419  -24.3621  -41.8301 H         1 UNK         0.0903 
     65 H65        17.4773  -25.5438  -40.9286 H         1 UNK         0.3096 
     66 H66        15.7397  -26.4158  -41.9547 H         1 UNK         0.1121 
     67 H67        17.6463  -28.2028  -43.5710 H         1 UNK         0.0849 
     68 H68        17.2165  -28.4900  -41.9276 H         1 UNK         0.0849 
     69 H69        14.8342  -30.1125  -45.3307 H         1 UNK         0.0865 
     70 H70        15.5237  -28.5477  -45.6576 H         1 UNK         0.0865 
     71 H71        16.9026  -31.3104  -43.4808 H         1 UNK         0.1346 
     72 H72        20.3874  -31.8354  -45.9114 H         1 UNK         0.1412 
     73 H73        17.3266  -29.0914  -47.1279 H         1 UNK         0.1426 
     74 H74        19.2823  -30.6476  -48.7494 H         1 UNK         0.0716 
     75 H75        20.7646  -30.5168  -47.8354 H         1 UNK         0.0716 
     76 H76        20.6598  -28.2658  -46.0682 H         1 UNK         0.0695 
     77 H77        21.9090  -27.8450  -47.2250 H         1 UNK         0.0695 
     78 H78        20.7328  -25.6407  -47.6618 H         1 UNK         0.0983 
     79 H79        19.1076  -26.0591  -45.2276 H         1 UNK         0.3095 
     80 H80        16.6470  -24.3286  -46.0933 H         1 UNK         0.0454 
     81 H81        15.6050  -25.3145  -48.0936 H         1 UNK         0.0851 
     82 H82        15.8557  -26.9444  -47.4899 H         1 UNK         0.0851 
     83 H83        14.7191  -25.8631  -46.6822 H         1 UNK         0.0851 
     84 H84        17.2927  -27.0099  -45.0115 H         1 UNK         0.2976 
     85 H85        22.1516  -27.3172  -44.9980 H         1 UNK         0.3116 
     86 H86        22.6091  -25.0460  -43.3048 H         1 UNK         0.0646 
     87 H87        25.1213  -25.1870  -43.4606 H         1 UNK         0.0847 
     88 H88        24.4374  -24.6401  -44.9830 H         1 UNK         0.0847 
     89 H89        24.9863  -26.3068  -44.8092 H         1 UNK         0.0847 
     90 H90        23.4669  -25.7829  -41.2775 H         1 UNK         0.3040 
     91 H91        22.9286  -28.6310  -40.7079 H         1 UNK         0.1015 
     92 H92        21.9368  -26.9213  -39.2002 H         1 UNK         0.0786 
     93 H93        23.5348  -26.2514  -38.8634 H         1 UNK         0.0786 
     94 H94        23.1231  -27.8775  -38.3347 H         1 UNK         0.0786 
     95 H95        24.4378  -29.9998  -39.7832 H         1 UNK         0.3172 
     96 H96        27.1993  -29.1421  -39.2621 H         1 UNK         0.0595 
     97 H97        27.3062  -29.7956  -41.6678 H         1 UNK         0.0839 
     98 H98        26.5534  -31.3436  -41.3173 H         1 UNK         0.0839 
     99 H99        28.1615  -30.9658  -40.6879 H         1 UNK         0.0839 
    100 H100       27.1810  -32.4317  -39.5081 H         1 UNK         0.2998 
    101 H101       26.6800  -32.9608  -36.6994 H         1 UNK         0.0822 
    102 H102       28.3676  -34.2480  -38.0074 H         1 UNK         0.0787 
    103 H103       27.1287  -35.3204  -37.3782 H         1 UNK         0.0787 
    104 H104       27.1025  -34.8605  -39.0746 H         1 UNK         0.0787 
    105 H105       24.6606  -32.6836  -39.4555 H         1 UNK         0.3055 
    106 H106       22.2870  -33.4778  -37.9664 H         1 UNK         0.1106 
    107 H107       22.8890  -34.5807  -40.7839 H         1 UNK         0.0828 
    108 H108       22.9018  -35.5508  -39.3127 H         1 UNK         0.0828 
    109 H109       21.4051  -34.8337  -39.8757 H         1 UNK         0.0828 
    110 H110       20.3695  -32.8569  -39.5806 H         1 UNK         0.2931 
    111 H111       19.2004  -31.3820  -40.6769 H         1 UNK         0.0412 
    112 H112       20.2737  -28.7406  -38.0521 H         1 UNK         0.3472 
    113 H113       20.6989  -30.4337  -38.0527 H         1 UNK         0.3472 
    114 H114       21.6813  -30.3003  -42.0742 H         1 UNK         0.0970 
    115 H115       20.0383  -30.1561  -42.6176 H         1 UNK         0.0970 
    116 H116       18.5766  -32.7817  -42.7251 H         1 UNK         0.0612 
    117 H117       19.2198  -33.6820  -44.0760 H         1 UNK         0.0612 
@<TRIPOS>BOND
     1    1    2 1    
     2    1   62 1    
     3    1   63 1    
     4    1   64 1    
     5    2    3 2    
     6    2    4 am   BACKBONE|DICT|INTERRES
     7    4    5 1    
     8    4   65 1    
     9    5    6 1    
    10    5   25 1    
    11    5   66 1    
    12    6    7 1    
    13    6   67 1    
    14    6   68 1    
    15    7    8 1    
    16    8    9 1    
    17    8   69 1    
    18    8   70 1    
    19    9   10 ar   
    20    9   14 ar   
    21   10   11 ar   
    22   10   71 1    
    23   11   12 ar   
    24   11   61 1    
    25   12   13 ar   
    26   12   72 1    
    27   13   14 ar   
    28   13   15 1    
    29   14   73 1    
    30   15   16 1    
    31   15   74 1    
    32   15   75 1    
    33   16   17 1    
    34   17   18 1    
    35   17   76 1    
    36   17   77 1    
    37   18   19 1    
    38   18   27 1    
    39   18   78 1    
    40   19   20 am   BACKBONE|DICT|INTERRES
    41   19   79 1    
    42   20   21 2    
    43   20   22 1    
    44   22   23 1    
    45   22   24 1    
    46   22   80 1    
    47   23   81 1    
    48   23   82 1    
    49   23   83 1    
    50   24   25 am   BACKBONE|DICT|INTERRES
    51   24   84 1    
    52   25   26 2    
    53   27   28 2    
    54   27   29 am   BACKBONE|DICT|INTERRES
    55   29   30 1    
    56   29   85 1    
    57   30   31 1    
    58   30   32 1    
    59   30   86 1    
    60   31   87 1    
    61   31   88 1    
    62   31   89 1    
    63   32   33 2    
    64   32   34 am   BACKBONE|DICT|INTERRES
    65   34   35 1    
    66   34   90 1    
    67   35   36 1    
    68   35   37 1    
    69   35   91 1    
    70   36   92 1    
    71   36   93 1    
    72   36   94 1    
    73   37   38 2    
    74   37   39 am   BACKBONE|DICT|INTERRES
    75   39   40 1    
    76   39   95 1    
    77   40   41 1    
    78   40   42 1    
    79   40   96 1    
    80   41   97 1    
    81   41   98 1    
    82   41   99 1    
    83   42   43 2    
    84   42   44 am   BACKBONE|DICT|INTERRES
    85   44   45 1    
    86   44  100 1    
    87   45   46 1    
    88   45   47 1    
    89   45  101 1    
    90   46  102 1    
    91   46  103 1    
    92   46  104 1    
    93   47   48 2    
    94   47   49 am   BACKBONE|DICT|INTERRES
    95   49   50 1    
    96   49  105 1    
    97   50   51 1    
    98   50   52 1    
    99   50  106 1    
   100   51  107 1    
   101   51  108 1    
   102   51  109 1    
   103   52   53 2    
   104   52   54 am   BACKBONE|DICT|INTERRES
   105   54   55 1    
   106   54  110 1    
   107   55   56 1    
   108   55   59 1    
   109   55  111 1    
   110   56   57 am   BACKBONE|DICT|INTERRES
   111   56   58 2    
   112   57  112 1    
   113   57  113 1    
   114   59   60 1    
   115   59  114 1    
   116   59  115 1    
   117   60   61 1    
   118   61  116 1    
   119   61  117 1    
@<TRIPOS>SUBSTRUCTURE
     1 UNK         1 GROUP             0       ****    0 ROOT    
