@<TRIPOS>MOLECULE
3R8
117   119    1
SMALL
USER_CHARGES


@<TRIPOS>ATOM
      1 CA         15.9024  -21.7064  -42.1455 C.3       0 UNK        -0.2013 
      2 C          15.4737  -22.5628  -43.3274 C.2       0 UNK         0.4866 
      3 O          14.7245  -22.0949  -44.1845 O.2       0 UNK        -0.5176 
      4 N          15.9504  -23.8129  -43.3859 N.am      1 UNK        -0.4884 
      5 CA         15.6401  -24.7898  -44.4400 C.3       1 UNK         0.0853 
      6 C6         15.6691  -26.2395  -43.8910 C.3       10 UNK        -0.0849 
      7 S7         17.2807  -26.7429  -43.1955 S.3       10 UNK        -0.2776 
      8 C8         17.0027  -28.5296  -42.9673 C.3       10 UNK         0.0316 
      9 C9         18.2850  -29.3006  -43.2256 C.ar      10 UNK        -0.0863 
     10 C10        19.0140  -29.8621  -42.1742 C.ar      10 UNK        -0.1009 
     11 C11        20.2104  -30.5414  -42.4277 C.ar      10 UNK        -0.0712 
     12 C12        20.6879  -30.6320  -43.7390 C.ar      10 UNK        -0.0894 
     13 C13        19.9711  -30.0621  -44.7946 C.ar      10 UNK        -0.0745 
     14 C14        18.7520  -29.4329  -44.5339 C.ar      10 UNK        -0.0972 
     15 C15        20.5187  -30.1136  -46.2127 C.3       10 UNK         0.0209 
     16 S16        21.6291  -28.7077  -46.5557 S.3       10 UNK        -0.2568 
     17 C17        20.4499  -27.3211  -46.7412 C.3       10 UNK        -0.0983 
     18 CA         20.9095  -25.9595  -46.1498 C.3       3 UNK         0.0876 
     19 N          19.8302  -24.9793  -46.1048 N.am      3 UNK        -0.4424 
     20 C          19.3624  -24.2886  -47.1482 C.2       2 UNK         0.4918 
     21 O          19.7623  -24.4423  -48.3035 O.2       2 UNK        -0.4875 
     22 CA         18.2876  -23.2274  -46.8341 C.3       2 UNK         0.0481 
     23 CB         17.4945  -22.7856  -48.0830 C.3       2 UNK        -0.1831 
     24 N          17.3849  -23.6088  -45.7378 N.am      2 UNK        -0.4498 
     25 C          16.4989  -24.6190  -45.7180 C.2       1 UNK         0.5027 
     26 O          16.3374  -25.4010  -46.6562 O.2       1 UNK        -0.4969 
     27 C          21.5050  -25.9804  -44.7336 C.2       3 UNK         0.5005 
     28 O          22.4858  -25.2731  -44.4973 O.2       3 UNK        -0.5279 
     29 N          20.8634  -26.7161  -43.8098 N.am      4 UNK        -0.4463 
     30 CA         21.1818  -26.8035  -42.3763 C.3       4 UNK         0.0283 
     31 CB         20.8089  -25.4875  -41.6621 C.3       4 UNK        -0.1875 
     32 C          22.6378  -27.2359  -42.1141 C.2       4 UNK         0.4949 
     33 O          23.3728  -26.5517  -41.3987 O.2       4 UNK        -0.5039 
     34 N          23.0368  -28.3525  -42.7374 N.am      5 UNK        -0.4663 
     35 CA         24.4047  -28.8806  -42.7780 C.3       5 UNK         0.0242 
     36 CB         24.5029  -29.9112  -43.9188 C.3       5 UNK        -0.1982 
     37 C          24.9065  -29.4502  -41.4341 C.2       5 UNK         0.5017 
     38 O          25.1858  -30.6457  -41.3408 O.2       5 UNK        -0.5012 
     39 N          25.0119  -28.5847  -40.4161 N.am      6 UNK        -0.4439 
     40 CA         25.6536  -28.7968  -39.1081 C.3       6 UNK         0.0297 
     41 CB         27.1870  -28.8160  -39.2825 C.3       6 UNK        -0.2006 
     42 C          25.1446  -30.0242  -38.3214 C.2       6 UNK         0.4892 
     43 O          25.9143  -30.6364  -37.5792 O.2       6 UNK        -0.5089 
     44 N          23.8632  -30.3687  -38.5177 N.am      7 UNK        -0.4243 
     45 CA         23.1629  -31.5442  -37.9827 C.3       7 UNK         0.0196 
     46 CB         23.0692  -31.4854  -36.4429 C.3       7 UNK        -0.2007 
     47 C          23.7074  -32.8996  -38.4863 C.2       7 UNK         0.5020 
     48 O          23.3570  -33.9343  -37.9164 O.2       7 UNK        -0.5147 
     49 N          24.4968  -32.9052  -39.5745 N.am      8 UNK        -0.4734 
     50 CA         25.0157  -34.1217  -40.2219 C.3       8 UNK         0.0238 
     51 CB         26.1089  -33.7394  -41.2325 C.3       8 UNK        -0.1912 
     52 C          23.9200  -34.9634  -40.9041 C.2       8 UNK         0.5038 
     53 O          24.1443  -36.1386  -41.1953 O.2       8 UNK        -0.5046 
     54 N          22.7542  -34.3446  -41.1180 N.am      9 UNK        -0.4200 
     55 CA         21.4867  -34.9652  -41.5135 C.3       9 UNK         0.0839 
     56 C          20.8894  -35.9607  -40.4728 C.2       9 UNK         0.5513 
     57 N          21.3288  -35.9656  -39.2182 N.am      9 UNK        -0.7519 
     58 O          20.0143  -36.7504  -40.8182 O.2       9 UNK        -0.4960 
     59 C59        20.4570  -33.8781  -41.9234 C.3       10 UNK        -0.0876 
     60 S60        20.1581  -32.6317  -40.6131 S.3       10 UNK        -0.2414 
     61 C61        20.9925  -31.1563  -41.2783 C.3       10 UNK         0.0169 
     62 H62        15.0293  -21.3938  -41.5733 H         1 UNK         0.0903 
     63 H63        16.5728  -22.2430  -41.4742 H         1 UNK         0.0903 
     64 H64        16.4175  -20.8125  -42.4962 H         1 UNK         0.0903 
     65 H65        16.5643  -24.1525  -42.6574 H         1 UNK         0.3096 
     66 H66        14.6142  -24.6067  -44.7685 H         1 UNK         0.1121 
     67 H67        14.9157  -26.3470  -43.1089 H         1 UNK         0.0849 
     68 H68        15.3798  -26.9430  -44.6744 H         1 UNK         0.0849 
     69 H69        16.6303  -28.7110  -41.9579 H         1 UNK         0.0865 
     70 H70        16.2312  -28.8900  -43.6493 H         1 UNK         0.0865 
     71 H71        18.6539  -29.7728  -41.1582 H         1 UNK         0.1346 
     72 H72        21.6174  -31.1445  -43.9421 H         1 UNK         0.1412 
     73 H73        18.1707  -29.0155  -45.3443 H         1 UNK         0.1426 
     74 H74        19.7057  -30.1256  -46.9405 H         1 UNK         0.0716 
     75 H75        21.0721  -31.0422  -46.3600 H         1 UNK         0.0716 
     76 H76        19.4870  -27.5902  -46.3169 H         1 UNK         0.0695 
     77 H77        20.2604  -27.2007  -47.8088 H         1 UNK         0.0695 
     78 H78        21.6959  -25.5716  -46.8019 H         1 UNK         0.0983 
     79 H79        19.4665  -24.7710  -45.1853 H         1 UNK         0.3095 
     80 H80        18.8333  -22.3534  -46.4757 H         1 UNK         0.0454 
     81 H81        18.1570  -22.3533  -48.8339 H         1 UNK         0.0851 
     82 H82        16.7520  -22.0275  -47.8346 H         1 UNK         0.0851 
     83 H83        16.9768  -23.6219  -48.5534 H         1 UNK         0.0851 
     84 H84        17.4274  -23.0291  -44.9112 H         1 UNK         0.2976 
     85 H85        20.0785  -27.2796  -44.1105 H         1 UNK         0.3116 
     86 H86        20.5486  -27.5859  -41.9601 H         1 UNK         0.0646 
     87 H87        21.4149  -24.6505  -42.0103 H         1 UNK         0.0847 
     88 H88        19.7612  -25.2334  -41.8215 H         1 UNK         0.0847 
     89 H89        20.9599  -25.5719  -40.5852 H         1 UNK         0.0847 
     90 H90        22.3548  -28.8367  -43.3041 H         1 UNK         0.3040 
     91 H91        25.0702  -28.0524  -43.0319 H         1 UNK         0.1015 
     92 H92        25.5306  -30.2552  -44.0433 H         1 UNK         0.0786 
     93 H93        24.1898  -29.4847  -44.8719 H         1 UNK         0.0786 
     94 H94        23.8915  -30.7921  -43.7241 H         1 UNK         0.0786 
     95 H95        24.6436  -27.6501  -40.5882 H         1 UNK         0.3172 
     96 H96        25.4001  -27.9261  -38.5017 H         1 UNK         0.0595 
     97 H97        27.5155  -29.6915  -39.8441 H         1 UNK         0.0839 
     98 H98        27.6948  -28.8380  -38.3174 H         1 UNK         0.0839 
     99 H99        27.5388  -27.9286  -39.8087 H         1 UNK         0.0839 
    100 H100       23.3304  -29.7927  -39.1538 H         1 UNK         0.2998 
    101 H101       22.1440  -31.4811  -38.3666 H         1 UNK         0.0822 
    102 H102       22.4074  -32.2638  -36.0610 H         1 UNK         0.0787 
    103 H103       22.6689  -30.5295  -36.1053 H         1 UNK         0.0787 
    104 H104       24.0412  -31.6290  -35.9704 H         1 UNK         0.0787 
    105 H105       24.7436  -32.0223  -40.0159 H         1 UNK         0.3055 
    106 H106       25.4669  -34.7468  -39.4481 H         1 UNK         0.1106 
    107 H107       26.8956  -33.1477  -40.7641 H         1 UNK         0.0828 
    108 H108       26.5786  -34.6292  -41.6538 H         1 UNK         0.0828 
    109 H109       25.7049  -33.1615  -42.0646 H         1 UNK         0.0828 
    110 H110       22.6863  -33.3837  -40.8223 H         1 UNK         0.2931 
    111 H111       21.6991  -35.5607  -42.4033 H         1 UNK         0.0412 
    112 H112       20.9326  -36.6195  -38.5618 H         1 UNK         0.3472 
    113 H113       22.0348  -35.3090  -38.9092 H         1 UNK         0.3472 
    114 H114       20.8000  -33.3787  -42.8298 H         1 UNK         0.0970 
    115 H115       19.5020  -34.3327  -42.1939 H         1 UNK         0.0970 
    116 H116       21.0893  -30.4181  -40.4812 H         1 UNK         0.0612 
    117 H117       22.0086  -31.4109  -41.5842 H         1 UNK         0.0612 
@<TRIPOS>BOND
     1    1    2 1    
     2    1   62 1    
     3    1   63 1    
     4    1   64 1    
     5    2    3 2    
     6    2    4 am   BACKBONE|DICT|INTERRES
     7    4    5 1    
     8    4   65 1    
     9    5    6 1    
    10    5   25 1    
    11    5   66 1    
    12    6    7 1    
    13    6   67 1    
    14    6   68 1    
    15    7    8 1    
    16    8    9 1    
    17    8   69 1    
    18    8   70 1    
    19    9   10 ar   
    20    9   14 ar   
    21   10   11 ar   
    22   10   71 1    
    23   11   12 ar   
    24   11   61 1    
    25   12   13 ar   
    26   12   72 1    
    27   13   14 ar   
    28   13   15 1    
    29   14   73 1    
    30   15   16 1    
    31   15   74 1    
    32   15   75 1    
    33   16   17 1    
    34   17   18 1    
    35   17   76 1    
    36   17   77 1    
    37   18   19 1    
    38   18   27 1    
    39   18   78 1    
    40   19   20 am   BACKBONE|DICT|INTERRES
    41   19   79 1    
    42   20   21 2    
    43   20   22 1    
    44   22   23 1    
    45   22   24 1    
    46   22   80 1    
    47   23   81 1    
    48   23   82 1    
    49   23   83 1    
    50   24   25 am   BACKBONE|DICT|INTERRES
    51   24   84 1    
    52   25   26 2    
    53   27   28 2    
    54   27   29 am   BACKBONE|DICT|INTERRES
    55   29   30 1    
    56   29   85 1    
    57   30   31 1    
    58   30   32 1    
    59   30   86 1    
    60   31   87 1    
    61   31   88 1    
    62   31   89 1    
    63   32   33 2    
    64   32   34 am   BACKBONE|DICT|INTERRES
    65   34   35 1    
    66   34   90 1    
    67   35   36 1    
    68   35   37 1    
    69   35   91 1    
    70   36   92 1    
    71   36   93 1    
    72   36   94 1    
    73   37   38 2    
    74   37   39 am   BACKBONE|DICT|INTERRES
    75   39   40 1    
    76   39   95 1    
    77   40   41 1    
    78   40   42 1    
    79   40   96 1    
    80   41   97 1    
    81   41   98 1    
    82   41   99 1    
    83   42   43 2    
    84   42   44 am   BACKBONE|DICT|INTERRES
    85   44   45 1    
    86   44  100 1    
    87   45   46 1    
    88   45   47 1    
    89   45  101 1    
    90   46  102 1    
    91   46  103 1    
    92   46  104 1    
    93   47   48 2    
    94   47   49 am   BACKBONE|DICT|INTERRES
    95   49   50 1    
    96   49  105 1    
    97   50   51 1    
    98   50   52 1    
    99   50  106 1    
   100   51  107 1    
   101   51  108 1    
   102   51  109 1    
   103   52   53 2    
   104   52   54 am   BACKBONE|DICT|INTERRES
   105   54   55 1    
   106   54  110 1    
   107   55   56 1    
   108   55   59 1    
   109   55  111 1    
   110   56   57 am   BACKBONE|DICT|INTERRES
   111   56   58 2    
   112   57  112 1    
   113   57  113 1    
   114   59   60 1    
   115   59  114 1    
   116   59  115 1    
   117   60   61 1    
   118   61  116 1    
   119   61  117 1    
@<TRIPOS>SUBSTRUCTURE
     1 UNK         1 GROUP             0       ****    0 ROOT    
