@<TRIPOS>MOLECULE
3R8
117   119    1
SMALL
USER_CHARGES


@<TRIPOS>ATOM
      1 CA         12.8174  -22.9725  -44.6410 C.3       0 UNK        -0.2013 
      2 C          13.7880  -23.8699  -45.3944 C.2       0 UNK         0.4866 
      3 O          13.7699  -23.8943  -46.6257 O.2       0 UNK        -0.5176 
      4 N          14.6285  -24.6144  -44.6659 N.am      1 UNK        -0.4884 
      5 CA         15.6596  -25.4953  -45.2229 C.3       1 UNK         0.0853 
      6 C6         16.2728  -26.4185  -44.1423 C.3       10 UNK        -0.0849 
      7 S7         15.1157  -27.6739  -43.5126 S.3       10 UNK        -0.2776 
      8 C8         15.7693  -27.9457  -41.8309 C.3       10 UNK         0.0316 
      9 C9         17.2725  -28.2084  -41.8136 C.ar      10 UNK        -0.0863 
     10 C10        17.7886  -29.4136  -42.2997 C.ar      10 UNK        -0.1009 
     11 C11        19.1642  -29.6644  -42.2601 C.ar      10 UNK        -0.0712 
     12 C12        20.0247  -28.6996  -41.7286 C.ar      10 UNK        -0.0894 
     13 C13        19.5228  -27.4884  -41.2401 C.ar      10 UNK        -0.0745 
     14 C14        18.1461  -27.2499  -41.2891 C.ar      10 UNK        -0.0972 
     15 C15        20.4491  -26.4559  -40.6063 C.3       10 UNK         0.0209 
     16 S16        21.8805  -26.0287  -41.6471 S.3       10 UNK        -0.2568 
     17 C17        21.0949  -25.1602  -43.0512 C.3       10 UNK        -0.0983 
     18 CA         20.9209  -26.0371  -44.3183 C.3       3 UNK         0.0876 
     19 N          20.1383  -25.3317  -45.3378 N.am      3 UNK        -0.4424 
     20 C          19.6982  -25.8684  -46.4832 C.2       2 UNK         0.4918 
     21 O          19.9006  -27.0350  -46.8251 O.2       2 UNK        -0.4875 
     22 CA         18.7735  -24.9827  -47.3333 C.3       2 UNK         0.0481 
     23 CB         18.9146  -25.2667  -48.8394 C.3       2 UNK        -0.1831 
     24 N          17.4085  -25.2793  -46.9078 N.am      2 UNK        -0.4498 
     25 C          16.8068  -24.6938  -45.8653 C.2       1 UNK         0.5027 
     26 O          17.1970  -23.6455  -45.3435 O.2       1 UNK        -0.4969 
     27 C          22.2727  -26.5356  -44.8755 C.2       3 UNK         0.5005 
     28 O          22.9233  -25.8276  -45.6499 O.2       3 UNK        -0.5279 
     29 N          22.6700  -27.7354  -44.4439 N.am      4 UNK        -0.4463 
     30 CA         23.9291  -28.3914  -44.7614 C.3       4 UNK         0.0283 
     31 CB         23.7840  -29.1861  -46.0716 C.3       4 UNK        -0.1875 
     32 C          24.2951  -29.3134  -43.5934 C.2       4 UNK         0.4949 
     33 O          23.4274  -29.6557  -42.7836 O.2       4 UNK        -0.5039 
     34 N          25.5779  -29.6972  -43.5388 N.am      5 UNK        -0.4663 
     35 CA         26.1774  -30.6679  -42.6102 C.3       5 UNK         0.0242 
     36 CB         25.6373  -32.0829  -42.9061 C.3       5 UNK        -0.1982 
     37 C          26.0541  -30.3012  -41.1165 C.2       5 UNK         0.5017 
     38 O          26.1094  -31.1928  -40.2704 O.2       5 UNK        -0.5012 
     39 N          25.8771  -29.0056  -40.8117 N.am      6 UNK        -0.4439 
     40 CA         25.7098  -28.4285  -39.4690 C.3       6 UNK         0.0297 
     41 CB         27.0531  -28.4476  -38.7089 C.3       6 UNK        -0.2006 
     42 C          24.5599  -29.0707  -38.6610 C.2       6 UNK         0.4892 
     43 O          24.6965  -29.2727  -37.4535 O.2       6 UNK        -0.5089 
     44 N          23.4621  -29.3986  -39.3597 N.am      7 UNK        -0.4243 
     45 CA         22.2570  -30.0827  -38.8709 C.3       7 UNK         0.0196 
     46 CB         21.6010  -29.3318  -37.6922 C.3       7 UNK        -0.2007 
     47 C          22.4397  -31.5848  -38.5746 C.2       7 UNK         0.5020 
     48 O          21.4884  -32.2150  -38.1118 O.2       7 UNK        -0.5147 
     49 N          23.6011  -32.1707  -38.9011 N.am      8 UNK        -0.4734 
     50 CA         23.8148  -33.6217  -38.9315 C.3       8 UNK         0.0238 
     51 CB         25.2421  -33.9420  -38.4494 C.3       8 UNK        -0.1912 
     52 C          23.5320  -34.1259  -40.3580 C.2       8 UNK         0.5038 
     53 O          24.4353  -34.6259  -41.0299 O.2       8 UNK        -0.5046 
     54 N          22.2881  -33.9044  -40.8024 N.am      9 UNK        -0.4200 
     55 CA         21.7826  -34.0651  -42.1732 C.3       9 UNK         0.0839 
     56 C          22.0544  -35.4644  -42.7897 C.2       9 UNK         0.5513 
     57 N          22.4497  -35.5208  -44.0542 N.am      9 UNK        -0.7519 
     58 O          21.8565  -36.4942  -42.1478 O.2       9 UNK        -0.4960 
     59 C59        20.2678  -33.7305  -42.2586 C.3       10 UNK        -0.0876 
     60 S60        19.7940  -32.1889  -41.3989 S.3       10 UNK        -0.2414 
     61 C61        19.7156  -30.9903  -42.7609 C.3       10 UNK         0.0169 
     62 H62        12.9340  -23.0609  -43.5610 H         1 UNK         0.0903 
     63 H63        12.9803  -21.9305  -44.9153 H         1 UNK         0.0903 
     64 H64        11.7904  -23.2351  -44.8934 H         1 UNK         0.0903 
     65 H65        14.6067  -24.5501  -43.6583 H         1 UNK         0.3096 
     66 H66        15.1944  -26.1126  -45.9951 H         1 UNK         0.1121 
     67 H67        17.1365  -26.9636  -44.5315 H         1 UNK         0.0849 
     68 H68        16.6470  -25.8185  -43.3103 H         1 UNK         0.0849 
     69 H69        15.2502  -28.7938  -41.3821 H         1 UNK         0.0865 
     70 H70        15.5227  -27.0806  -41.2133 H         1 UNK         0.0865 
     71 H71        17.1165  -30.1608  -42.6995 H         1 UNK         0.1346 
     72 H72        21.0861  -28.8985  -41.6816 H         1 UNK         0.1412 
     73 H73        17.7505  -26.3207  -40.9019 H         1 UNK         0.1426 
     74 H74        20.8170  -26.8559  -39.6619 H         1 UNK         0.0716 
     75 H75        19.9081  -25.5410  -40.3595 H         1 UNK         0.0716 
     76 H76        21.6960  -24.2784  -43.2814 H         1 UNK         0.0695 
     77 H77        20.1244  -24.7820  -42.7254 H         1 UNK         0.0695 
     78 H78        20.3301  -26.9132  -44.0417 H         1 UNK         0.0983 
     79 H79        19.9034  -24.3706  -45.1353 H         1 UNK         0.3095 
     80 H80        19.0147  -23.9316  -47.1600 H         1 UNK         0.0454 
     81 H81        18.6689  -26.2998  -49.0885 H         1 UNK         0.0851 
     82 H82        19.9368  -25.0855  -49.1736 H         1 UNK         0.0851 
     83 H83        18.2624  -24.6191  -49.4254 H         1 UNK         0.0851 
     84 H84        17.0290  -26.1503  -47.2526 H         1 UNK         0.2976 
     85 H85        22.1274  -28.2243  -43.7422 H         1 UNK         0.3116 
     86 H86        24.7144  -27.6399  -44.8682 H         1 UNK         0.0646 
     87 H87        23.0128  -29.9535  -45.9923 H         1 UNK         0.0847 
     88 H88        24.7164  -29.6859  -46.3366 H         1 UNK         0.0847 
     89 H89        23.5201  -28.5336  -46.9042 H         1 UNK         0.0847 
     90 H90        26.2082  -29.3311  -44.2403 H         1 UNK         0.3040 
     91 H91        27.2479  -30.6745  -42.8219 H         1 UNK         0.1015 
     92 H92        24.5808  -32.1715  -42.6513 H         1 UNK         0.0786 
     93 H93        26.1732  -32.8386  -42.3303 H         1 UNK         0.0786 
     94 H94        25.7512  -32.3418  -43.9586 H         1 UNK         0.0786 
     95 H95        25.8270  -28.3540  -41.5825 H         1 UNK         0.3172 
     96 H96        25.4279  -27.3849  -39.6166 H         1 UNK         0.0595 
     97 H97        26.9751  -27.9151  -37.7601 H         1 UNK         0.0839 
     98 H98        27.8428  -27.9649  -39.2844 H         1 UNK         0.0839 
     99 H99        27.3752  -29.4653  -38.4849 H         1 UNK         0.0839 
    100 H100       23.4832  -29.2277  -40.3579 H         1 UNK         0.2998 
    101 H101       21.5519  -30.0463  -39.7007 H         1 UNK         0.0822 
    102 H102       20.5981  -29.7147  -37.4993 H         1 UNK         0.0787 
    103 H103       22.1704  -29.4463  -36.7696 H         1 UNK         0.0787 
    104 H104       21.5060  -28.2664  -37.8969 H         1 UNK         0.0787 
    105 H105       24.3454  -31.6088  -39.3033 H         1 UNK         0.3055 
    106 H106       23.1187  -34.1269  -38.2579 H         1 UNK         0.1106 
    107 H107       25.4064  -35.0196  -38.4153 H         1 UNK         0.0828 
    108 H108       26.0014  -33.5203  -39.1079 H         1 UNK         0.0828 
    109 H109       25.4174  -33.5546  -37.4458 H         1 UNK         0.0828 
    110 H110       21.6317  -33.4826  -40.1593 H         1 UNK         0.2931 
    111 H111       22.3168  -33.3240  -42.7710 H         1 UNK         0.0412 
    112 H112       22.6021  -34.6816  -44.5919 H         1 UNK         0.3472 
    113 H113       22.6130  -36.4217  -44.4766 H         1 UNK         0.3472 
    114 H114       19.9493  -33.6760  -43.3013 H         1 UNK         0.0970 
    115 H115       19.6804  -34.5351  -41.8115 H         1 UNK         0.0970 
    116 H116       19.0843  -31.3808  -43.5605 H         1 UNK         0.0612 
    117 H117       20.7129  -30.8542  -43.1829 H         1 UNK         0.0612 
@<TRIPOS>BOND
     1    1    2 1    
     2    1   62 1    
     3    1   63 1    
     4    1   64 1    
     5    2    3 2    
     6    2    4 am   BACKBONE|DICT|INTERRES
     7    4    5 1    
     8    4   65 1    
     9    5    6 1    
    10    5   25 1    
    11    5   66 1    
    12    6    7 1    
    13    6   67 1    
    14    6   68 1    
    15    7    8 1    
    16    8    9 1    
    17    8   69 1    
    18    8   70 1    
    19    9   10 ar   
    20    9   14 ar   
    21   10   11 ar   
    22   10   71 1    
    23   11   12 ar   
    24   11   61 1    
    25   12   13 ar   
    26   12   72 1    
    27   13   14 ar   
    28   13   15 1    
    29   14   73 1    
    30   15   16 1    
    31   15   74 1    
    32   15   75 1    
    33   16   17 1    
    34   17   18 1    
    35   17   76 1    
    36   17   77 1    
    37   18   19 1    
    38   18   27 1    
    39   18   78 1    
    40   19   20 am   BACKBONE|DICT|INTERRES
    41   19   79 1    
    42   20   21 2    
    43   20   22 1    
    44   22   23 1    
    45   22   24 1    
    46   22   80 1    
    47   23   81 1    
    48   23   82 1    
    49   23   83 1    
    50   24   25 am   BACKBONE|DICT|INTERRES
    51   24   84 1    
    52   25   26 2    
    53   27   28 2    
    54   27   29 am   BACKBONE|DICT|INTERRES
    55   29   30 1    
    56   29   85 1    
    57   30   31 1    
    58   30   32 1    
    59   30   86 1    
    60   31   87 1    
    61   31   88 1    
    62   31   89 1    
    63   32   33 2    
    64   32   34 am   BACKBONE|DICT|INTERRES
    65   34   35 1    
    66   34   90 1    
    67   35   36 1    
    68   35   37 1    
    69   35   91 1    
    70   36   92 1    
    71   36   93 1    
    72   36   94 1    
    73   37   38 2    
    74   37   39 am   BACKBONE|DICT|INTERRES
    75   39   40 1    
    76   39   95 1    
    77   40   41 1    
    78   40   42 1    
    79   40   96 1    
    80   41   97 1    
    81   41   98 1    
    82   41   99 1    
    83   42   43 2    
    84   42   44 am   BACKBONE|DICT|INTERRES
    85   44   45 1    
    86   44  100 1    
    87   45   46 1    
    88   45   47 1    
    89   45  101 1    
    90   46  102 1    
    91   46  103 1    
    92   46  104 1    
    93   47   48 2    
    94   47   49 am   BACKBONE|DICT|INTERRES
    95   49   50 1    
    96   49  105 1    
    97   50   51 1    
    98   50   52 1    
    99   50  106 1    
   100   51  107 1    
   101   51  108 1    
   102   51  109 1    
   103   52   53 2    
   104   52   54 am   BACKBONE|DICT|INTERRES
   105   54   55 1    
   106   54  110 1    
   107   55   56 1    
   108   55   59 1    
   109   55  111 1    
   110   56   57 am   BACKBONE|DICT|INTERRES
   111   56   58 2    
   112   57  112 1    
   113   57  113 1    
   114   59   60 1    
   115   59  114 1    
   116   59  115 1    
   117   60   61 1    
   118   61  116 1    
   119   61  117 1    
@<TRIPOS>SUBSTRUCTURE
     1 UNK         1 GROUP             0       ****    0 ROOT    
