@<TRIPOS>MOLECULE
3R8
117   119    1
SMALL
USER_CHARGES


@<TRIPOS>ATOM
      1 CA         15.2205  -24.0138  -39.9817 C.3       0 UNK        -0.2013 
      2 C          16.2008  -24.3730  -41.0883 C.2       0 UNK         0.4866 
      3 O          17.2108  -23.6890  -41.2584 O.2       0 UNK        -0.5176 
      4 N          15.9065  -25.4343  -41.8484 N.am      1 UNK        -0.4884 
      5 CA         16.7682  -25.9801  -42.9013 C.3       1 UNK         0.0853 
      6 C6         15.9810  -26.8874  -43.8827 C.3       10 UNK        -0.0849 
      7 S7         14.9516  -28.1668  -43.0767 S.3       10 UNK        -0.2776 
      8 C8         14.4212  -29.1566  -44.5100 C.3       10 UNK         0.0316 
      9 C9         15.5540  -30.0234  -45.0376 C.ar      10 UNK        -0.0863 
     10 C10        15.8866  -31.2119  -44.3828 C.ar      10 UNK        -0.1009 
     11 C11        16.9433  -32.0030  -44.8412 C.ar      10 UNK        -0.0712 
     12 C12        17.6641  -31.6044  -45.9716 C.ar      10 UNK        -0.0894 
     13 C13        17.3361  -30.4199  -46.6374 C.ar      10 UNK        -0.0745 
     14 C14        16.2751  -29.6380  -46.1710 C.ar      10 UNK        -0.0972 
     15 C15        18.1180  -29.9780  -47.8642 C.3       10 UNK         0.0209 
     16 S16        19.2675  -28.6240  -47.4708 S.3       10 UNK        -0.2568 
     17 C17        20.7169  -29.5324  -46.8394 C.3       10 UNK        -0.0983 
     18 CA         21.5925  -28.6300  -45.9367 C.3       3 UNK         0.0876 
     19 N          20.9056  -28.2857  -44.6822 N.am      3 UNK        -0.4424 
     20 C          21.3167  -27.3520  -43.8151 C.2       2 UNK         0.4918 
     21 O          22.3407  -26.6868  -43.9670 O.2       2 UNK        -0.4875 
     22 CA         20.4287  -27.1326  -42.5874 C.3       2 UNK         0.0481 
     23 CB         21.0740  -26.2030  -41.5376 C.3       2 UNK        -0.1831 
     24 N          19.1374  -26.5997  -43.0127 N.am      2 UNK        -0.4498 
     25 C          18.0040  -26.6908  -42.3056 C.2       1 UNK         0.5027 
     26 O          17.9146  -27.2969  -41.2339 O.2       1 UNK        -0.4969 
     27 C          23.0053  -29.2308  -45.7409 C.2       3 UNK         0.5005 
     28 O          23.8046  -29.1877  -46.6774 O.2       3 UNK        -0.5279 
     29 N          23.3103  -29.7437  -44.5385 N.am      4 UNK        -0.4463 
     30 CA         24.6538  -30.1836  -44.1429 C.3       4 UNK         0.0283 
     31 CB         24.5460  -31.2423  -43.0312 C.3       4 UNK        -0.1875 
     32 C          25.5684  -29.0248  -43.6973 C.2       4 UNK         0.4949 
     33 O          26.7592  -29.2605  -43.4905 O.2       4 UNK        -0.5039 
     34 N          25.0125  -27.8138  -43.5257 N.am      5 UNK        -0.4663 
     35 CA         25.6320  -26.5515  -43.0914 C.3       5 UNK         0.0242 
     36 CB         26.7418  -26.1000  -44.0606 C.3       5 UNK        -0.1982 
     37 C          26.1259  -26.5525  -41.6346 C.2       5 UNK         0.5017 
     38 O          25.7993  -25.6333  -40.8839 O.2       5 UNK        -0.5012 
     39 N          26.8873  -27.5846  -41.2574 N.am      6 UNK        -0.4439 
     40 CA         27.4179  -27.8087  -39.9116 C.3       6 UNK         0.0297 
     41 CB         28.6243  -28.7572  -40.0108 C.3       6 UNK        -0.2006 
     42 C          26.3754  -28.3695  -38.9259 C.2       6 UNK         0.4892 
     43 O          26.6361  -28.3703  -37.7219 O.2       6 UNK        -0.5089 
     44 N          25.2343  -28.8485  -39.4354 N.am      7 UNK        -0.4243 
     45 CA         24.1462  -29.4447  -38.6690 C.3       7 UNK         0.0196 
     46 CB         24.4500  -30.9339  -38.4157 C.3       7 UNK        -0.2007 
     47 C          22.8369  -29.2840  -39.4459 C.2       7 UNK         0.5020 
     48 O          22.8613  -29.0268  -40.6542 O.2       7 UNK        -0.5147 
     49 N          21.7125  -29.4982  -38.7511 N.am      8 UNK        -0.4734 
     50 CA         20.3495  -29.5039  -39.2952 C.3       8 UNK         0.0238 
     51 CB         19.3488  -29.3372  -38.1365 C.3       8 UNK        -0.1912 
     52 C          20.0738  -30.7654  -40.1413 C.2       8 UNK         0.5038 
     53 O          19.2442  -31.5909  -39.7612 O.2       8 UNK        -0.5046 
     54 N          20.8363  -30.8982  -41.2335 N.am      9 UNK        -0.4200 
     55 CA         20.8917  -32.0049  -42.2040 C.3       9 UNK         0.0839 
     56 C          21.3686  -33.3870  -41.6627 C.2       9 UNK         0.5513 
     57 N          21.8125  -33.4964  -40.4167 N.am      9 UNK        -0.7519 
     58 O          21.3915  -34.3659  -42.4041 O.2       9 UNK        -0.4960 
     59 C59        19.6704  -32.0610  -43.1658 C.3       10 UNK        -0.0876 
     60 S60        18.1796  -32.9109  -42.5401 S.3       10 UNK        -0.2414 
     61 C61        17.3146  -33.2774  -44.0985 C.3       10 UNK         0.0169 
     62 H62        15.7170  -24.0577  -39.0126 H         1 UNK         0.0903 
     63 H63        14.8446  -23.0014  -40.1269 H         1 UNK         0.0903 
     64 H64        14.3676  -24.6919  -39.9566 H         1 UNK         0.0903 
     65 H65        15.0854  -25.9880  -41.6459 H         1 UNK         0.3096 
     66 H66        17.1395  -25.1298  -43.4786 H         1 UNK         0.1121 
     67 H67        16.6638  -27.3605  -44.5900 H         1 UNK         0.0849 
     68 H68        15.3177  -26.2671  -44.4876 H         1 UNK         0.0849 
     69 H69        13.5871  -29.7931  -44.2107 H         1 UNK         0.0865 
     70 H70        14.0356  -28.4988  -45.2907 H         1 UNK         0.0865 
     71 H71        15.3372  -31.5113  -43.5003 H         1 UNK         0.1346 
     72 H72        18.4844  -32.2121  -46.3283 H         1 UNK         0.1412 
     73 H73        16.0237  -28.7195  -46.6842 H         1 UNK         0.1426 
     74 H74        17.4202  -29.6339  -48.6291 H         1 UNK         0.0716 
     75 H75        18.6650  -30.8128  -48.3055 H         1 UNK         0.0716 
     76 H76        21.2781  -29.8854  -47.7071 H         1 UNK         0.0695 
     77 H77        20.3944  -30.4224  -46.2964 H         1 UNK         0.0695 
     78 H78        21.7579  -27.6908  -46.4704 H         1 UNK         0.0983 
     79 H79        20.0261  -28.7528  -44.5160 H         1 UNK         0.3095 
     80 H80        20.2782  -28.1161  -42.1418 H         1 UNK         0.0454 
     81 H81        22.0644  -26.5582  -41.2509 H         1 UNK         0.0851 
     82 H82        20.4761  -26.1500  -40.6280 H         1 UNK         0.0851 
     83 H83        21.1918  -25.1883  -41.9190 H         1 UNK         0.0851 
     84 H84        19.1373  -26.1044  -43.8949 H         1 UNK         0.2976 
     85 H85        22.6033  -29.7287  -43.8199 H         1 UNK         0.3116 
     86 H86        25.1377  -30.6556  -45.0007 H         1 UNK         0.0646 
     87 H87        24.0431  -30.8574  -42.1449 H         1 UNK         0.0847 
     88 H88        25.5339  -31.5823  -42.7171 H         1 UNK         0.0847 
     89 H89        24.0059  -32.1239  -43.3756 H         1 UNK         0.0847 
     90 H90        24.0192  -27.7244  -43.7138 H         1 UNK         0.3040 
     91 H91        24.8361  -25.8060  -43.1431 H         1 UNK         0.1015 
     92 H92        27.5894  -26.7858  -44.0656 H         1 UNK         0.0786 
     93 H93        27.1239  -25.1171  -43.7817 H         1 UNK         0.0786 
     94 H94        26.3669  -26.0238  -45.0813 H         1 UNK         0.0786 
     95 H95        27.0771  -28.2949  -41.9628 H         1 UNK         0.3172 
     96 H96        27.7657  -26.8538  -39.5121 H         1 UNK         0.0595 
     97 H97        28.3396  -29.7309  -40.4119 H         1 UNK         0.0839 
     98 H98        29.0718  -28.9264  -39.0303 H         1 UNK         0.0839 
     99 H99        29.4026  -28.3441  -40.6528 H         1 UNK         0.0839 
    100 H100       25.0497  -28.7527  -40.4256 H         1 UNK         0.2998 
    101 H101       24.0438  -28.9192  -37.7169 H         1 UNK         0.0822 
    102 H102       25.3770  -31.0603  -37.8559 H         1 UNK         0.0787 
    103 H103       23.6587  -31.4083  -37.8342 H         1 UNK         0.0787 
    104 H104       24.5473  -31.4885  -39.3502 H         1 UNK         0.0787 
    105 H105       21.7955  -29.7337  -37.7719 H         1 UNK         0.3055 
    106 H106       20.2311  -28.6380  -39.9472 H         1 UNK         0.1106 
    107 H107       19.4092  -30.1609  -37.4243 H         1 UNK         0.0828 
    108 H108       18.3247  -29.3028  -38.5115 H         1 UNK         0.0828 
    109 H109       19.5217  -28.4081  -37.5932 H         1 UNK         0.0828 
    110 H110       21.5628  -30.1955  -41.3356 H         1 UNK         0.2931 
    111 H111       21.7216  -31.7033  -42.8409 H         1 UNK         0.0412 
    112 H112       21.7776  -32.7079  -39.7923 H         1 UNK         0.3472 
    113 H113       22.1363  -34.3916  -40.0857 H         1 UNK         0.3472 
    114 H114       19.9749  -32.5620  -44.0864 H         1 UNK         0.0970 
    115 H115       19.3859  -31.0514  -43.4646 H         1 UNK         0.0970 
    116 H116       17.9398  -33.9229  -44.7175 H         1 UNK         0.0612 
    117 H117       16.4106  -33.8461  -43.8764 H         1 UNK         0.0612 
@<TRIPOS>BOND
     1    1    2 1    
     2    1   62 1    
     3    1   63 1    
     4    1   64 1    
     5    2    3 2    
     6    2    4 am   BACKBONE|DICT|INTERRES
     7    4    5 1    
     8    4   65 1    
     9    5    6 1    
    10    5   25 1    
    11    5   66 1    
    12    6    7 1    
    13    6   67 1    
    14    6   68 1    
    15    7    8 1    
    16    8    9 1    
    17    8   69 1    
    18    8   70 1    
    19    9   10 ar   
    20    9   14 ar   
    21   10   11 ar   
    22   10   71 1    
    23   11   12 ar   
    24   11   61 1    
    25   12   13 ar   
    26   12   72 1    
    27   13   14 ar   
    28   13   15 1    
    29   14   73 1    
    30   15   16 1    
    31   15   74 1    
    32   15   75 1    
    33   16   17 1    
    34   17   18 1    
    35   17   76 1    
    36   17   77 1    
    37   18   19 1    
    38   18   27 1    
    39   18   78 1    
    40   19   20 am   BACKBONE|DICT|INTERRES
    41   19   79 1    
    42   20   21 2    
    43   20   22 1    
    44   22   23 1    
    45   22   24 1    
    46   22   80 1    
    47   23   81 1    
    48   23   82 1    
    49   23   83 1    
    50   24   25 am   BACKBONE|DICT|INTERRES
    51   24   84 1    
    52   25   26 2    
    53   27   28 2    
    54   27   29 am   BACKBONE|DICT|INTERRES
    55   29   30 1    
    56   29   85 1    
    57   30   31 1    
    58   30   32 1    
    59   30   86 1    
    60   31   87 1    
    61   31   88 1    
    62   31   89 1    
    63   32   33 2    
    64   32   34 am   BACKBONE|DICT|INTERRES
    65   34   35 1    
    66   34   90 1    
    67   35   36 1    
    68   35   37 1    
    69   35   91 1    
    70   36   92 1    
    71   36   93 1    
    72   36   94 1    
    73   37   38 2    
    74   37   39 am   BACKBONE|DICT|INTERRES
    75   39   40 1    
    76   39   95 1    
    77   40   41 1    
    78   40   42 1    
    79   40   96 1    
    80   41   97 1    
    81   41   98 1    
    82   41   99 1    
    83   42   43 2    
    84   42   44 am   BACKBONE|DICT|INTERRES
    85   44   45 1    
    86   44  100 1    
    87   45   46 1    
    88   45   47 1    
    89   45  101 1    
    90   46  102 1    
    91   46  103 1    
    92   46  104 1    
    93   47   48 2    
    94   47   49 am   BACKBONE|DICT|INTERRES
    95   49   50 1    
    96   49  105 1    
    97   50   51 1    
    98   50   52 1    
    99   50  106 1    
   100   51  107 1    
   101   51  108 1    
   102   51  109 1    
   103   52   53 2    
   104   52   54 am   BACKBONE|DICT|INTERRES
   105   54   55 1    
   106   54  110 1    
   107   55   56 1    
   108   55   59 1    
   109   55  111 1    
   110   56   57 am   BACKBONE|DICT|INTERRES
   111   56   58 2    
   112   57  112 1    
   113   57  113 1    
   114   59   60 1    
   115   59  114 1    
   116   59  115 1    
   117   60   61 1    
   118   61  116 1    
   119   61  117 1    
@<TRIPOS>SUBSTRUCTURE
     1 UNK         1 GROUP             0       ****    0 ROOT    
