@<TRIPOS>MOLECULE
3R8
117   119    1
SMALL
USER_CHARGES


@<TRIPOS>ATOM
      1 CA         15.4002  -22.5378  -45.9478 C.3       0 UNK        -0.2013 
      2 C          16.8151  -22.9803  -46.2902 C.2       0 UNK         0.4866 
      3 O          17.7478  -22.1821  -46.1893 O.2       0 UNK        -0.5176 
      4 N          16.9800  -24.2426  -46.7035 N.am      1 UNK        -0.4884 
      5 CA         18.2736  -24.8671  -46.9996 C.3       1 UNK         0.0853 
      6 C6         18.1146  -26.0271  -48.0203 C.3       10 UNK        -0.0849 
      7 S7         17.0664  -27.4085  -47.4405 S.3       10 UNK        -0.2776 
      8 C8         18.3317  -28.6833  -47.0984 C.3       10 UNK         0.0316 
      9 C9         18.0265  -29.6017  -45.9163 C.ar      10 UNK        -0.0863 
     10 C10        18.6932  -30.8289  -45.8355 C.ar      10 UNK        -0.1009 
     11 C11        18.5216  -31.6669  -44.7304 C.ar      10 UNK        -0.0712 
     12 C12        17.6416  -31.2888  -43.7130 C.ar      10 UNK        -0.0894 
     13 C13        16.9891  -30.0554  -43.7640 C.ar      10 UNK        -0.0745 
     14 C14        17.1817  -29.2184  -44.8661 C.ar      10 UNK        -0.0972 
     15 C15        16.1066  -29.6124  -42.6074 C.3       10 UNK         0.0209 
     16 S16        17.0905  -29.1992  -41.1298 S.3       10 UNK        -0.2568 
     17 C17        18.0578  -27.7546  -41.6928 C.3       10 UNK        -0.0983 
     18 CA         19.5682  -28.0653  -41.8841 C.3       3 UNK         0.0876 
     19 N          20.1752  -27.0885  -42.7880 N.am      3 UNK        -0.4424 
     20 C          20.6484  -27.3407  -44.0127 C.2       2 UNK         0.4918 
     21 O          20.6660  -28.4516  -44.5390 O.2       2 UNK        -0.4875 
     22 CA         21.1968  -26.1324  -44.7978 C.3       2 UNK         0.0481 
     23 CB         22.5538  -26.4699  -45.4414 C.3       2 UNK        -0.1831 
     24 N          20.2893  -25.6738  -45.8555 N.am      2 UNK        -0.4498 
     25 C          19.0139  -25.2855  -45.7048 C.2       1 UNK         0.5027 
     26 O          18.4344  -25.2434  -44.6157 O.2       1 UNK        -0.4969 
     27 C          20.3260  -28.0483  -40.5393 C.2       3 UNK         0.5005 
     28 O          21.0530  -27.0906  -40.2499 O.2       3 UNK        -0.5279 
     29 N          20.0998  -29.0867  -39.7197 N.am      4 UNK        -0.4463 
     30 CA         20.6350  -29.2864  -38.3694 C.3       4 UNK         0.0283 
     31 CB         20.0431  -28.2481  -37.3877 C.3       4 UNK        -0.1875 
     32 C          22.1724  -29.3540  -38.3719 C.2       4 UNK         0.4949 
     33 O          22.7300  -30.3261  -38.8804 O.2       4 UNK        -0.5039 
     34 N          22.8332  -28.3348  -37.8072 N.am      5 UNK        -0.4663 
     35 CA         24.2922  -28.2135  -37.7727 C.3       5 UNK         0.0242 
     36 CB         24.6843  -27.0761  -36.8160 C.3       5 UNK        -0.1982 
     37 C          24.9153  -27.9903  -39.1616 C.2       5 UNK         0.5017 
     38 O          26.0579  -28.3972  -39.3769 O.2       5 UNK        -0.5012 
     39 N          24.1631  -27.3655  -40.0780 N.am      6 UNK        -0.4439 
     40 CA         24.5603  -27.1832  -41.4708 C.3       6 UNK         0.0297 
     41 CB         23.8541  -25.9442  -42.0398 C.3       6 UNK        -0.2006 
     42 C          24.2208  -28.4546  -42.2638 C.2       6 UNK         0.4892 
     43 O          23.1587  -29.0421  -42.0524 O.2       6 UNK        -0.5089 
     44 N          25.1534  -28.8749  -43.1309 N.am      7 UNK        -0.4243 
     45 CA         25.1273  -30.1011  -43.9485 C.3       7 UNK         0.0196 
     46 CB         23.9702  -30.0580  -44.9702 C.3       7 UNK        -0.2007 
     47 C          25.1317  -31.4230  -43.1460 C.2       7 UNK         0.5020 
     48 O          25.0105  -32.4884  -43.7511 O.2       7 UNK        -0.5147 
     49 N          25.2874  -31.3412  -41.8147 N.am      8 UNK        -0.4734 
     50 CA         25.2525  -32.4336  -40.8322 C.3       8 UNK         0.0238 
     51 CB         26.4625  -33.3749  -41.0141 C.3       8 UNK        -0.1912 
     52 C          23.9088  -33.1925  -40.7850 C.2       8 UNK         0.5038 
     53 O          23.8821  -34.3583  -40.3832 O.2       8 UNK        -0.5046 
     54 N          22.8167  -32.5210  -41.1703 N.am      9 UNK        -0.4200 
     55 CA         21.4368  -33.0276  -41.1435 C.3       9 UNK         0.0839 
     56 C          20.8350  -33.0519  -39.7066 C.2       9 UNK         0.5513 
     57 N          21.4797  -33.7200  -38.7600 N.am      9 UNK        -0.7519 
     58 O          19.7789  -32.4808  -39.4447 O.2       9 UNK        -0.4960 
     59 C59        20.5465  -32.2678  -42.1603 C.3       10 UNK        -0.0876 
     60 S60        20.9716  -32.6460  -43.8948 S.3       10 UNK        -0.2414 
     61 C61        19.3249  -32.9550  -44.6180 C.3       10 UNK         0.0169 
     62 H62        14.6750  -23.3372  -46.0987 H         1 UNK         0.0903 
     63 H63        15.3476  -22.2250  -44.9054 H         1 UNK         0.0903 
     64 H64        15.1090  -21.6937  -46.5724 H         1 UNK         0.0903 
     65 H65        16.1873  -24.8686  -46.7334 H         1 UNK         0.3096 
     66 H66        18.9013  -24.1090  -47.4747 H         1 UNK         0.1121 
     67 H67        19.0890  -26.4023  -48.3370 H         1 UNK         0.0849 
     68 H68        17.6600  -25.6366  -48.9324 H         1 UNK         0.0849 
     69 H69        18.4695  -29.2762  -48.0039 H         1 UNK         0.0865 
     70 H70        19.2914  -28.2085  -46.8942 H         1 UNK         0.0865 
     71 H71        19.3864  -31.1150  -46.6148 H         1 UNK         0.1346 
     72 H72        17.4939  -31.9302  -42.8557 H         1 UNK         0.1412 
     73 H73        16.6947  -28.2540  -44.8826 H         1 UNK         0.1426 
     74 H74        15.4112  -30.4147  -42.3567 H         1 UNK         0.0716 
     75 H75        15.4950  -28.7530  -42.8869 H         1 UNK         0.0716 
     76 H76        17.9086  -26.9340  -40.9881 H         1 UNK         0.0695 
     77 H77        17.6284  -27.4038  -42.6325 H         1 UNK         0.0695 
     78 H78        19.6756  -29.0623  -42.3162 H         1 UNK         0.0983 
     79 H79        20.2518  -26.1550  -42.4106 H         1 UNK         0.3095 
     80 H80        21.3474  -25.3041  -44.1028 H         1 UNK         0.0454 
     81 H81        22.4438  -27.1780  -46.2636 H         1 UNK         0.0851 
     82 H82        23.2298  -26.9295  -44.7220 H         1 UNK         0.0851 
     83 H83        23.0459  -25.5775  -45.8281 H         1 UNK         0.0851 
     84 H84        20.6770  -25.6767  -46.7874 H         1 UNK         0.2976 
     85 H85        19.4819  -29.8196  -40.0428 H         1 UNK         0.3116 
     86 H86        20.2916  -30.2679  -38.0415 H         1 UNK         0.0646 
     87 H87        20.2897  -27.2221  -37.6622 H         1 UNK         0.0847 
     88 H88        20.4026  -28.4172  -36.3718 H         1 UNK         0.0847 
     89 H89        18.9561  -28.3227  -37.3550 H         1 UNK         0.0847 
     90 H90        22.2986  -27.5674  -37.4264 H         1 UNK         0.3040 
     91 H91        24.6994  -29.1485  -37.3809 H         1 UNK         0.1015 
     92 H92        24.2902  -26.1146  -37.1478 H         1 UNK         0.0786 
     93 H93        25.7690  -26.9785  -36.7506 H         1 UNK         0.0786 
     94 H94        24.3163  -27.2612  -35.8065 H         1 UNK         0.0786 
     95 H95        23.1903  -27.1737  -39.8615 H         1 UNK         0.3172 
     96 H96        25.6371  -27.0043  -41.5143 H         1 UNK         0.0595 
     97 H97        24.2257  -25.7053  -43.0359 H         1 UNK         0.0839 
     98 H98        24.0309  -25.0673  -41.4168 H         1 UNK         0.0839 
     99 H99        22.7770  -26.0897  -42.1082 H         1 UNK         0.0839 
    100 H100       26.0009  -28.3288  -43.2111 H         1 UNK         0.2998 
    101 H101       26.0603  -30.1014  -44.5139 H         1 UNK         0.0822 
    102 H102       24.0114  -30.9106  -45.6490 H         1 UNK         0.0787 
    103 H103       22.9944  -30.0846  -44.4833 H         1 UNK         0.0787 
    104 H104       24.0153  -29.1591  -45.5837 H         1 UNK         0.0787 
    105 H105       25.3662  -30.4133  -41.4212 H         1 UNK         0.3055 
    106 H106       25.3494  -31.9589  -39.8540 H         1 UNK         0.1106 
    107 H107       26.5252  -34.0954  -40.1977 H         1 UNK         0.0828 
    108 H108       26.3974  -33.9430  -41.9425 H         1 UNK         0.0828 
    109 H109       27.4002  -32.8195  -41.0246 H         1 UNK         0.0828 
    110 H110       22.9269  -31.5518  -41.4370 H         1 UNK         0.2931 
    111 H111       21.4554  -34.0718  -41.4619 H         1 UNK         0.0412 
    112 H112       21.1085  -33.7523  -37.8239 H         1 UNK         0.3472 
    113 H113       22.3521  -34.1811  -38.9876 H         1 UNK         0.3472 
    114 H114       20.6181  -31.1908  -42.0059 H         1 UNK         0.0970 
    115 H115       19.5018  -32.5319  -42.0004 H         1 UNK         0.0970 
    116 H116       19.4530  -33.3958  -45.6076 H         1 UNK         0.0612 
    117 H117       18.7902  -33.6953  -44.0208 H         1 UNK         0.0612 
@<TRIPOS>BOND
     1    1    2 1    
     2    1   62 1    
     3    1   63 1    
     4    1   64 1    
     5    2    3 2    
     6    2    4 am   BACKBONE|DICT|INTERRES
     7    4    5 1    
     8    4   65 1    
     9    5    6 1    
    10    5   25 1    
    11    5   66 1    
    12    6    7 1    
    13    6   67 1    
    14    6   68 1    
    15    7    8 1    
    16    8    9 1    
    17    8   69 1    
    18    8   70 1    
    19    9   10 ar   
    20    9   14 ar   
    21   10   11 ar   
    22   10   71 1    
    23   11   12 ar   
    24   11   61 1    
    25   12   13 ar   
    26   12   72 1    
    27   13   14 ar   
    28   13   15 1    
    29   14   73 1    
    30   15   16 1    
    31   15   74 1    
    32   15   75 1    
    33   16   17 1    
    34   17   18 1    
    35   17   76 1    
    36   17   77 1    
    37   18   19 1    
    38   18   27 1    
    39   18   78 1    
    40   19   20 am   BACKBONE|DICT|INTERRES
    41   19   79 1    
    42   20   21 2    
    43   20   22 1    
    44   22   23 1    
    45   22   24 1    
    46   22   80 1    
    47   23   81 1    
    48   23   82 1    
    49   23   83 1    
    50   24   25 am   BACKBONE|DICT|INTERRES
    51   24   84 1    
    52   25   26 2    
    53   27   28 2    
    54   27   29 am   BACKBONE|DICT|INTERRES
    55   29   30 1    
    56   29   85 1    
    57   30   31 1    
    58   30   32 1    
    59   30   86 1    
    60   31   87 1    
    61   31   88 1    
    62   31   89 1    
    63   32   33 2    
    64   32   34 am   BACKBONE|DICT|INTERRES
    65   34   35 1    
    66   34   90 1    
    67   35   36 1    
    68   35   37 1    
    69   35   91 1    
    70   36   92 1    
    71   36   93 1    
    72   36   94 1    
    73   37   38 2    
    74   37   39 am   BACKBONE|DICT|INTERRES
    75   39   40 1    
    76   39   95 1    
    77   40   41 1    
    78   40   42 1    
    79   40   96 1    
    80   41   97 1    
    81   41   98 1    
    82   41   99 1    
    83   42   43 2    
    84   42   44 am   BACKBONE|DICT|INTERRES
    85   44   45 1    
    86   44  100 1    
    87   45   46 1    
    88   45   47 1    
    89   45  101 1    
    90   46  102 1    
    91   46  103 1    
    92   46  104 1    
    93   47   48 2    
    94   47   49 am   BACKBONE|DICT|INTERRES
    95   49   50 1    
    96   49  105 1    
    97   50   51 1    
    98   50   52 1    
    99   50  106 1    
   100   51  107 1    
   101   51  108 1    
   102   51  109 1    
   103   52   53 2    
   104   52   54 am   BACKBONE|DICT|INTERRES
   105   54   55 1    
   106   54  110 1    
   107   55   56 1    
   108   55   59 1    
   109   55  111 1    
   110   56   57 am   BACKBONE|DICT|INTERRES
   111   56   58 2    
   112   57  112 1    
   113   57  113 1    
   114   59   60 1    
   115   59  114 1    
   116   59  115 1    
   117   60   61 1    
   118   61  116 1    
   119   61  117 1    
@<TRIPOS>SUBSTRUCTURE
     1 UNK         1 GROUP             0       ****    0 ROOT    
