@<TRIPOS>MOLECULE
3R8
117   119    1
SMALL
USER_CHARGES


@<TRIPOS>ATOM
      1 CA         20.6756  -25.7396  -49.4509 C.3       0 UNK        -0.2013 
      2 C          19.8266  -25.9975  -48.2150 C.2       0 UNK         0.4866 
      3 O          18.8167  -25.3212  -48.0204 O.2       0 UNK        -0.5176 
      4 N          20.2337  -26.9706  -47.3877 N.am      1 UNK        -0.4884 
      5 CA         19.5876  -27.3904  -46.1369 C.3       1 UNK         0.0853 
      6 C6         18.2263  -28.1141  -46.3503 C.3       10 UNK        -0.0849 
      7 S7         18.4633  -29.8734  -46.7817 S.3       10 UNK        -0.2776 
      8 C8         17.0888  -30.6916  -45.8966 C.3       10 UNK         0.0316 
      9 C9         17.2666  -30.6964  -44.3811 C.ar      10 UNK        -0.0863 
     10 C10        18.0628  -31.6662  -43.7615 C.ar      10 UNK        -0.1009 
     11 C11        18.2217  -31.6773  -42.3679 C.ar      10 UNK        -0.0712 
     12 C12        17.5849  -30.6945  -41.6013 C.ar      10 UNK        -0.0894 
     13 C13        16.7852  -29.7229  -42.2070 C.ar      10 UNK        -0.0745 
     14 C14        16.6171  -29.7407  -43.5939 C.ar      10 UNK        -0.0972 
     15 C15        16.0839  -28.6610  -41.3721 C.3       10 UNK         0.0209 
     16 S16        16.8352  -27.0148  -41.5941 S.3       10 UNK        -0.2568 
     17 C17        17.9970  -26.8707  -40.1897 C.3       10 UNK        -0.0983 
     18 CA         19.4922  -26.8355  -40.6015 C.3       3 UNK         0.0876 
     19 N          19.7469  -25.9178  -41.7260 N.am      3 UNK        -0.4424 
     20 C          20.9327  -25.6689  -42.2994 C.2       2 UNK         0.4918 
     21 O          22.0035  -26.1128  -41.8817 O.2       2 UNK        -0.4875 
     22 CA         20.9125  -24.8352  -43.5926 C.3       2 UNK         0.0481 
     23 CB         22.2215  -24.0491  -43.7863 C.3       2 UNK        -0.1831 
     24 N          20.7133  -25.7249  -44.7377 N.am      2 UNK        -0.4498 
     25 C          19.5326  -26.2512  -45.0928 C.2       1 UNK         0.5027 
     26 O          18.4591  -25.8857  -44.6108 O.2       1 UNK        -0.4969 
     27 C          20.3764  -26.5664  -39.3640 C.2       3 UNK         0.5005 
     28 O          20.8155  -27.5142  -38.7114 O.2       3 UNK        -0.5279 
     29 N          20.6649  -25.2839  -39.0941 N.am      4 UNK        -0.4463 
     30 CA         21.5492  -24.8200  -38.0185 C.3       4 UNK         0.0283 
     31 CB         21.4479  -23.2901  -37.9094 C.3       4 UNK        -0.1875 
     32 C          23.0219  -25.2462  -38.1824 C.2       4 UNK         0.4949 
     33 O          23.7398  -25.3129  -37.1851 O.2       4 UNK        -0.5039 
     34 N          23.4400  -25.5432  -39.4198 N.am      5 UNK        -0.4663 
     35 CA         24.7650  -26.0584  -39.7731 C.3       5 UNK         0.0242 
     36 CB         25.2863  -25.2706  -40.9896 C.3       5 UNK        -0.1982 
     37 C          24.7244  -27.5744  -40.0532 C.2       5 UNK         0.5017 
     38 O          25.6245  -28.0874  -40.7181 O.2       5 UNK        -0.5012 
     39 N          23.6722  -28.2568  -39.5720 N.am      6 UNK        -0.4439 
     40 CA         23.3433  -29.6788  -39.7473 C.3       6 UNK         0.0297 
     41 CB         24.4854  -30.6042  -39.2776 C.3       6 UNK        -0.2006 
     42 C          22.8385  -30.0492  -41.1547 C.2       6 UNK         0.4892 
     43 O          22.5585  -31.2272  -41.3866 O.2       6 UNK        -0.5089 
     44 N          22.6803  -29.0525  -42.0414 N.am      7 UNK        -0.4243 
     45 CA         22.0874  -29.0805  -43.3851 C.3       7 UNK         0.0196 
     46 CB         20.5752  -29.3626  -43.2996 C.3       7 UNK        -0.2007 
     47 C          22.7602  -30.0062  -44.4115 C.2       7 UNK         0.5020 
     48 O          23.1858  -29.5319  -45.4645 O.2       7 UNK        -0.5147 
     49 N          22.7939  -31.3022  -44.1010 N.am      8 UNK        -0.4734 
     50 CA         23.2330  -32.4137  -44.9466 C.3       8 UNK         0.0238 
     51 CB         22.3650  -32.5188  -46.2194 C.3       8 UNK        -0.1912 
     52 C          23.1763  -33.7447  -44.1813 C.2       8 UNK         0.5038 
     53 O          23.9193  -34.6629  -44.5300 O.2       8 UNK        -0.5046 
     54 N          22.2920  -33.8385  -43.1764 N.am      9 UNK        -0.4200 
     55 CA         22.0468  -35.0473  -42.3725 C.3       9 UNK         0.0839 
     56 C          23.2359  -35.4732  -41.4644 C.2       9 UNK         0.5513 
     57 N          24.1404  -34.5714  -41.1010 N.am      9 UNK        -0.7519 
     58 O          23.3331  -36.6371  -41.0843 O.2       9 UNK        -0.4960 
     59 C59        20.7452  -34.9441  -41.5294 C.3       10 UNK        -0.0876 
     60 S60        19.3031  -34.3014  -42.4531 S.3       10 UNK        -0.2414 
     61 C61        19.1450  -32.6664  -41.6595 C.3       10 UNK         0.0169 
     62 H62        20.0791  -25.8821  -50.3517 H         1 UNK         0.0903 
     63 H63        21.0443  -24.7142  -49.4453 H         1 UNK         0.0903 
     64 H64        21.5347  -26.4082  -49.5048 H         1 UNK         0.0903 
     65 H65        21.0708  -27.4858  -47.6251 H         1 UNK         0.3096 
     66 H66        20.2760  -28.1150  -45.7060 H         1 UNK         0.1121 
     67 H67        17.6179  -28.0744  -45.4491 H         1 UNK         0.0849 
     68 H68        17.6321  -27.6265  -47.1240 H         1 UNK         0.0849 
     69 H69        17.0113  -31.7205  -46.2511 H         1 UNK         0.0865 
     70 H70        16.1481  -30.2110  -46.1701 H         1 UNK         0.0865 
     71 H71        18.5741  -32.3968  -44.3725 H         1 UNK         0.1346 
     72 H72        17.7219  -30.6783  -40.5286 H         1 UNK         0.1412 
     73 H73        15.9883  -28.9939  -44.0593 H         1 UNK         0.1426 
     74 H74        16.0656  -28.9346  -40.3164 H         1 UNK         0.0716 
     75 H75        15.0396  -28.6059  -41.6828 H         1 UNK         0.0716 
     76 H76        17.8225  -27.6869  -39.4864 H         1 UNK         0.0695 
     77 H77        17.7305  -25.9560  -39.6564 H         1 UNK         0.0695 
     78 H78        19.7581  -27.8345  -40.9494 H         1 UNK         0.0983 
     79 H79        18.9161  -25.5679  -42.1861 H         1 UNK         0.3095 
     80 H80        20.0922  -24.1167  -43.5352 H         1 UNK         0.0454 
     81 H81        22.1749  -23.4163  -44.6725 H         1 UNK         0.0851 
     82 H82        23.0838  -24.7088  -43.8920 H         1 UNK         0.0851 
     83 H83        22.4145  -23.3976  -42.9331 H         1 UNK         0.0851 
     84 H84        21.5486  -26.0575  -45.1975 H         1 UNK         0.2976 
     85 H85        20.2659  -24.5743  -39.6921 H         1 UNK         0.3116 
     86 H86        21.1887  -25.2541  -37.0835 H         1 UNK         0.0646 
     87 H87        22.0704  -22.9148  -37.0957 H         1 UNK         0.0847 
     88 H88        20.4258  -22.9718  -37.7038 H         1 UNK         0.0847 
     89 H89        21.7779  -22.7967  -38.8245 H         1 UNK         0.0847 
     90 H90        22.7729  -25.5076  -40.1852 H         1 UNK         0.3040 
     91 H91        25.4628  -25.9074  -38.9466 H         1 UNK         0.1015 
     92 H92        25.2992  -24.1987  -40.7913 H         1 UNK         0.0786 
     93 H93        24.6710  -25.4401  -41.8739 H         1 UNK         0.0786 
     94 H94        26.3068  -25.5628  -41.2407 H         1 UNK         0.0786 
     95 H95        22.9653  -27.7265  -39.0739 H         1 UNK         0.3172 
     96 H96        22.4960  -29.8558  -39.0834 H         1 UNK         0.0595 
     97 H97        25.3436  -30.5682  -39.9488 H         1 UNK         0.0839 
     98 H98        24.1532  -31.6425  -39.2400 H         1 UNK         0.0839 
     99 H99        24.8272  -30.3392  -38.2773 H         1 UNK         0.0839 
    100 H100       22.9427  -28.1254  -41.7303 H         1 UNK         0.2998 
    101 H101       22.2104  -28.0726  -43.7820 H         1 UNK         0.0822 
    102 H102       20.3373  -30.0375  -42.4825 H         1 UNK         0.0787 
    103 H103       20.0038  -28.4513  -43.1392 H         1 UNK         0.0787 
    104 H104       20.1890  -29.8228  -44.2092 H         1 UNK         0.0787 
    105 H105       22.5657  -31.5220  -43.1324 H         1 UNK         0.3055 
    106 H106       24.2722  -32.2380  -45.2320 H         1 UNK         0.1106 
    107 H107       22.6340  -33.3982  -46.8064 H         1 UNK         0.0828 
    108 H108       21.3047  -32.5999  -45.9767 H         1 UNK         0.0828 
    109 H109       22.4928  -31.6554  -46.8716 H         1 UNK         0.0828 
    110 H110       21.6945  -33.0543  -42.9678 H         1 UNK         0.2931 
    111 H111       21.9002  -35.8609  -43.0858 H         1 UNK         0.0412 
    112 H112       24.0432  -33.6108  -41.3916 H         1 UNK         0.3472 
    113 H113       24.9113  -34.8496  -40.5145 H         1 UNK         0.3472 
    114 H114       20.4776  -35.9292  -41.1424 H         1 UNK         0.0970 
    115 H115       20.9136  -34.3212  -40.6482 H         1 UNK         0.0970 
    116 H116       18.8044  -32.8243  -40.6349 H         1 UNK         0.0612 
    117 H117       20.1316  -32.2112  -41.5891 H         1 UNK         0.0612 
@<TRIPOS>BOND
     1    1    2 1    
     2    1   62 1    
     3    1   63 1    
     4    1   64 1    
     5    2    3 2    
     6    2    4 am   BACKBONE|DICT|INTERRES
     7    4    5 1    
     8    4   65 1    
     9    5    6 1    
    10    5   25 1    
    11    5   66 1    
    12    6    7 1    
    13    6   67 1    
    14    6   68 1    
    15    7    8 1    
    16    8    9 1    
    17    8   69 1    
    18    8   70 1    
    19    9   10 ar   
    20    9   14 ar   
    21   10   11 ar   
    22   10   71 1    
    23   11   12 ar   
    24   11   61 1    
    25   12   13 ar   
    26   12   72 1    
    27   13   14 ar   
    28   13   15 1    
    29   14   73 1    
    30   15   16 1    
    31   15   74 1    
    32   15   75 1    
    33   16   17 1    
    34   17   18 1    
    35   17   76 1    
    36   17   77 1    
    37   18   19 1    
    38   18   27 1    
    39   18   78 1    
    40   19   20 am   BACKBONE|DICT|INTERRES
    41   19   79 1    
    42   20   21 2    
    43   20   22 1    
    44   22   23 1    
    45   22   24 1    
    46   22   80 1    
    47   23   81 1    
    48   23   82 1    
    49   23   83 1    
    50   24   25 am   BACKBONE|DICT|INTERRES
    51   24   84 1    
    52   25   26 2    
    53   27   28 2    
    54   27   29 am   BACKBONE|DICT|INTERRES
    55   29   30 1    
    56   29   85 1    
    57   30   31 1    
    58   30   32 1    
    59   30   86 1    
    60   31   87 1    
    61   31   88 1    
    62   31   89 1    
    63   32   33 2    
    64   32   34 am   BACKBONE|DICT|INTERRES
    65   34   35 1    
    66   34   90 1    
    67   35   36 1    
    68   35   37 1    
    69   35   91 1    
    70   36   92 1    
    71   36   93 1    
    72   36   94 1    
    73   37   38 2    
    74   37   39 am   BACKBONE|DICT|INTERRES
    75   39   40 1    
    76   39   95 1    
    77   40   41 1    
    78   40   42 1    
    79   40   96 1    
    80   41   97 1    
    81   41   98 1    
    82   41   99 1    
    83   42   43 2    
    84   42   44 am   BACKBONE|DICT|INTERRES
    85   44   45 1    
    86   44  100 1    
    87   45   46 1    
    88   45   47 1    
    89   45  101 1    
    90   46  102 1    
    91   46  103 1    
    92   46  104 1    
    93   47   48 2    
    94   47   49 am   BACKBONE|DICT|INTERRES
    95   49   50 1    
    96   49  105 1    
    97   50   51 1    
    98   50   52 1    
    99   50  106 1    
   100   51  107 1    
   101   51  108 1    
   102   51  109 1    
   103   52   53 2    
   104   52   54 am   BACKBONE|DICT|INTERRES
   105   54   55 1    
   106   54  110 1    
   107   55   56 1    
   108   55   59 1    
   109   55  111 1    
   110   56   57 am   BACKBONE|DICT|INTERRES
   111   56   58 2    
   112   57  112 1    
   113   57  113 1    
   114   59   60 1    
   115   59  114 1    
   116   59  115 1    
   117   60   61 1    
   118   61  116 1    
   119   61  117 1    
@<TRIPOS>SUBSTRUCTURE
     1 UNK         1 GROUP             0       ****    0 ROOT    
