@<TRIPOS>MOLECULE
3R8
117   119    1
SMALL
USER_CHARGES


@<TRIPOS>ATOM
      1 CA         18.5470  -28.4976  -42.0552 C.3       0 UNK        -0.2013 
      2 C          17.8827  -27.3450  -42.7900 C.2       0 UNK         0.4866 
      3 O          17.7556  -26.2561  -42.2291 O.2       0 UNK        -0.5176 
      4 N          17.4763  -27.5590  -44.0496 N.am      1 UNK        -0.4884 
      5 CA         16.7930  -26.5744  -44.9056 C.3       1 UNK         0.0853 
      6 C6         15.9715  -27.2427  -46.0419 C.3       10 UNK        -0.0849 
      7 S7         14.8147  -28.5237  -45.4428 S.3       10 UNK        -0.2776 
      8 C8         15.4558  -30.0232  -46.2615 C.3       10 UNK         0.0316 
      9 C9         16.8465  -30.3974  -45.7666 C.ar      10 UNK        -0.0863 
     10 C10        17.0023  -31.0549  -44.5428 C.ar      10 UNK        -0.1009 
     11 C11        18.2766  -31.3871  -44.0731 C.ar      10 UNK        -0.0712 
     12 C12        19.3983  -31.0626  -44.8416 C.ar      10 UNK        -0.0894 
     13 C13        19.2562  -30.4039  -46.0662 C.ar      10 UNK        -0.0745 
     14 C14        17.9771  -30.0841  -46.5285 C.ar      10 UNK        -0.0972 
     15 C15        20.4819  -30.0365  -46.8917 C.3       10 UNK         0.0209 
     16 S16        20.9381  -28.2831  -46.6954 S.3       10 UNK        -0.2568 
     17 C17        21.5746  -28.2865  -44.9883 C.3       10 UNK        -0.0983 
     18 CA         21.9277  -26.8818  -44.4388 C.3       3 UNK         0.0876 
     19 N          20.7969  -25.9579  -44.5609 N.am      3 UNK        -0.4424 
     20 C          20.8662  -24.6256  -44.6760 C.2       2 UNK         0.4918 
     21 O          21.9263  -24.0018  -44.7160 O.2       2 UNK        -0.4875 
     22 CA         19.5302  -23.8507  -44.6925 C.3       2 UNK         0.0481 
     23 CB         19.4240  -22.8977  -45.9008 C.3       2 UNK        -0.1831 
     24 N          18.3498  -24.7197  -44.5534 N.am      2 UNK        -0.4498 
     25 C          17.8139  -25.5544  -45.4569 C.2       1 UNK         0.5027 
     26 O          18.1579  -25.6008  -46.6381 O.2       1 UNK        -0.4969 
     27 C          22.4148  -27.0165  -42.9785 C.2       3 UNK         0.5005 
     28 O          23.3918  -27.7280  -42.7444 O.2       3 UNK        -0.5279 
     29 N          21.7132  -26.3835  -42.0231 N.am      4 UNK        -0.4463 
     30 CA         21.9215  -26.4704  -40.5740 C.3       4 UNK         0.0283 
     31 CB         20.9956  -25.4631  -39.8748 C.3       4 UNK        -0.1875 
     32 C          23.3811  -26.2582  -40.1329 C.2       4 UNK         0.4949 
     33 O          24.0996  -25.4561  -40.7320 O.2       4 UNK        -0.5039 
     34 N          23.7872  -27.0157  -39.1065 N.am      5 UNK        -0.4663 
     35 CA         25.1399  -27.1658  -38.5483 C.3       5 UNK         0.0242 
     36 CB         25.7390  -25.8196  -38.0945 C.3       5 UNK        -0.1982 
     37 C          26.1147  -27.9399  -39.4567 C.2       5 UNK         0.5017 
     38 O          26.8897  -28.7433  -38.9369 O.2       5 UNK        -0.5012 
     39 N          26.0585  -27.7176  -40.7772 N.am      6 UNK        -0.4439 
     40 CA         26.8405  -28.4523  -41.7755 C.3       6 UNK         0.0297 
     41 CB         26.9036  -27.6520  -43.0871 C.3       6 UNK        -0.2006 
     42 C          26.2802  -29.8653  -42.0112 C.2       6 UNK         0.4892 
     43 O          27.0416  -30.8330  -41.9848 O.2       6 UNK        -0.5089 
     44 N          24.9612  -29.9560  -42.2113 N.am      7 UNK        -0.4243 
     45 CA         24.2041  -31.1898  -42.3835 C.3       7 UNK         0.0196 
     46 CB         24.1522  -31.5779  -43.8735 C.3       7 UNK        -0.2007 
     47 C          22.8171  -30.9689  -41.7713 C.2       7 UNK         0.5020 
     48 O          21.8536  -30.7020  -42.4873 O.2       7 UNK        -0.5147 
     49 N          22.7486  -31.0489  -40.4371 N.am      8 UNK        -0.4734 
     50 CA         21.5250  -30.8437  -39.6523 C.3       8 UNK         0.0238 
     51 CB         21.9206  -30.5039  -38.2048 C.3       8 UNK        -0.1912 
     52 C          20.5431  -32.0335  -39.6790 C.2       8 UNK         0.5038 
     53 O          19.4430  -31.9007  -39.1421 O.2       8 UNK        -0.5046 
     54 N          20.9501  -33.1633  -40.2768 N.am      9 UNK        -0.4200 
     55 CA         20.2071  -34.4364  -40.3547 C.3       9 UNK         0.0839 
     56 C          20.0583  -35.1762  -38.9885 C.2       9 UNK         0.5513 
     57 N          20.8397  -34.8446  -37.9672 N.am      9 UNK        -0.7519 
     58 O          19.2466  -36.0888  -38.8558 O.2       9 UNK        -0.4960 
     59 C59        18.8556  -34.3292  -41.1237 C.3       10 UNK        -0.0876 
     60 S60        19.0341  -33.7630  -42.8510 S.3       10 UNK        -0.2414 
     61 C61        18.4458  -32.0483  -42.7136 C.3       10 UNK         0.0169 
     62 H62        19.1183  -28.1310  -41.2027 H         1 UNK         0.0903 
     63 H63        17.7942  -29.1931  -41.6856 H         1 UNK         0.0903 
     64 H64        19.2327  -29.0379  -42.7046 H         1 UNK         0.0903 
     65 H65        17.5916  -28.4765  -44.4631 H         1 UNK         0.3096 
     66 H66        16.0857  -26.0182  -44.2855 H         1 UNK         0.1121 
     67 H67        16.6278  -27.6737  -46.7980 H         1 UNK         0.0849 
     68 H68        15.3836  -26.4866  -46.5656 H         1 UNK         0.0849 
     69 H69        14.7692  -30.8495  -46.0717 H         1 UNK         0.0865 
     70 H70        15.4564  -29.8752  -47.3427 H         1 UNK         0.0865 
     71 H71        16.1294  -31.2926  -43.9497 H         1 UNK         0.1346 
     72 H72        20.3847  -31.3130  -44.4761 H         1 UNK         0.1412 
     73 H73        17.8679  -29.5782  -47.4782 H         1 UNK         0.1426 
     74 H74        20.2811  -30.2318  -47.9461 H         1 UNK         0.0716 
     75 H75        21.3319  -30.6655  -46.6220 H         1 UNK         0.0716 
     76 H76        22.4535  -28.9316  -44.9676 H         1 UNK         0.0695 
     77 H77        20.8342  -28.7623  -44.3464 H         1 UNK         0.0695 
     78 H78        22.7651  -26.4883  -45.0191 H         1 UNK         0.0983 
     79 H79        19.8839  -26.3849  -44.5914 H         1 UNK         0.3095 
     80 H80        19.5361  -23.2314  -43.7945 H         1 UNK         0.0454 
     81 H81        19.5326  -23.4235  -46.8496 H         1 UNK         0.0851 
     82 H82        20.2085  -22.1409  -45.8659 H         1 UNK         0.0851 
     83 H83        18.4691  -22.3728  -45.9123 H         1 UNK         0.0851 
     84 H84        18.0243  -24.8433  -43.5975 H         1 UNK         0.2976 
     85 H85        20.9461  -25.8033  -42.3256 H         1 UNK         0.3116 
     86 H86        21.6196  -27.4776  -40.2801 H         1 UNK         0.0646 
     87 H87        19.9478  -25.6522  -40.1105 H         1 UNK         0.0847 
     88 H88        21.2263  -24.4374  -40.1660 H         1 UNK         0.0847 
     89 H89        21.0969  -25.5231  -38.7902 H         1 UNK         0.0847 
     90 H90        23.0999  -27.6303  -38.6938 H         1 UNK         0.3040 
     91 H91        25.0137  -27.7761  -37.6520 H         1 UNK         0.1015 
     92 H92        25.9639  -25.1635  -38.9356 H         1 UNK         0.0786 
     93 H93        26.6731  -25.9763  -37.5534 H         1 UNK         0.0786 
     94 H94        25.0620  -25.2889  -37.4251 H         1 UNK         0.0786 
     95 H95        25.3865  -27.0354  -41.1149 H         1 UNK         0.3172 
     96 H96        27.8620  -28.5563  -41.4030 H         1 UNK         0.0595 
     97 H97        25.9150  -27.4872  -43.5157 H         1 UNK         0.0839 
     98 H98        27.4977  -28.1788  -43.8351 H         1 UNK         0.0839 
     99 H99        27.3672  -26.6775  -42.9337 H         1 UNK         0.0839 
    100 H100       24.4080  -29.0981  -42.2614 H         1 UNK         0.2998 
    101 H101       24.6856  -32.0012  -41.8335 H         1 UNK         0.0822 
    102 H102       25.1471  -31.8038  -44.2572 H         1 UNK         0.0787 
    103 H103       23.5350  -32.4643  -44.0247 H         1 UNK         0.0787 
    104 H104       23.7336  -30.7796  -44.4852 H         1 UNK         0.0787 
    105 H105       23.5918  -31.2562  -39.9201 H         1 UNK         0.3055 
    106 H106       20.9889  -29.9887  -40.0708 H         1 UNK         0.1106 
    107 H107       22.4342  -31.3355  -37.7208 H         1 UNK         0.0828 
    108 H108       21.0412  -30.2714  -37.6022 H         1 UNK         0.0828 
    109 H109       22.5772  -29.6361  -38.1617 H         1 UNK         0.0828 
    110 H110       21.8714  -33.1709  -40.6872 H         1 UNK         0.2931 
    111 H111       20.8478  -35.0949  -40.9421 H         1 UNK         0.0412 
    112 H112       21.5231  -34.1110  -38.0611 H         1 UNK         0.3472 
    113 H113       20.7433  -35.3369  -37.0927 H         1 UNK         0.3472 
    114 H114       18.1536  -33.6907  -40.5861 H         1 UNK         0.0970 
    115 H115       18.3747  -35.3076  -41.1745 H         1 UNK         0.0970 
    116 H116       17.5040  -32.0307  -42.1632 H         1 UNK         0.0612 
    117 H117       19.1601  -31.4726  -42.1263 H         1 UNK         0.0612 
@<TRIPOS>BOND
     1    1    2 1    
     2    1   62 1    
     3    1   63 1    
     4    1   64 1    
     5    2    3 2    
     6    2    4 am   BACKBONE|DICT|INTERRES
     7    4    5 1    
     8    4   65 1    
     9    5    6 1    
    10    5   25 1    
    11    5   66 1    
    12    6    7 1    
    13    6   67 1    
    14    6   68 1    
    15    7    8 1    
    16    8    9 1    
    17    8   69 1    
    18    8   70 1    
    19    9   10 ar   
    20    9   14 ar   
    21   10   11 ar   
    22   10   71 1    
    23   11   12 ar   
    24   11   61 1    
    25   12   13 ar   
    26   12   72 1    
    27   13   14 ar   
    28   13   15 1    
    29   14   73 1    
    30   15   16 1    
    31   15   74 1    
    32   15   75 1    
    33   16   17 1    
    34   17   18 1    
    35   17   76 1    
    36   17   77 1    
    37   18   19 1    
    38   18   27 1    
    39   18   78 1    
    40   19   20 am   BACKBONE|DICT|INTERRES
    41   19   79 1    
    42   20   21 2    
    43   20   22 1    
    44   22   23 1    
    45   22   24 1    
    46   22   80 1    
    47   23   81 1    
    48   23   82 1    
    49   23   83 1    
    50   24   25 am   BACKBONE|DICT|INTERRES
    51   24   84 1    
    52   25   26 2    
    53   27   28 2    
    54   27   29 am   BACKBONE|DICT|INTERRES
    55   29   30 1    
    56   29   85 1    
    57   30   31 1    
    58   30   32 1    
    59   30   86 1    
    60   31   87 1    
    61   31   88 1    
    62   31   89 1    
    63   32   33 2    
    64   32   34 am   BACKBONE|DICT|INTERRES
    65   34   35 1    
    66   34   90 1    
    67   35   36 1    
    68   35   37 1    
    69   35   91 1    
    70   36   92 1    
    71   36   93 1    
    72   36   94 1    
    73   37   38 2    
    74   37   39 am   BACKBONE|DICT|INTERRES
    75   39   40 1    
    76   39   95 1    
    77   40   41 1    
    78   40   42 1    
    79   40   96 1    
    80   41   97 1    
    81   41   98 1    
    82   41   99 1    
    83   42   43 2    
    84   42   44 am   BACKBONE|DICT|INTERRES
    85   44   45 1    
    86   44  100 1    
    87   45   46 1    
    88   45   47 1    
    89   45  101 1    
    90   46  102 1    
    91   46  103 1    
    92   46  104 1    
    93   47   48 2    
    94   47   49 am   BACKBONE|DICT|INTERRES
    95   49   50 1    
    96   49  105 1    
    97   50   51 1    
    98   50   52 1    
    99   50  106 1    
   100   51  107 1    
   101   51  108 1    
   102   51  109 1    
   103   52   53 2    
   104   52   54 am   BACKBONE|DICT|INTERRES
   105   54   55 1    
   106   54  110 1    
   107   55   56 1    
   108   55   59 1    
   109   55  111 1    
   110   56   57 am   BACKBONE|DICT|INTERRES
   111   56   58 2    
   112   57  112 1    
   113   57  113 1    
   114   59   60 1    
   115   59  114 1    
   116   59  115 1    
   117   60   61 1    
   118   61  116 1    
   119   61  117 1    
@<TRIPOS>SUBSTRUCTURE
     1 UNK         1 GROUP             0       ****    0 ROOT    
