@<TRIPOS>MOLECULE
3R8
117   119    1
SMALL
USER_CHARGES


@<TRIPOS>ATOM
      1 CA         19.5350  -25.4834  -38.7461 C.3       0 UNK        -0.2013 
      2 C          19.3574  -25.3720  -40.2527 C.2       0 UNK         0.4866 
      3 O          19.4105  -24.2680  -40.7947 O.2       0 UNK        -0.5176 
      4 N          19.1274  -26.5042  -40.9280 N.am      1 UNK        -0.4884 
      5 CA         18.8834  -26.5871  -42.3709 C.3       1 UNK         0.0853 
      6 C6         18.3102  -27.9643  -42.7857 C.3       10 UNK        -0.0849 
      7 S7         16.8393  -28.4597  -41.8177 S.3       10 UNK        -0.2776 
      8 C8         15.7519  -29.2004  -43.0815 C.3       10 UNK         0.0316 
      9 C9         16.4775  -30.2204  -43.9499 C.ar      10 UNK        -0.0863 
     10 C10        16.9906  -31.3963  -43.3923 C.ar      10 UNK        -0.1009 
     11 C11        17.7013  -32.3057  -44.1831 C.ar      10 UNK        -0.0712 
     12 C12        17.8747  -32.0413  -45.5452 C.ar      10 UNK        -0.0894 
     13 C13        17.3758  -30.8647  -46.1098 C.ar      10 UNK        -0.0745 
     14 C14        16.6643  -29.9663  -45.3116 C.ar      10 UNK        -0.0972 
     15 C15        17.6510  -30.5377  -47.5697 C.3       10 UNK         0.0209 
     16 S16        18.8221  -29.1507  -47.7390 S.3       10 UNK        -0.2568 
     17 C17        20.2896  -29.8003  -46.8684 C.3       10 UNK        -0.0983 
     18 CA         21.4279  -28.7569  -46.7711 C.3       3 UNK         0.0876 
     19 N          20.9956  -27.5407  -46.0695 N.am      3 UNK        -0.4424 
     20 C          21.6378  -26.3648  -46.0958 C.2       2 UNK         0.4918 
     21 O          22.6506  -26.1611  -46.7658 O.2       2 UNK        -0.4875 
     22 CA         21.0572  -25.2139  -45.2494 C.3       2 UNK         0.0481 
     23 CB         20.5340  -24.0904  -46.1600 C.3       2 UNK        -0.1831 
     24 N          19.9844  -25.6158  -44.3313 N.am      2 UNK        -0.4498 
     25 C          20.1612  -26.2800  -43.1802 C.2       1 UNK         0.5027 
     26 O          21.2574  -26.6810  -42.7806 O.2       1 UNK        -0.4969 
     27 C          22.6889  -29.3912  -46.1405 C.2       3 UNK         0.5005 
     28 O          23.3725  -30.1644  -46.8142 O.2       3 UNK        -0.5279 
     29 N          22.9810  -29.0502  -44.8793 N.am      4 UNK        -0.4463 
     30 CA         24.2064  -29.3879  -44.1601 C.3       4 UNK         0.0283 
     31 CB         23.8811  -30.4164  -43.0605 C.3       4 UNK        -0.1875 
     32 C          24.8011  -28.0912  -43.5867 C.2       4 UNK         0.4949 
     33 O          24.3239  -26.9976  -43.9011 O.2       4 UNK        -0.5039 
     34 N          25.8339  -28.2173  -42.7452 N.am      5 UNK        -0.4663 
     35 CA         26.5178  -27.1051  -42.0749 C.3       5 UNK         0.0242 
     36 CB         27.9009  -27.5910  -41.6009 C.3       5 UNK        -0.1982 
     37 C          25.6763  -26.4977  -40.9309 C.2       5 UNK         0.5017 
     38 O          26.0947  -26.5442  -39.7728 O.2       5 UNK        -0.5012 
     39 N          24.5012  -25.9555  -41.2858 N.am      6 UNK        -0.4439 
     40 CA         23.4757  -25.3697  -40.4146 C.3       6 UNK         0.0297 
     41 CB         23.9806  -24.0597  -39.7736 C.3       6 UNK        -0.2006 
     42 C          22.9565  -26.3875  -39.3826 C.2       6 UNK         0.4892 
     43 O          23.0248  -26.1415  -38.1766 O.2       6 UNK        -0.5089 
     44 N          22.4605  -27.5241  -39.8818 N.am      7 UNK        -0.4243 
     45 CA         21.9596  -28.6403  -39.0867 C.3       7 UNK         0.0196 
     46 CB         23.1306  -29.5473  -38.6671 C.3       7 UNK        -0.2007 
     47 C          20.9490  -29.4224  -39.9245 C.2       7 UNK         0.5020 
     48 O          21.0776  -29.4674  -41.1480 O.2       7 UNK        -0.5147 
     49 N          19.9838  -30.0693  -39.2632 N.am      8 UNK        -0.4734 
     50 CA         18.9845  -30.9382  -39.8956 C.3       8 UNK         0.0238 
     51 CB         17.7194  -30.9739  -39.0181 C.3       8 UNK        -0.1912 
     52 C          19.5526  -32.3410  -40.1897 C.2       8 UNK         0.5038 
     53 O          18.9918  -33.3416  -39.7382 O.2       8 UNK        -0.5046 
     54 N          20.6628  -32.3755  -40.9366 N.am      9 UNK        -0.4200 
     55 CA         21.4373  -33.5677  -41.3164 C.3       9 UNK         0.0839 
     56 C          22.0660  -34.3038  -40.0924 C.2       9 UNK         0.5513 
     57 N          22.4703  -35.5597  -40.2342 N.am      9 UNK        -0.7519 
     58 O          22.2486  -33.7288  -39.0208 O.2       9 UNK        -0.4960 
     59 C59        20.6629  -34.4998  -42.2965 C.3       10 UNK        -0.0876 
     60 S60        20.1127  -33.6090  -43.7917 S.3       10 UNK        -0.2414 
     61 C61        18.3040  -33.5589  -43.5635 C.3       10 UNK         0.0169 
     62 H62        18.6822  -25.0364  -38.2360 H         1 UNK         0.0903 
     63 H63        19.6206  -26.5195  -38.4204 H         1 UNK         0.0903 
     64 H64        20.4330  -24.9531  -38.4306 H         1 UNK         0.0903 
     65 H65        19.0867  -27.3865  -40.4404 H         1 UNK         0.3096 
     66 H66        18.1376  -25.8258  -42.6113 H         1 UNK         0.1121 
     67 H67        18.0470  -27.9418  -43.8442 H         1 UNK         0.0849 
     68 H68        19.0607  -28.7498  -42.6800 H         1 UNK         0.0849 
     69 H69        14.9093  -29.6845  -42.5859 H         1 UNK         0.0865 
     70 H70        15.3283  -28.4012  -43.6917 H         1 UNK         0.0865 
     71 H71        16.8551  -31.5873  -42.3366 H         1 UNK         0.1346 
     72 H72        18.4358  -32.7358  -46.1555 H         1 UNK         0.1412 
     73 H73        16.2885  -29.0511  -45.7491 H         1 UNK         0.1426 
     74 H74        16.7149  -30.2765  -48.0653 H         1 UNK         0.0716 
     75 H75        18.0472  -31.4069  -48.0970 H         1 UNK         0.0716 
     76 H76        20.6265  -30.6927  -47.3999 H         1 UNK         0.0695 
     77 H77        20.0001  -30.1264  -45.8678 H         1 UNK         0.0695 
     78 H78        21.7046  -28.4689  -47.7879 H         1 UNK         0.0983 
     79 H79        20.1461  -27.6146  -45.5321 H         1 UNK         0.3095 
     80 H80        21.8793  -24.8108  -44.6538 H         1 UNK         0.0454 
     81 H81        21.3183  -23.7292  -46.8269 H         1 UNK         0.0851 
     82 H82        20.1901  -23.2347  -45.5789 H         1 UNK         0.0851 
     83 H83        19.7069  -24.4287  -46.7853 H         1 UNK         0.0851 
     84 H84        19.0500  -25.3335  -44.5926 H         1 UNK         0.2976 
     85 H85        22.4129  -28.3409  -44.4319 H         1 UNK         0.3116 
     86 H86        24.9440  -29.8134  -44.8434 H         1 UNK         0.0646 
     87 H87        24.7888  -30.8364  -42.6269 H         1 UNK         0.0847 
     88 H88        23.3004  -31.2506  -43.4548 H         1 UNK         0.0847 
     89 H89        23.3106  -29.9676  -42.2488 H         1 UNK         0.0847 
     90 H90        26.1612  -29.1449  -42.5162 H         1 UNK         0.3040 
     91 H91        26.6824  -26.3085  -42.8045 H         1 UNK         0.1015 
     92 H92        28.4580  -26.7819  -41.1264 H         1 UNK         0.0786 
     93 H93        28.5039  -27.9486  -42.4358 H         1 UNK         0.0786 
     94 H94        27.8187  -28.4006  -40.8744 H         1 UNK         0.0786 
     95 H95        24.2433  -26.0545  -42.2664 H         1 UNK         0.3172 
     96 H96        22.6302  -25.1150  -41.0550 H         1 UNK         0.0595 
     97 H97        24.8162  -24.2333  -39.0949 H         1 UNK         0.0839 
     98 H98        23.1887  -23.5800  -39.1969 H         1 UNK         0.0839 
     99 H99        24.3061  -23.3472  -40.5314 H         1 UNK         0.0839 
    100 H100       22.3485  -27.6294  -40.8857 H         1 UNK         0.2998 
    101 H101       21.4548  -28.2573  -38.1973 H         1 UNK         0.0822 
    102 H102       23.8467  -29.0092  -38.0455 H         1 UNK         0.0787 
    103 H103       22.7791  -30.4038  -38.0900 H         1 UNK         0.0787 
    104 H104       23.6677  -29.9355  -39.5337 H         1 UNK         0.0787 
    105 H105       19.9729  -30.0349  -38.2533 H         1 UNK         0.3055 
    106 H106       18.7037  -30.5131  -40.8610 H         1 UNK         0.1106 
    107 H107       17.9199  -31.3999  -38.0344 H         1 UNK         0.0828 
    108 H108       17.3080  -29.9744  -38.8763 H         1 UNK         0.0828 
    109 H109       16.9390  -31.5774  -39.4837 H         1 UNK         0.0828 
    110 H110       21.0416  -31.4849  -41.2393 H         1 UNK         0.2931 
    111 H111       22.2958  -33.1728  -41.8607 H         1 UNK         0.0412 
    112 H112       22.3662  -36.0523  -41.1069 H         1 UNK         0.3472 
    113 H113       22.8962  -36.0247  -39.4472 H         1 UNK         0.3472 
    114 H114       21.3020  -35.3140  -42.6397 H         1 UNK         0.0970 
    115 H115       19.8157  -34.9728  -41.7975 H         1 UNK         0.0970 
    116 H116       17.8595  -34.4436  -44.0210 H         1 UNK         0.0612 
    117 H117       18.0632  -33.6039  -42.5009 H         1 UNK         0.0612 
@<TRIPOS>BOND
     1    1    2 1    
     2    1   62 1    
     3    1   63 1    
     4    1   64 1    
     5    2    3 2    
     6    2    4 am   BACKBONE|DICT|INTERRES
     7    4    5 1    
     8    4   65 1    
     9    5    6 1    
    10    5   25 1    
    11    5   66 1    
    12    6    7 1    
    13    6   67 1    
    14    6   68 1    
    15    7    8 1    
    16    8    9 1    
    17    8   69 1    
    18    8   70 1    
    19    9   10 ar   
    20    9   14 ar   
    21   10   11 ar   
    22   10   71 1    
    23   11   12 ar   
    24   11   61 1    
    25   12   13 ar   
    26   12   72 1    
    27   13   14 ar   
    28   13   15 1    
    29   14   73 1    
    30   15   16 1    
    31   15   74 1    
    32   15   75 1    
    33   16   17 1    
    34   17   18 1    
    35   17   76 1    
    36   17   77 1    
    37   18   19 1    
    38   18   27 1    
    39   18   78 1    
    40   19   20 am   BACKBONE|DICT|INTERRES
    41   19   79 1    
    42   20   21 2    
    43   20   22 1    
    44   22   23 1    
    45   22   24 1    
    46   22   80 1    
    47   23   81 1    
    48   23   82 1    
    49   23   83 1    
    50   24   25 am   BACKBONE|DICT|INTERRES
    51   24   84 1    
    52   25   26 2    
    53   27   28 2    
    54   27   29 am   BACKBONE|DICT|INTERRES
    55   29   30 1    
    56   29   85 1    
    57   30   31 1    
    58   30   32 1    
    59   30   86 1    
    60   31   87 1    
    61   31   88 1    
    62   31   89 1    
    63   32   33 2    
    64   32   34 am   BACKBONE|DICT|INTERRES
    65   34   35 1    
    66   34   90 1    
    67   35   36 1    
    68   35   37 1    
    69   35   91 1    
    70   36   92 1    
    71   36   93 1    
    72   36   94 1    
    73   37   38 2    
    74   37   39 am   BACKBONE|DICT|INTERRES
    75   39   40 1    
    76   39   95 1    
    77   40   41 1    
    78   40   42 1    
    79   40   96 1    
    80   41   97 1    
    81   41   98 1    
    82   41   99 1    
    83   42   43 2    
    84   42   44 am   BACKBONE|DICT|INTERRES
    85   44   45 1    
    86   44  100 1    
    87   45   46 1    
    88   45   47 1    
    89   45  101 1    
    90   46  102 1    
    91   46  103 1    
    92   46  104 1    
    93   47   48 2    
    94   47   49 am   BACKBONE|DICT|INTERRES
    95   49   50 1    
    96   49  105 1    
    97   50   51 1    
    98   50   52 1    
    99   50  106 1    
   100   51  107 1    
   101   51  108 1    
   102   51  109 1    
   103   52   53 2    
   104   52   54 am   BACKBONE|DICT|INTERRES
   105   54   55 1    
   106   54  110 1    
   107   55   56 1    
   108   55   59 1    
   109   55  111 1    
   110   56   57 am   BACKBONE|DICT|INTERRES
   111   56   58 2    
   112   57  112 1    
   113   57  113 1    
   114   59   60 1    
   115   59  114 1    
   116   59  115 1    
   117   60   61 1    
   118   61  116 1    
   119   61  117 1    
@<TRIPOS>SUBSTRUCTURE
     1 UNK         1 GROUP             0       ****    0 ROOT    
