@<TRIPOS>MOLECULE
3R8
117   119    1
SMALL
USER_CHARGES


@<TRIPOS>ATOM
      1 CA         11.4864  -24.9060  -43.2920 C.3       0 UNK        -0.2013 
      2 C          12.6785  -24.8329  -44.2343 C.2       0 UNK         0.4866 
      3 O          12.5476  -24.3300  -45.3508 O.2       0 UNK        -0.5176 
      4 N          13.8393  -25.3238  -43.7919 N.am      1 UNK        -0.4884 
      5 CA         15.0951  -25.3370  -44.5406 C.3       1 UNK         0.0853 
      6 C6         15.1405  -26.3810  -45.7007 C.3       10 UNK        -0.0849 
      7 S7         14.3670  -28.0217  -45.4334 S.3       10 UNK        -0.2776 
      8 C8         15.1274  -28.6812  -43.9068 C.3       10 UNK         0.0316 
      9 C9         16.6350  -28.9422  -43.9507 C.ar      10 UNK        -0.0863 
     10 C10        17.3311  -29.0018  -42.7381 C.ar      10 UNK        -0.1009 
     11 C11        18.6979  -29.2893  -42.7082 C.ar      10 UNK        -0.0712 
     12 C12        19.3740  -29.5224  -43.9063 C.ar      10 UNK        -0.0894 
     13 C13        18.7051  -29.4424  -45.1298 C.ar      10 UNK        -0.0745 
     14 C14        17.3343  -29.1621  -45.1459 C.ar      10 UNK        -0.0972 
     15 C15        19.4594  -29.6801  -46.4314 C.3       10 UNK         0.0209 
     16 S16        20.2920  -28.1733  -47.0371 S.3       10 UNK        -0.2568 
     17 C17        21.7930  -28.1078  -45.9961 C.3       10 UNK        -0.0983 
     18 CA         21.9320  -26.8236  -45.1293 C.3       3 UNK         0.0876 
     19 N          20.7793  -26.5621  -44.2700 N.am      3 UNK        -0.4424 
     20 C          19.8123  -25.6762  -44.5141 C.2       2 UNK         0.4918 
     21 O          19.7337  -24.9963  -45.5411 O.2       2 UNK        -0.4875 
     22 CA         18.7590  -25.4967  -43.4168 C.3       2 UNK         0.0481 
     23 CB         19.1170  -24.3263  -42.4842 C.3       2 UNK        -0.1831 
     24 N          17.4850  -25.2566  -44.0801 N.am      2 UNK        -0.4498 
     25 C          16.2728  -25.4688  -43.5612 C.2       1 UNK         0.5027 
     26 O          16.0656  -25.7644  -42.3802 O.2       1 UNK        -0.4969 
     27 C          23.1440  -26.9519  -44.1942 C.2       3 UNK         0.5005 
     28 O          22.9790  -27.3626  -43.0407 O.2       3 UNK        -0.5279 
     29 N          24.3488  -26.6731  -44.7081 N.am      4 UNK        -0.4463 
     30 CA         25.6263  -26.7616  -43.9844 C.3       4 UNK         0.0283 
     31 CB         26.6667  -25.8816  -44.7022 C.3       4 UNK        -0.1875 
     32 C          26.1338  -28.2078  -43.7774 C.2       4 UNK         0.4949 
     33 O          27.3437  -28.4387  -43.7432 O.2       4 UNK        -0.5039 
     34 N          25.2126  -29.1660  -43.6258 N.am      5 UNK        -0.4663 
     35 CA         25.4684  -30.5956  -43.4444 C.3       5 UNK         0.0242 
     36 CB         24.2524  -31.3789  -43.9700 C.3       5 UNK        -0.1982 
     37 C          25.7986  -30.9198  -41.9763 C.2       5 UNK         0.5017 
     38 O          25.0735  -31.6804  -41.3305 O.2       5 UNK        -0.5012 
     39 N          26.8598  -30.2794  -41.4617 N.am      6 UNK        -0.4439 
     40 CA         27.4265  -30.3982  -40.1080 C.3       6 UNK         0.0297 
     41 CB         28.0803  -31.7854  -39.9341 C.3       6 UNK        -0.2006 
     42 C          26.4401  -30.0827  -38.9609 C.2       6 UNK         0.4892 
     43 O          26.6639  -30.5251  -37.8335 O.2       6 UNK        -0.5089 
     44 N          25.3529  -29.3602  -39.2774 N.am      7 UNK        -0.4243 
     45 CA         24.1659  -29.1071  -38.4464 C.3       7 UNK         0.0196 
     46 CB         24.5242  -28.2616  -37.2057 C.3       7 UNK        -0.2007 
     47 C          23.3708  -30.3824  -38.0808 C.2       7 UNK         0.5020 
     48 O          22.5156  -30.3268  -37.1964 O.2       7 UNK        -0.5147 
     49 N          23.6438  -31.4999  -38.7685 N.am      8 UNK        -0.4734 
     50 CA         22.9891  -32.7966  -38.5774 C.3       8 UNK         0.0238 
     51 CB         24.0639  -33.8955  -38.6356 C.3       8 UNK        -0.1912 
     52 C          21.8997  -33.0598  -39.6306 C.2       8 UNK         0.5038 
     53 O          21.1337  -34.0108  -39.4702 O.2       8 UNK        -0.5046 
     54 N          21.8603  -32.2313  -40.6836 N.am      9 UNK        -0.4200 
     55 CA         20.9468  -32.3145  -41.8358 C.3       9 UNK         0.0839 
     56 C          21.2209  -33.5195  -42.7864 C.2       9 UNK         0.5513 
     57 N          22.3802  -34.1633  -42.7169 N.am      9 UNK        -0.7519 
     58 O          20.3862  -33.8597  -43.6205 O.2       9 UNK        -0.4960 
     59 C59        19.4400  -32.1820  -41.4616 C.3       10 UNK        -0.0876 
     60 S60        19.0340  -30.7739  -40.3679 S.3       10 UNK        -0.2414 
     61 C61        19.4529  -29.3235  -41.3868 C.3       10 UNK         0.0169 
     62 H62        11.1087  -23.9050  -43.0854 H         1 UNK         0.0903 
     63 H63        10.6844  -25.4863  -43.7473 H         1 UNK         0.0903 
     64 H64        11.7456  -25.3738  -42.3423 H         1 UNK         0.0903 
     65 H65        13.9293  -25.6798  -42.8478 H         1 UNK         0.3096 
     66 H66        15.2088  -24.3447  -44.9842 H         1 UNK         0.1121 
     67 H67        16.1591  -26.5383  -46.0593 H         1 UNK         0.0849 
     68 H68        14.6181  -25.9487  -46.5553 H         1 UNK         0.0849 
     69 H69        14.6384  -29.6294  -43.6802 H         1 UNK         0.0865 
     70 H70        14.8790  -28.0207  -43.0765 H         1 UNK         0.0865 
     71 H71        16.8074  -28.8281  -41.8077 H         1 UNK         0.1346 
     72 H72        20.4280  -29.7527  -43.8846 H         1 UNK         0.1412 
     73 H73        16.8161  -29.1262  -46.0937 H         1 UNK         0.1426 
     74 H74        18.7663  -30.0227  -47.2012 H         1 UNK         0.0716 
     75 H75        20.1872  -30.4835  -46.3073 H         1 UNK         0.0716 
     76 H76        22.6463  -28.1827  -46.6726 H         1 UNK         0.0695 
     77 H77        21.8447  -29.0043  -45.3788 H         1 UNK         0.0695 
     78 H78        22.0998  -25.9654  -45.7841 H         1 UNK         0.0983 
     79 H79        20.8256  -27.0249  -43.3720 H         1 UNK         0.3095 
     80 H80        18.6916  -26.4168  -42.8343 H         1 UNK         0.0454 
     81 H81        19.1804  -23.3833  -43.0286 H         1 UNK         0.0851 
     82 H82        20.0814  -24.4921  -42.0025 H         1 UNK         0.0851 
     83 H83        18.3773  -24.2070  -41.6927 H         1 UNK         0.0851 
     84 H84        17.5824  -25.0165  -45.0594 H         1 UNK         0.2976 
     85 H85        24.4081  -26.3928  -45.6774 H         1 UNK         0.3116 
     86 H86        25.4776  -26.3436  -42.9865 H         1 UNK         0.0646 
     87 H87        26.8972  -26.2615  -45.6982 H         1 UNK         0.0847 
     88 H88        27.6032  -25.8427  -44.1440 H         1 UNK         0.0847 
     89 H89        26.3166  -24.8544  -44.8058 H         1 UNK         0.0847 
     90 H90        24.2485  -28.8606  -43.5523 H         1 UNK         0.3040 
     91 H91        26.3359  -30.8847  -44.0422 H         1 UNK         0.1015 
     92 H92        23.3447  -31.1266  -43.4233 H         1 UNK         0.0786 
     93 H93        24.4089  -32.4540  -43.8737 H         1 UNK         0.0786 
     94 H94        24.0744  -31.1733  -45.0257 H         1 UNK         0.0786 
     95 H95        27.3404  -29.6377  -42.0867 H         1 UNK         0.3172 
     96 H96        28.2151  -29.6474  -40.0419 H         1 UNK         0.0595 
     97 H97        28.6303  -31.8483  -38.9943 H         1 UNK         0.0839 
     98 H98        28.7902  -31.9937  -40.7344 H         1 UNK         0.0839 
     99 H99        27.3366  -32.5833  -39.9291 H         1 UNK         0.0839 
    100 H100       25.2817  -29.0467  -40.2352 H         1 UNK         0.2998 
    101 H101       23.4935  -28.5100  -39.0644 H         1 UNK         0.0822 
    102 H102       23.6251  -27.9359  -36.6812 H         1 UNK         0.0787 
    103 H103       25.1280  -28.8226  -36.4919 H         1 UNK         0.0787 
    104 H104       25.0778  -27.3646  -37.4828 H         1 UNK         0.0787 
    105 H105       24.3472  -31.4630  -39.5011 H         1 UNK         0.3055 
    106 H106       22.5093  -32.8355  -37.5968 H         1 UNK         0.1106 
    107 H107       23.6264  -34.8818  -38.4747 H         1 UNK         0.0828 
    108 H108       24.5701  -33.9155  -39.6017 H         1 UNK         0.0828 
    109 H109       24.8213  -33.7482  -37.8654 H         1 UNK         0.0828 
    110 H110       22.5617  -31.5077  -40.7305 H         1 UNK         0.2931 
    111 H111       21.1955  -31.4446  -42.4407 H         1 UNK         0.0412 
    112 H112       23.0829  -33.8797  -42.0528 H         1 UNK         0.3472 
    113 H113       22.5535  -34.9365  -43.3396 H         1 UNK         0.3472 
    114 H114       19.0970  -33.0922  -40.9673 H         1 UNK         0.0970 
    115 H115       18.8312  -32.0940  -42.3632 H         1 UNK         0.0970 
    116 H116       20.5311  -29.2999  -41.5516 H         1 UNK         0.0612 
    117 H117       19.2169  -28.4218  -40.8200 H         1 UNK         0.0612 
@<TRIPOS>BOND
     1    1    2 1    
     2    1   62 1    
     3    1   63 1    
     4    1   64 1    
     5    2    3 2    
     6    2    4 am   BACKBONE|DICT|INTERRES
     7    4    5 1    
     8    4   65 1    
     9    5    6 1    
    10    5   25 1    
    11    5   66 1    
    12    6    7 1    
    13    6   67 1    
    14    6   68 1    
    15    7    8 1    
    16    8    9 1    
    17    8   69 1    
    18    8   70 1    
    19    9   10 ar   
    20    9   14 ar   
    21   10   11 ar   
    22   10   71 1    
    23   11   12 ar   
    24   11   61 1    
    25   12   13 ar   
    26   12   72 1    
    27   13   14 ar   
    28   13   15 1    
    29   14   73 1    
    30   15   16 1    
    31   15   74 1    
    32   15   75 1    
    33   16   17 1    
    34   17   18 1    
    35   17   76 1    
    36   17   77 1    
    37   18   19 1    
    38   18   27 1    
    39   18   78 1    
    40   19   20 am   BACKBONE|DICT|INTERRES
    41   19   79 1    
    42   20   21 2    
    43   20   22 1    
    44   22   23 1    
    45   22   24 1    
    46   22   80 1    
    47   23   81 1    
    48   23   82 1    
    49   23   83 1    
    50   24   25 am   BACKBONE|DICT|INTERRES
    51   24   84 1    
    52   25   26 2    
    53   27   28 2    
    54   27   29 am   BACKBONE|DICT|INTERRES
    55   29   30 1    
    56   29   85 1    
    57   30   31 1    
    58   30   32 1    
    59   30   86 1    
    60   31   87 1    
    61   31   88 1    
    62   31   89 1    
    63   32   33 2    
    64   32   34 am   BACKBONE|DICT|INTERRES
    65   34   35 1    
    66   34   90 1    
    67   35   36 1    
    68   35   37 1    
    69   35   91 1    
    70   36   92 1    
    71   36   93 1    
    72   36   94 1    
    73   37   38 2    
    74   37   39 am   BACKBONE|DICT|INTERRES
    75   39   40 1    
    76   39   95 1    
    77   40   41 1    
    78   40   42 1    
    79   40   96 1    
    80   41   97 1    
    81   41   98 1    
    82   41   99 1    
    83   42   43 2    
    84   42   44 am   BACKBONE|DICT|INTERRES
    85   44   45 1    
    86   44  100 1    
    87   45   46 1    
    88   45   47 1    
    89   45  101 1    
    90   46  102 1    
    91   46  103 1    
    92   46  104 1    
    93   47   48 2    
    94   47   49 am   BACKBONE|DICT|INTERRES
    95   49   50 1    
    96   49  105 1    
    97   50   51 1    
    98   50   52 1    
    99   50  106 1    
   100   51  107 1    
   101   51  108 1    
   102   51  109 1    
   103   52   53 2    
   104   52   54 am   BACKBONE|DICT|INTERRES
   105   54   55 1    
   106   54  110 1    
   107   55   56 1    
   108   55   59 1    
   109   55  111 1    
   110   56   57 am   BACKBONE|DICT|INTERRES
   111   56   58 2    
   112   57  112 1    
   113   57  113 1    
   114   59   60 1    
   115   59  114 1    
   116   59  115 1    
   117   60   61 1    
   118   61  116 1    
   119   61  117 1    
@<TRIPOS>SUBSTRUCTURE
     1 UNK         1 GROUP             0       ****    0 ROOT    
