@<TRIPOS>MOLECULE
3R8
117   119    1
SMALL
USER_CHARGES


@<TRIPOS>ATOM
      1 CA         16.8614  -22.6863  -47.1368 C.3       0 UNK        -0.2013 
      2 C          18.1208  -23.3230  -46.5688 C.2       0 UNK         0.4866 
      3 O          19.1497  -22.6553  -46.4628 O.2       0 UNK        -0.5176 
      4 N          18.0486  -24.6107  -46.2062 N.am      1 UNK        -0.4884 
      5 CA         19.1621  -25.3908  -45.6500 C.3       1 UNK         0.0853 
      6 C6         18.8182  -26.8975  -45.5567 C.3       10 UNK        -0.0849 
      7 S7         18.4812  -27.6909  -47.1587 S.3       10 UNK        -0.2776 
      8 C8         17.3923  -29.0632  -46.6383 C.3       10 UNK         0.0316 
      9 C9         17.9573  -29.8590  -45.4639 C.ar      10 UNK        -0.0863 
     10 C10        19.1662  -30.5507  -45.5977 C.ar      10 UNK        -0.1009 
     11 C11        19.6903  -31.2747  -44.5235 C.ar      10 UNK        -0.0712 
     12 C12        18.9866  -31.3205  -43.3185 C.ar      10 UNK        -0.0894 
     13 C13        17.7768  -30.6387  -43.1664 C.ar      10 UNK        -0.0745 
     14 C14        17.2693  -29.9045  -44.2440 C.ar      10 UNK        -0.0972 
     15 C15        17.0021  -30.7359  -41.8546 C.3       10 UNK         0.0209 
     16 S16        18.0190  -30.3577  -40.3842 S.3       10 UNK        -0.2568 
     17 C17        18.1005  -28.5380  -40.4350 C.3       10 UNK        -0.0983 
     18 CA         19.3215  -28.0117  -41.2306 C.3       3 UNK         0.0876 
     19 N          19.1119  -26.6654  -41.7694 N.am      3 UNK        -0.4424 
     20 C          18.8877  -25.5115  -41.1249 C.2       2 UNK         0.4918 
     21 O          18.8490  -25.4156  -39.8978 O.2       2 UNK        -0.4875 
     22 CA         18.6503  -24.2488  -41.9862 C.3       2 UNK         0.0481 
     23 CB         19.6543  -23.1315  -41.6400 C.3       2 UNK        -0.1831 
     24 N          18.5974  -24.4975  -43.4379 N.am      2 UNK        -0.4498 
     25 C          19.5844  -24.9226  -44.2443 C.2       1 UNK         0.5027 
     26 O          20.7519  -25.0683  -43.8852 O.2       1 UNK        -0.4969 
     27 C          20.6580  -28.1582  -40.4755 C.2       3 UNK         0.5005 
     28 O          21.4837  -28.9856  -40.8642 O.2       3 UNK        -0.5279 
     29 N          20.8787  -27.3238  -39.4514 N.am      4 UNK        -0.4463 
     30 CA         22.1082  -27.2700  -38.6569 C.3       4 UNK         0.0283 
     31 CB         21.9031  -26.3426  -37.4491 C.3       4 UNK        -0.1875 
     32 C          23.3273  -26.8281  -39.4819 C.2       4 UNK         0.4949 
     33 O          24.3958  -27.4233  -39.3493 O.2       4 UNK        -0.5039 
     34 N          23.1351  -25.8336  -40.3616 N.am      5 UNK        -0.4663 
     35 CA         24.1600  -25.3472  -41.2948 C.3       5 UNK         0.0242 
     36 CB         23.7118  -24.0071  -41.8975 C.3       5 UNK        -0.1982 
     37 C          24.4920  -26.3575  -42.4091 C.2       5 UNK         0.5017 
     38 O          25.5974  -26.3191  -42.9490 O.2       5 UNK        -0.5012 
     39 N          23.5447  -27.2577  -42.7046 N.am      6 UNK        -0.4439 
     40 CA         23.7013  -28.3906  -43.6185 C.3       6 UNK         0.0297 
     41 CB         22.3544  -28.6507  -44.3130 C.3       6 UNK        -0.2006 
     42 C          24.2272  -29.6572  -42.9095 C.2       6 UNK         0.4892 
     43 O          24.3324  -30.6999  -43.5562 O.2       6 UNK        -0.5089 
     44 N          24.5472  -29.5488  -41.6088 N.am      7 UNK        -0.4243 
     45 CA         25.0861  -30.5847  -40.7216 C.3       7 UNK         0.0196 
     46 CB         26.4951  -31.0202  -41.1786 C.3       7 UNK        -0.2007 
     47 C          24.1321  -31.7740  -40.5019 C.2       7 UNK         0.5020 
     48 O          24.5984  -32.8992  -40.3182 O.2       7 UNK        -0.5147 
     49 N          22.8156  -31.5163  -40.5282 N.am      8 UNK        -0.4734 
     50 CA         21.6866  -32.4324  -40.2902 C.3       8 UNK         0.0238 
     51 CB         21.7169  -32.9819  -38.8510 C.3       8 UNK        -0.1912 
     52 C          21.5025  -33.5759  -41.3101 C.2       8 UNK         0.5038 
     53 O          20.3714  -34.0336  -41.4643 O.2       8 UNK        -0.5046 
     54 N          22.5861  -34.0067  -41.9685 N.am      9 UNK        -0.4200 
     55 CA         22.7286  -34.9830  -43.0683 C.3       9 UNK         0.0839 
     56 C          22.0832  -36.3960  -42.9185 C.2       9 UNK         0.5513 
     57 N          21.2966  -36.6790  -41.8912 N.am      9 UNK        -0.7519 
     58 O          22.3474  -37.2757  -43.7347 O.2       9 UNK        -0.4960 
     59 C59        22.5105  -34.3540  -44.4753 C.3       10 UNK        -0.0876 
     60 S60        20.8084  -33.7880  -44.8175 S.3       10 UNK        -0.2414 
     61 C61        21.0247  -31.9916  -44.6438 C.3       10 UNK         0.0169 
     62 H62        16.0300  -23.3900  -47.1771 H         1 UNK         0.0903 
     63 H63        16.5590  -21.8391  -46.5217 H         1 UNK         0.0903 
     64 H64        17.0476  -22.3241  -48.1476 H         1 UNK         0.0903 
     65 H65        17.1884  -25.1204  -46.3538 H         1 UNK         0.3096 
     66 H66        20.0267  -25.2668  -46.3064 H         1 UNK         0.1121 
     67 H67        17.9512  -27.0435  -44.9089 H         1 UNK         0.0849 
     68 H68        19.6365  -27.4565  -45.0987 H         1 UNK         0.0849 
     69 H69        16.4101  -28.6566  -46.3921 H         1 UNK         0.0865 
     70 H70        17.2393  -29.7345  -47.4843 H         1 UNK         0.0865 
     71 H71        19.7040  -30.5119  -46.5352 H         1 UNK         0.1346 
     72 H72        19.3809  -31.8936  -42.4931 H         1 UNK         0.1412 
     73 H73        16.3303  -29.3784  -44.1370 H         1 UNK         0.1426 
     74 H74        16.1243  -30.0882  -41.8659 H         1 UNK         0.0716 
     75 H75        16.6261  -31.7552  -41.7576 H         1 UNK         0.0716 
     76 H76        18.1014  -28.1559  -39.4126 H         1 UNK         0.0695 
     77 H77        17.1751  -28.1719  -40.8824 H         1 UNK         0.0695 
     78 H78        19.4216  -28.6329  -42.1216 H         1 UNK         0.0983 
     79 H79        19.1718  -26.6025  -42.7731 H         1 UNK         0.3095 
     80 H80        17.6570  -23.8881  -41.7155 H         1 UNK         0.0454 
     81 H81        19.4652  -22.2329  -42.2270 H         1 UNK         0.0851 
     82 H82        20.6843  -23.4364  -41.8175 H         1 UNK         0.0851 
     83 H83        19.5792  -22.8514  -40.5885 H         1 UNK         0.0851 
     84 H84        17.6769  -24.4245  -43.8500 H         1 UNK         0.2976 
     85 H85        20.1567  -26.6363  -39.2494 H         1 UNK         0.3116 
     86 H86        22.3079  -28.2772  -38.2845 H         1 UNK         0.0646 
     87 H87        21.0959  -26.6990  -36.8089 H         1 UNK         0.0847 
     88 H88        22.8040  -26.2957  -36.8357 H         1 UNK         0.0847 
     89 H89        21.6629  -25.3235  -37.7549 H         1 UNK         0.0847 
     90 H90        22.2265  -25.3958  -40.4063 H         1 UNK         0.3040 
     91 H91        25.0780  -25.1759  -40.7277 H         1 UNK         0.1015 
     92 H92        22.8321  -24.1238  -42.5297 H         1 UNK         0.0786 
     93 H93        24.4996  -23.5799  -42.5196 H         1 UNK         0.0786 
     94 H94        23.4799  -23.2759  -41.1229 H         1 UNK         0.0786 
     95 H95        22.6788  -27.2194  -42.1864 H         1 UNK         0.3172 
     96 H96        24.4287  -28.1304  -44.3900 H         1 UNK         0.0595 
     97 H97        21.5933  -28.9955  -43.6125 H         1 UNK         0.0839 
     98 H98        22.4578  -29.4118  -45.0862 H         1 UNK         0.0839 
     99 H99        21.9844  -27.7495  -44.8013 H         1 UNK         0.0839 
    100 H100       24.3957  -28.6528  -41.1620 H         1 UNK         0.2998 
    101 H101       25.1933  -30.1115  -39.7444 H         1 UNK         0.0822 
    102 H102       26.9618  -31.6745  -40.4412 H         1 UNK         0.0787 
    103 H103       26.4644  -31.5653  -42.1225 H         1 UNK         0.0787 
    104 H104       27.1531  -30.1608  -41.3080 H         1 UNK         0.0787 
    105 H105       22.5315  -30.5566  -40.7219 H         1 UNK         0.3055 
    106 H106       20.7948  -31.8096  -40.3802 H         1 UNK         0.1106 
    107 H107       20.8231  -33.5710  -38.6408 H         1 UNK         0.0828 
    108 H108       22.5780  -33.6281  -38.6786 H         1 UNK         0.0828 
    109 H109       21.7499  -32.1743  -38.1198 H         1 UNK         0.0828 
    110 H110       23.4628  -33.6098  -41.6446 H         1 UNK         0.2931 
    111 H111       23.7944  -35.2110  -43.0255 H         1 UNK         0.0412 
    112 H112       20.9022  -37.6017  -41.7990 H         1 UNK         0.3472 
    113 H113       20.9711  -35.9178  -41.3085 H         1 UNK         0.3472 
    114 H114       22.7882  -35.0669  -45.2537 H         1 UNK         0.0970 
    115 H115       23.1988  -33.5169  -44.6052 H         1 UNK         0.0970 
    116 H116       21.5894  -31.6201  -45.4998 H         1 UNK         0.0612 
    117 H117       21.6256  -31.7753  -43.7591 H         1 UNK         0.0612 
@<TRIPOS>BOND
     1    1    2 1    
     2    1   62 1    
     3    1   63 1    
     4    1   64 1    
     5    2    3 2    
     6    2    4 am   BACKBONE|DICT|INTERRES
     7    4    5 1    
     8    4   65 1    
     9    5    6 1    
    10    5   25 1    
    11    5   66 1    
    12    6    7 1    
    13    6   67 1    
    14    6   68 1    
    15    7    8 1    
    16    8    9 1    
    17    8   69 1    
    18    8   70 1    
    19    9   10 ar   
    20    9   14 ar   
    21   10   11 ar   
    22   10   71 1    
    23   11   12 ar   
    24   11   61 1    
    25   12   13 ar   
    26   12   72 1    
    27   13   14 ar   
    28   13   15 1    
    29   14   73 1    
    30   15   16 1    
    31   15   74 1    
    32   15   75 1    
    33   16   17 1    
    34   17   18 1    
    35   17   76 1    
    36   17   77 1    
    37   18   19 1    
    38   18   27 1    
    39   18   78 1    
    40   19   20 am   BACKBONE|DICT|INTERRES
    41   19   79 1    
    42   20   21 2    
    43   20   22 1    
    44   22   23 1    
    45   22   24 1    
    46   22   80 1    
    47   23   81 1    
    48   23   82 1    
    49   23   83 1    
    50   24   25 am   BACKBONE|DICT|INTERRES
    51   24   84 1    
    52   25   26 2    
    53   27   28 2    
    54   27   29 am   BACKBONE|DICT|INTERRES
    55   29   30 1    
    56   29   85 1    
    57   30   31 1    
    58   30   32 1    
    59   30   86 1    
    60   31   87 1    
    61   31   88 1    
    62   31   89 1    
    63   32   33 2    
    64   32   34 am   BACKBONE|DICT|INTERRES
    65   34   35 1    
    66   34   90 1    
    67   35   36 1    
    68   35   37 1    
    69   35   91 1    
    70   36   92 1    
    71   36   93 1    
    72   36   94 1    
    73   37   38 2    
    74   37   39 am   BACKBONE|DICT|INTERRES
    75   39   40 1    
    76   39   95 1    
    77   40   41 1    
    78   40   42 1    
    79   40   96 1    
    80   41   97 1    
    81   41   98 1    
    82   41   99 1    
    83   42   43 2    
    84   42   44 am   BACKBONE|DICT|INTERRES
    85   44   45 1    
    86   44  100 1    
    87   45   46 1    
    88   45   47 1    
    89   45  101 1    
    90   46  102 1    
    91   46  103 1    
    92   46  104 1    
    93   47   48 2    
    94   47   49 am   BACKBONE|DICT|INTERRES
    95   49   50 1    
    96   49  105 1    
    97   50   51 1    
    98   50   52 1    
    99   50  106 1    
   100   51  107 1    
   101   51  108 1    
   102   51  109 1    
   103   52   53 2    
   104   52   54 am   BACKBONE|DICT|INTERRES
   105   54   55 1    
   106   54  110 1    
   107   55   56 1    
   108   55   59 1    
   109   55  111 1    
   110   56   57 am   BACKBONE|DICT|INTERRES
   111   56   58 2    
   112   57  112 1    
   113   57  113 1    
   114   59   60 1    
   115   59  114 1    
   116   59  115 1    
   117   60   61 1    
   118   61  116 1    
   119   61  117 1    
@<TRIPOS>SUBSTRUCTURE
     1 UNK         1 GROUP             0       ****    0 ROOT    
