@<TRIPOS>MOLECULE
3R8
117   119    1
SMALL
USER_CHARGES


@<TRIPOS>ATOM
      1 CA         18.1288  -26.0097  -47.9755 C.3       0 UNK        -0.2013 
      2 C          19.6001  -26.1158  -47.6035 C.2       0 UNK         0.4866 
      3 O          20.4519  -25.5861  -48.3171 O.2       0 UNK        -0.5176 
      4 N          19.8999  -26.7996  -46.4919 N.am      1 UNK        -0.4884 
      5 CA         21.2518  -26.9783  -45.9538 C.3       1 UNK         0.0853 
      6 C6         21.3171  -28.1067  -44.8936 C.3       10 UNK        -0.0849 
      7 S7         21.3858  -29.7601  -45.6522 S.3       10 UNK        -0.2776 
      8 C8         19.6257  -30.2334  -45.7599 C.3       10 UNK         0.0316 
      9 C9         18.9355  -30.3274  -44.4034 C.ar      10 UNK        -0.0863 
     10 C10        19.5104  -31.0563  -43.3587 C.ar      10 UNK        -0.1009 
     11 C11        18.8730  -31.1525  -42.1199 C.ar      10 UNK        -0.0712 
     12 C12        17.6438  -30.5169  -41.9245 C.ar      10 UNK        -0.0894 
     13 C13        17.0524  -29.7902  -42.9632 C.ar      10 UNK        -0.0745 
     14 C14        17.7014  -29.7024  -44.1996 C.ar      10 UNK        -0.0972 
     15 C15        15.7043  -29.1122  -42.7611 C.3       10 UNK         0.0209 
     16 S16        15.8271  -27.2974  -42.8555 S.3       10 UNK        -0.2568 
     17 C17        16.6916  -26.8907  -41.2999 C.3       10 UNK        -0.0983 
     18 CA         18.2239  -26.7365  -41.4701 C.3       3 UNK         0.0876 
     19 N          18.5738  -25.8329  -42.5772 N.am      3 UNK        -0.4424 
     20 C          19.8138  -25.6098  -43.0261 C.2       2 UNK         0.4918 
     21 O          20.8191  -26.0984  -42.5071 O.2       2 UNK        -0.4875 
     22 CA         19.9481  -24.6516  -44.2196 C.3       2 UNK         0.0481 
     23 CB         19.6822  -23.2091  -43.7563 C.3       2 UNK        -0.1831 
     24 N          21.2839  -24.6896  -44.8265 N.am      2 UNK        -0.4498 
     25 C          21.9395  -25.6718  -45.4734 C.2       1 UNK         0.5027 
     26 O          23.1338  -25.5361  -45.7349 O.2       1 UNK        -0.4969 
     27 C          18.8775  -26.3523  -40.1217 C.2       3 UNK         0.5005 
     28 O          19.0655  -27.2254  -39.2754 O.2       3 UNK        -0.5279 
     29 N          19.2320  -25.0685  -39.9529 N.am      4 UNK        -0.4463 
     30 CA         20.0025  -24.5535  -38.8179 C.3       4 UNK         0.0283 
     31 CB         19.8822  -23.0216  -38.7747 C.3       4 UNK        -0.1875 
     32 C          21.4848  -24.9739  -38.8511 C.2       4 UNK         0.4949 
     33 O          22.0798  -25.1471  -37.7874 O.2       4 UNK        -0.5039 
     34 N          22.0549  -25.1311  -40.0556 N.am      5 UNK        -0.4663 
     35 CA         23.4082  -25.6550  -40.2678 C.3       5 UNK         0.0242 
     36 CB         23.9572  -25.1595  -41.6167 C.3       5 UNK        -0.1982 
     37 C          23.4240  -27.1900  -40.2005 C.2       5 UNK         0.5017 
     38 O          24.3701  -27.7590  -39.6561 O.2       5 UNK        -0.5012 
     39 N          22.3585  -27.8160  -40.7265 N.am      6 UNK        -0.4439 
     40 CA         22.0254  -29.2434  -40.6349 C.3       6 UNK         0.0297 
     41 CB         21.7480  -29.6303  -39.1638 C.3       6 UNK        -0.2006 
     42 C          23.0543  -30.1798  -41.3035 C.2       6 UNK         0.4892 
     43 O          23.2419  -31.3068  -40.8431 O.2       6 UNK        -0.5089 
     44 N          23.6958  -29.6963  -42.3761 N.am      7 UNK        -0.4243 
     45 CA         24.8404  -30.3168  -43.0513 C.3       7 UNK         0.0196 
     46 CB         25.2720  -29.4239  -44.2266 C.3       7 UNK        -0.2007 
     47 C          24.6380  -31.7676  -43.5271 C.2       7 UNK         0.5020 
     48 O          25.5689  -32.5660  -43.4175 O.2       7 UNK        -0.5147 
     49 N          23.4505  -32.0836  -44.0611 N.am      8 UNK        -0.4734 
     50 CA         23.1434  -33.4064  -44.6187 C.3       8 UNK         0.0238 
     51 CB         22.0418  -33.2759  -45.6835 C.3       8 UNK        -0.1912 
     52 C          22.7459  -34.4612  -43.5708 C.2       8 UNK         0.5038 
     53 O          22.7887  -35.6495  -43.8947 O.2       8 UNK        -0.5046 
     54 N          22.3411  -34.0375  -42.3660 N.am      9 UNK        -0.4200 
     55 CA         21.9060  -34.9430  -41.2895 C.3       9 UNK         0.0839 
     56 C          23.1070  -35.5551  -40.5197 C.2       9 UNK         0.5513 
     57 N          22.9200  -36.7201  -39.9141 N.am      9 UNK        -0.7519 
     58 O          24.1896  -34.9793  -40.4357 O.2       9 UNK        -0.4960 
     59 C59        20.8981  -34.2711  -40.3206 C.3       10 UNK        -0.0876 
     60 S60        19.3812  -33.7116  -41.1761 S.3       10 UNK        -0.2414 
     61 C61        19.5453  -31.9139  -40.9917 C.3       10 UNK         0.0169 
     62 H62        17.9583  -26.4471  -48.9589 H         1 UNK         0.0903 
     63 H63        17.4870  -26.5239  -47.2602 H         1 UNK         0.0903 
     64 H64        17.8261  -24.9635  -48.0109 H         1 UNK         0.0903 
     65 H65        19.1559  -27.2172  -45.9540 H         1 UNK         0.3096 
     66 H66        21.8645  -27.3030  -46.7988 H         1 UNK         0.1121 
     67 H67        22.2131  -28.0102  -44.2789 H         1 UNK         0.0849 
     68 H68        20.4768  -28.0625  -44.2027 H         1 UNK         0.0849 
     69 H69        19.5558  -31.2046  -46.2512 H         1 UNK         0.0865 
     70 H70        19.1101  -29.5295  -46.4138 H         1 UNK         0.0865 
     71 H71        20.4605  -31.5488  -43.5037 H         1 UNK         0.1346 
     72 H72        17.1503  -30.5873  -40.9647 H         1 UNK         0.1412 
     73 H73        17.2372  -29.1451  -45.0019 H         1 UNK         0.1426 
     74 H74        15.2561  -29.3983  -41.8083 H         1 UNK         0.0716 
     75 H75        15.0177  -29.4566  -43.5357 H         1 UNK         0.0716 
     76 H76        16.2579  -25.9637  -40.9198 H         1 UNK         0.0695 
     77 H77        16.4645  -27.6568  -40.5558 H         1 UNK         0.0695 
     78 H78        18.6309  -27.7155  -41.7324 H         1 UNK         0.0983 
     79 H79        17.7904  -25.4075  -43.0524 H         1 UNK         0.3095 
     80 H80        19.1918  -24.9011  -44.9611 H         1 UNK         0.0454 
     81 H81        20.3877  -22.8921  -42.9866 H         1 UNK         0.0851 
     82 H82        19.7589  -22.5069  -44.5869 H         1 UNK         0.0851 
     83 H83        18.6786  -23.0989  -43.3434 H         1 UNK         0.0851 
     84 H84        21.8458  -23.8824  -44.6036 H         1 UNK         0.2976 
     85 H85        19.0077  -24.4135  -40.6873 H         1 UNK         0.3116 
     86 H86        19.5659  -24.9543  -37.9004 H         1 UNK         0.0646 
     87 H87        20.4251  -22.6129  -37.9212 H         1 UNK         0.0847 
     88 H88        18.8433  -22.7066  -38.6751 H         1 UNK         0.0847 
     89 H89        20.2913  -22.5563  -39.6724 H         1 UNK         0.0847 
     90 H90        21.4825  -25.0269  -40.8839 H         1 UNK         0.3040 
     91 H91        24.0625  -25.2790  -39.4775 H         1 UNK         0.1015 
     92 H92        23.9660  -24.0706  -41.6644 H         1 UNK         0.0786 
     93 H93        23.3731  -25.5263  -42.4609 H         1 UNK         0.0786 
     94 H94        24.9838  -25.4977  -41.7640 H         1 UNK         0.0786 
     95 H95        21.6819  -27.2347  -41.2142 H         1 UNK         0.3172 
     96 H96        21.0963  -29.3600  -41.1933 H         1 UNK         0.0595 
     97 H97        20.9874  -28.9883  -38.7211 H         1 UNK         0.0839 
     98 H98        22.6463  -29.5523  -38.5509 H         1 UNK         0.0839 
     99 H99        21.3929  -30.6561  -39.0729 H         1 UNK         0.0839 
    100 H100       23.4649  -28.7580  -42.6645 H         1 UNK         0.2998 
    101 H101       25.6560  -30.3341  -42.3253 H         1 UNK         0.0822 
    102 H102       25.5428  -28.4232  -43.8891 H         1 UNK         0.0787 
    103 H103       26.1444  -29.8394  -44.7331 H         1 UNK         0.0787 
    104 H104       24.4808  -29.3251  -44.9710 H         1 UNK         0.0787 
    105 H105       22.7512  -31.3600  -44.1582 H         1 UNK         0.3055 
    106 H106       24.0375  -33.7852  -45.1201 H         1 UNK         0.1106 
    107 H107       21.8561  -34.2345  -46.1699 H         1 UNK         0.0828 
    108 H108       21.0966  -32.9472  -45.2534 H         1 UNK         0.0828 
    109 H109       22.3242  -32.5710  -46.4655 H         1 UNK         0.0828 
    110 H110       22.4358  -33.0599  -42.1265 H         1 UNK         0.2931 
    111 H111       21.3771  -35.7765  -41.7573 H         1 UNK         0.0412 
    112 H112       22.0366  -37.2034  -39.9720 H         1 UNK         0.3472 
    113 H113       23.6821  -37.1319  -39.3976 H         1 UNK         0.3472 
    114 H114       20.5890  -34.9773  -39.5479 H         1 UNK         0.0970 
    115 H115       21.3717  -33.4429  -39.7898 H         1 UNK         0.0970 
    116 H116       20.6021  -31.6655  -41.0023 H         1 UNK         0.0612 
    117 H117       19.1570  -31.6066  -40.0195 H         1 UNK         0.0612 
@<TRIPOS>BOND
     1    1    2 1    
     2    1   62 1    
     3    1   63 1    
     4    1   64 1    
     5    2    3 2    
     6    2    4 am   BACKBONE|DICT|INTERRES
     7    4    5 1    
     8    4   65 1    
     9    5    6 1    
    10    5   25 1    
    11    5   66 1    
    12    6    7 1    
    13    6   67 1    
    14    6   68 1    
    15    7    8 1    
    16    8    9 1    
    17    8   69 1    
    18    8   70 1    
    19    9   10 ar   
    20    9   14 ar   
    21   10   11 ar   
    22   10   71 1    
    23   11   12 ar   
    24   11   61 1    
    25   12   13 ar   
    26   12   72 1    
    27   13   14 ar   
    28   13   15 1    
    29   14   73 1    
    30   15   16 1    
    31   15   74 1    
    32   15   75 1    
    33   16   17 1    
    34   17   18 1    
    35   17   76 1    
    36   17   77 1    
    37   18   19 1    
    38   18   27 1    
    39   18   78 1    
    40   19   20 am   BACKBONE|DICT|INTERRES
    41   19   79 1    
    42   20   21 2    
    43   20   22 1    
    44   22   23 1    
    45   22   24 1    
    46   22   80 1    
    47   23   81 1    
    48   23   82 1    
    49   23   83 1    
    50   24   25 am   BACKBONE|DICT|INTERRES
    51   24   84 1    
    52   25   26 2    
    53   27   28 2    
    54   27   29 am   BACKBONE|DICT|INTERRES
    55   29   30 1    
    56   29   85 1    
    57   30   31 1    
    58   30   32 1    
    59   30   86 1    
    60   31   87 1    
    61   31   88 1    
    62   31   89 1    
    63   32   33 2    
    64   32   34 am   BACKBONE|DICT|INTERRES
    65   34   35 1    
    66   34   90 1    
    67   35   36 1    
    68   35   37 1    
    69   35   91 1    
    70   36   92 1    
    71   36   93 1    
    72   36   94 1    
    73   37   38 2    
    74   37   39 am   BACKBONE|DICT|INTERRES
    75   39   40 1    
    76   39   95 1    
    77   40   41 1    
    78   40   42 1    
    79   40   96 1    
    80   41   97 1    
    81   41   98 1    
    82   41   99 1    
    83   42   43 2    
    84   42   44 am   BACKBONE|DICT|INTERRES
    85   44   45 1    
    86   44  100 1    
    87   45   46 1    
    88   45   47 1    
    89   45  101 1    
    90   46  102 1    
    91   46  103 1    
    92   46  104 1    
    93   47   48 2    
    94   47   49 am   BACKBONE|DICT|INTERRES
    95   49   50 1    
    96   49  105 1    
    97   50   51 1    
    98   50   52 1    
    99   50  106 1    
   100   51  107 1    
   101   51  108 1    
   102   51  109 1    
   103   52   53 2    
   104   52   54 am   BACKBONE|DICT|INTERRES
   105   54   55 1    
   106   54  110 1    
   107   55   56 1    
   108   55   59 1    
   109   55  111 1    
   110   56   57 am   BACKBONE|DICT|INTERRES
   111   56   58 2    
   112   57  112 1    
   113   57  113 1    
   114   59   60 1    
   115   59  114 1    
   116   59  115 1    
   117   60   61 1    
   118   61  116 1    
   119   61  117 1    
@<TRIPOS>SUBSTRUCTURE
     1 UNK         1 GROUP             0       ****    0 ROOT    
