@<TRIPOS>MOLECULE
3R8
117   119    1
SMALL
USER_CHARGES


@<TRIPOS>ATOM
      1 CA         12.4989  -24.2802  -45.8272 C.3       0 UNK        -0.2013 
      2 C          14.0020  -24.5006  -45.9099 C.2       0 UNK         0.4866 
      3 O          14.7697  -23.5467  -45.7766 O.2       0 UNK        -0.5176 
      4 N          14.4283  -25.7484  -46.1379 N.am      1 UNK        -0.4884 
      5 CA         15.8341  -26.1632  -46.1648 C.3       1 UNK         0.0853 
      6 C6         16.0084  -27.5207  -46.8939 C.3       10 UNK        -0.0849 
      7 S7         15.0578  -28.8948  -46.1441 S.3       10 UNK        -0.2776 
      8 C8         16.2179  -30.2940  -46.2550 C.3       10 UNK         0.0316 
      9 C9         17.5248  -30.0608  -45.5061 C.ar      10 UNK        -0.0863 
     10 C10        17.5513  -30.0201  -44.1077 C.ar      10 UNK        -0.1009 
     11 C11        18.7657  -29.8880  -43.4241 C.ar      10 UNK        -0.0712 
     12 C12        19.9533  -29.7875  -44.1525 C.ar      10 UNK        -0.0894 
     13 C13        19.9384  -29.7932  -45.5501 C.ar      10 UNK        -0.0745 
     14 C14        18.7203  -29.9324  -46.2195 C.ar      10 UNK        -0.0972 
     15 C15        21.2331  -29.6878  -46.3446 C.3       10 UNK         0.0209 
     16 S16        21.8016  -27.9650  -46.5179 S.3       10 UNK        -0.2568 
     17 C17        22.6599  -27.6902  -44.9302 C.3       10 UNK        -0.0983 
     18 CA         22.1024  -26.4970  -44.1141 C.3       3 UNK         0.0876 
     19 N          20.6366  -26.5225  -43.9676 N.am      3 UNK        -0.4424 
     20 C          19.9075  -25.4508  -43.6293 C.2       2 UNK         0.4918 
     21 O          20.3709  -24.3131  -43.5354 O.2       2 UNK        -0.4875 
     22 CA         18.4220  -25.6944  -43.3441 C.3       2 UNK         0.0481 
     23 CB         17.8317  -24.6023  -42.4226 C.3       2 UNK        -0.1831 
     24 N          17.6973  -25.7666  -44.6102 N.am      2 UNK        -0.4498 
     25 C          16.4294  -26.1771  -44.7390 C.2       1 UNK         0.5027 
     26 O          15.7348  -26.5564  -43.7912 O.2       1 UNK        -0.4969 
     27 C          22.8258  -26.4070  -42.7478 C.2       3 UNK         0.5005 
     28 O          24.0127  -26.0785  -42.7143 O.2       3 UNK        -0.5279 
     29 N          22.1020  -26.7025  -41.6547 N.am      4 UNK        -0.4463 
     30 CA         22.5432  -26.6989  -40.2575 C.3       4 UNK         0.0283 
     31 CB         22.9238  -25.2701  -39.8044 C.3       4 UNK        -0.1875 
     32 C          23.6293  -27.7590  -39.9965 C.2       4 UNK         0.4949 
     33 O          23.5831  -28.8342  -40.6001 O.2       4 UNK        -0.5039 
     34 N          24.5783  -27.4536  -39.1009 N.am      5 UNK        -0.4663 
     35 CA         25.6452  -28.3435  -38.6233 C.3       5 UNK         0.0242 
     36 CB         26.4244  -27.6283  -37.5073 C.3       5 UNK        -0.1982 
     37 C          26.6111  -28.8623  -39.7055 C.2       5 UNK         0.5017 
     38 O          27.3208  -29.8356  -39.4507 O.2       5 UNK        -0.5012 
     39 N          26.6101  -28.2342  -40.8906 N.am      6 UNK        -0.4439 
     40 CA         27.3234  -28.6997  -42.0825 C.3       6 UNK         0.0297 
     41 CB         27.2760  -27.6082  -43.1634 C.3       6 UNK        -0.2006 
     42 C          26.7740  -30.0288  -42.6375 C.2       6 UNK         0.4892 
     43 O          27.5298  -30.7613  -43.2774 O.2       6 UNK        -0.5089 
     44 N          25.4898  -30.3157  -42.3803 N.am      7 UNK        -0.4243 
     45 CA         24.8261  -31.5708  -42.7351 C.3       7 UNK         0.0196 
     46 CB         23.6274  -31.2721  -43.6452 C.3       7 UNK        -0.2007 
     47 C          24.3636  -32.3310  -41.4853 C.2       7 UNK         0.5020 
     48 O          24.4986  -33.5540  -41.4542 O.2       7 UNK        -0.5147 
     49 N          23.8286  -31.6023  -40.4904 N.am      8 UNK        -0.4734 
     50 CA         23.2593  -32.0963  -39.2293 C.3       8 UNK         0.0238 
     51 CB         24.3703  -32.6590  -38.3170 C.3       8 UNK        -0.1912 
     52 C          22.1044  -33.0898  -39.4679 C.2       8 UNK         0.5038 
     53 O          22.1696  -34.2346  -39.0138 O.2       8 UNK        -0.5046 
     54 N          21.0945  -32.6372  -40.2259 N.am      9 UNK        -0.4200 
     55 CA         19.9299  -33.4315  -40.6459 C.3       9 UNK         0.0839 
     56 C          19.0639  -33.9814  -39.4734 C.2       9 UNK         0.5513 
     57 N          18.3335  -35.0648  -39.7028 N.am      9 UNK        -0.7519 
     58 O          19.0235  -33.4251  -38.3773 O.2       9 UNK        -0.4960 
     59 C59        19.0909  -32.6919  -41.7270 C.3       10 UNK        -0.0876 
     60 S60        18.0642  -31.3049  -41.1134 S.3       10 UNK        -0.2414 
     61 C61        18.8101  -29.8419  -41.9009 C.3       10 UNK         0.0169 
     62 H62        11.9423  -25.2054  -45.9761 H         1 UNK         0.0903 
     63 H63        12.2324  -23.8779  -44.8502 H         1 UNK         0.0903 
     64 H64        12.1814  -23.5674  -46.5879 H         1 UNK         0.0903 
     65 H65        13.7611  -26.5053  -46.1968 H         1 UNK         0.3096 
     66 H66        16.3803  -25.4125  -46.7411 H         1 UNK         0.1121 
     67 H67        17.0668  -27.7766  -46.9491 H         1 UNK         0.0849 
     68 H68        15.6839  -27.4202  -47.9307 H         1 UNK         0.0849 
     69 H69        15.7326  -31.1826  -45.8488 H         1 UNK         0.0865 
     70 H70        16.4068  -30.5107  -47.3076 H         1 UNK         0.0865 
     71 H71        16.6281  -30.1081  -43.5510 H         1 UNK         0.1346 
     72 H72        20.8894  -29.7057  -43.6238 H         1 UNK         0.1412 
     73 H73        18.7062  -29.9594  -47.3008 H         1 UNK         0.1426 
     74 H74        21.0886  -30.1000  -47.3444 H         1 UNK         0.0716 
     75 H75        22.0103  -30.2986  -45.8861 H         1 UNK         0.0716 
     76 H76        23.7131  -27.5175  -45.1603 H         1 UNK         0.0695 
     77 H77        22.6449  -28.6027  -44.3383 H         1 UNK         0.0695 
     78 H78        22.3615  -25.5864  -44.6595 H         1 UNK         0.0983 
     79 H79        20.1798  -27.4118  -44.1163 H         1 UNK         0.3095 
     80 H80        18.3352  -26.6572  -42.8360 H         1 UNK         0.0454 
     81 H81        18.4350  -24.4825  -41.5218 H         1 UNK         0.0851 
     82 H82        16.8222  -24.8487  -42.0949 H         1 UNK         0.0851 
     83 H83        17.7925  -23.6329  -42.9207 H         1 UNK         0.0851 
     84 H84        18.2164  -25.4763  -45.4285 H         1 UNK         0.2976 
     85 H85        21.1494  -26.9991  -41.8026 H         1 UNK         0.3116 
     86 H86        21.6785  -27.0095  -39.6695 H         1 UNK         0.0646 
     87 H87        23.8477  -24.9239  -40.2695 H         1 UNK         0.0847 
     88 H88        23.0528  -25.2138  -38.7230 H         1 UNK         0.0847 
     89 H89        22.1407  -24.5570  -40.0627 H         1 UNK         0.0847 
     90 H90        24.5399  -26.5403  -38.6712 H         1 UNK         0.3040 
     91 H91        25.1626  -29.2237  -38.1927 H         1 UNK         0.1015 
     92 H92        26.9077  -26.7206  -37.8712 H         1 UNK         0.0786 
     93 H93        27.2055  -28.2718  -37.0994 H         1 UNK         0.0786 
     94 H94        25.7715  -27.3539  -36.6784 H         1 UNK         0.0786 
     95 H95        25.9907  -27.4440  -41.0077 H         1 UNK         0.3172 
     96 H96        28.3673  -28.8626  -41.8062 H         1 UNK         0.0595 
     97 H97        26.2550  -27.4070  -43.4900 H         1 UNK         0.0839 
     98 H98        27.8449  -27.9082  -44.0445 H         1 UNK         0.0839 
     99 H99        27.7053  -26.6724  -42.8052 H         1 UNK         0.0839 
    100 H100       24.9515  -29.6570  -41.8279 H         1 UNK         0.2998 
    101 H101       25.5097  -32.2252  -43.2803 H         1 UNK         0.0822 
    102 H102       23.9463  -30.7642  -44.5552 H         1 UNK         0.0787 
    103 H103       23.1208  -32.1912  -43.9432 H         1 UNK         0.0787 
    104 H104       22.8963  -30.6432  -43.1395 H         1 UNK         0.0787 
    105 H105       23.7410  -30.5957  -40.6239 H         1 UNK         0.3055 
    106 H106       22.8247  -31.2334  -38.7214 H         1 UNK         0.1106 
    107 H107       23.9689  -32.9410  -37.3430 H         1 UNK         0.0828 
    108 H108       24.8376  -33.5466  -38.7446 H         1 UNK         0.0828 
    109 H109       25.1533  -31.9205  -38.1446 H         1 UNK         0.0828 
    110 H110       21.1148  -31.6791  -40.5382 H         1 UNK         0.2931 
    111 H111       20.3565  -34.3085  -41.1377 H         1 UNK         0.0412 
    112 H112       17.7556  -35.4315  -38.9623 H         1 UNK         0.3472 
    113 H113       18.3512  -35.5274  -40.5986 H         1 UNK         0.3472 
    114 H114       18.4146  -33.4010  -42.2072 H         1 UNK         0.0970 
    115 H115       19.7452  -32.3446  -42.5275 H         1 UNK         0.0970 
    116 H116       19.8342  -29.7360  -41.5395 H         1 UNK         0.0612 
    117 H117       18.2722  -28.9552  -41.5631 H         1 UNK         0.0612 
@<TRIPOS>BOND
     1    1    2 1    
     2    1   62 1    
     3    1   63 1    
     4    1   64 1    
     5    2    3 2    
     6    2    4 am   BACKBONE|DICT|INTERRES
     7    4    5 1    
     8    4   65 1    
     9    5    6 1    
    10    5   25 1    
    11    5   66 1    
    12    6    7 1    
    13    6   67 1    
    14    6   68 1    
    15    7    8 1    
    16    8    9 1    
    17    8   69 1    
    18    8   70 1    
    19    9   10 ar   
    20    9   14 ar   
    21   10   11 ar   
    22   10   71 1    
    23   11   12 ar   
    24   11   61 1    
    25   12   13 ar   
    26   12   72 1    
    27   13   14 ar   
    28   13   15 1    
    29   14   73 1    
    30   15   16 1    
    31   15   74 1    
    32   15   75 1    
    33   16   17 1    
    34   17   18 1    
    35   17   76 1    
    36   17   77 1    
    37   18   19 1    
    38   18   27 1    
    39   18   78 1    
    40   19   20 am   BACKBONE|DICT|INTERRES
    41   19   79 1    
    42   20   21 2    
    43   20   22 1    
    44   22   23 1    
    45   22   24 1    
    46   22   80 1    
    47   23   81 1    
    48   23   82 1    
    49   23   83 1    
    50   24   25 am   BACKBONE|DICT|INTERRES
    51   24   84 1    
    52   25   26 2    
    53   27   28 2    
    54   27   29 am   BACKBONE|DICT|INTERRES
    55   29   30 1    
    56   29   85 1    
    57   30   31 1    
    58   30   32 1    
    59   30   86 1    
    60   31   87 1    
    61   31   88 1    
    62   31   89 1    
    63   32   33 2    
    64   32   34 am   BACKBONE|DICT|INTERRES
    65   34   35 1    
    66   34   90 1    
    67   35   36 1    
    68   35   37 1    
    69   35   91 1    
    70   36   92 1    
    71   36   93 1    
    72   36   94 1    
    73   37   38 2    
    74   37   39 am   BACKBONE|DICT|INTERRES
    75   39   40 1    
    76   39   95 1    
    77   40   41 1    
    78   40   42 1    
    79   40   96 1    
    80   41   97 1    
    81   41   98 1    
    82   41   99 1    
    83   42   43 2    
    84   42   44 am   BACKBONE|DICT|INTERRES
    85   44   45 1    
    86   44  100 1    
    87   45   46 1    
    88   45   47 1    
    89   45  101 1    
    90   46  102 1    
    91   46  103 1    
    92   46  104 1    
    93   47   48 2    
    94   47   49 am   BACKBONE|DICT|INTERRES
    95   49   50 1    
    96   49  105 1    
    97   50   51 1    
    98   50   52 1    
    99   50  106 1    
   100   51  107 1    
   101   51  108 1    
   102   51  109 1    
   103   52   53 2    
   104   52   54 am   BACKBONE|DICT|INTERRES
   105   54   55 1    
   106   54  110 1    
   107   55   56 1    
   108   55   59 1    
   109   55  111 1    
   110   56   57 am   BACKBONE|DICT|INTERRES
   111   56   58 2    
   112   57  112 1    
   113   57  113 1    
   114   59   60 1    
   115   59  114 1    
   116   59  115 1    
   117   60   61 1    
   118   61  116 1    
   119   61  117 1    
@<TRIPOS>SUBSTRUCTURE
     1 UNK         1 GROUP             0       ****    0 ROOT    
