@<TRIPOS>MOLECULE
3R8
117   119    1
SMALL
USER_CHARGES


@<TRIPOS>ATOM
      1 CA         19.1906  -23.5275  -40.5331 C.3       0 UNK        -0.2013 
      2 C          18.0997  -24.0171  -41.4736 C.2       0 UNK         0.4866 
      3 O          17.1014  -23.3230  -41.6671 O.2       0 UNK        -0.5176 
      4 N          18.2852  -25.2073  -42.0572 N.am      1 UNK        -0.4884 
      5 CA         17.3819  -25.8214  -43.0315 C.3       1 UNK         0.0853 
      6 C6         17.6710  -27.3317  -43.2215 C.3       10 UNK        -0.0849 
      7 S7         16.1497  -28.2891  -43.5428 S.3       10 UNK        -0.2776 
      8 C8         16.4985  -29.0211  -45.1744 C.3       10 UNK         0.0316 
      9 C9         17.6400  -30.0251  -45.1028 C.ar      10 UNK        -0.0863 
     10 C10        17.4947  -31.2036  -44.3663 C.ar      10 UNK        -0.1009 
     11 C11        18.5595  -32.1002  -44.2415 C.ar      10 UNK        -0.0712 
     12 C12        19.7695  -31.8258  -44.8876 C.ar      10 UNK        -0.0894 
     13 C13        19.9187  -30.6608  -45.6471 C.ar      10 UNK        -0.0745 
     14 C14        18.8490  -29.7673  -45.7533 C.ar      10 UNK        -0.0972 
     15 C15        21.2341  -30.3581  -46.3525 C.3       10 UNK         0.0209 
     16 S16        22.5890  -29.9831  -45.1925 S.3       10 UNK        -0.2568 
     17 C17        21.9763  -28.4920  -44.3399 C.3       10 UNK        -0.0983 
     18 CA         22.4150  -27.1716  -45.0247 C.3       3 UNK         0.0876 
     19 N          21.5428  -26.0587  -44.6697 N.am      3 UNK        -0.4424 
     20 C          20.3615  -25.7710  -45.2169 C.2       2 UNK         0.4918 
     21 O          19.8200  -26.4487  -46.0918 O.2       2 UNK        -0.4875 
     22 CA         19.7100  -24.4669  -44.7331 C.3       2 UNK         0.0481 
     23 CB         20.3454  -23.2706  -45.4612 C.3       2 UNK        -0.1831 
     24 N          18.2656  -24.4373  -44.9874 N.am      2 UNK        -0.4498 
     25 C          17.2386  -25.0590  -44.3775 C.2       1 UNK         0.5027 
     26 O          16.1147  -24.9960  -44.8746 O.2       1 UNK        -0.4969 
     27 C          23.8443  -26.7551  -44.6352 C.2       3 UNK         0.5005 
     28 O          24.0131  -25.8077  -43.8595 O.2       3 UNK        -0.5279 
     29 N          24.8491  -27.4855  -45.1379 N.am      4 UNK        -0.4463 
     30 CA         26.2746  -27.2672  -44.8534 C.3       4 UNK         0.0283 
     31 CB         27.1165  -28.2194  -45.7178 C.3       4 UNK        -0.1875 
     32 C          26.6493  -27.4214  -43.3662 C.2       4 UNK         0.4949 
     33 O          27.6020  -26.7867  -42.9145 O.2       4 UNK        -0.5039 
     34 N          25.8772  -28.2351  -42.6359 N.am      5 UNK        -0.4663 
     35 CA         25.9690  -28.4298  -41.1880 C.3       5 UNK         0.0242 
     36 CB         26.2384  -29.9201  -40.9092 C.3       5 UNK        -0.1982 
     37 C          24.6908  -27.9260  -40.4904 C.2       5 UNK         0.5017 
     38 O          24.2779  -28.5073  -39.4858 O.2       5 UNK        -0.5012 
     39 N          24.0558  -26.8850  -41.0554 N.am      6 UNK        -0.4439 
     40 CA         22.7789  -26.2577  -40.6745 C.3       6 UNK         0.0297 
     41 CB         22.7981  -25.7215  -39.2299 C.3       6 UNK        -0.2006 
     42 C          21.5529  -27.1514  -40.9290 C.2       6 UNK         0.4892 
     43 O          20.5982  -26.6949  -41.5568 O.2       6 UNK        -0.5089 
     44 N          21.6224  -28.4063  -40.4817 N.am      7 UNK        -0.4243 
     45 CA         20.6792  -29.4813  -40.7562 C.3       7 UNK         0.0196 
     46 CB         19.4397  -29.3729  -39.8440 C.3       7 UNK        -0.2007 
     47 C          21.4549  -30.7936  -40.6012 C.2       7 UNK         0.5020 
     48 O          21.9653  -31.3100  -41.5937 O.2       7 UNK        -0.5147 
     49 N          21.5764  -31.2695  -39.3507 N.am      8 UNK        -0.4734 
     50 CA         22.3234  -32.4640  -38.9202 C.3       8 UNK         0.0238 
     51 CB         23.8416  -32.2397  -39.0858 C.3       8 UNK        -0.1912 
     52 C          21.8355  -33.7616  -39.5976 C.2       8 UNK         0.5038 
     53 O          22.6476  -34.5955  -40.0038 O.2       8 UNK        -0.5046 
     54 N          20.5093  -33.8895  -39.7210 N.am      9 UNK        -0.4200 
     55 CA         19.8225  -34.9628  -40.4579 C.3       9 UNK         0.0839 
     56 C          19.8431  -36.3593  -39.7714 C.2       9 UNK         0.5513 
     57 N          20.2537  -36.4798  -38.5147 N.am      9 UNK        -0.7519 
     58 O          19.4802  -37.3533  -40.3950 O.2       9 UNK        -0.4960 
     59 C59        18.3740  -34.5574  -40.8429 C.3       10 UNK        -0.0876 
     60 S60        18.2792  -32.9126  -41.6280 S.3       10 UNK        -0.2414 
     61 C61        18.4026  -33.3490  -43.3883 C.3       10 UNK         0.0169 
     62 H62        19.5502  -22.5497  -40.8523 H         1 UNK         0.0903 
     63 H63        18.7995  -23.4341  -39.5204 H         1 UNK         0.0903 
     64 H64        20.0413  -24.2075  -40.5077 H         1 UNK         0.0903 
     65 H65        19.1329  -25.7386  -41.8529 H         1 UNK         0.3096 
     66 H66        16.3988  -25.7476  -42.5597 H         1 UNK         0.1121 
     67 H67        18.1065  -27.7511  -42.3136 H         1 UNK         0.0849 
     68 H68        18.4130  -27.5048  -44.0002 H         1 UNK         0.0849 
     69 H69        16.7166  -28.2240  -45.8875 H         1 UNK         0.0865 
     70 H70        15.6015  -29.5237  -45.5388 H         1 UNK         0.0865 
     71 H71        16.5627  -31.4048  -43.8554 H         1 UNK         0.1346 
     72 H72        20.6028  -32.5082  -44.7888 H         1 UNK         0.1412 
     73 H73        18.9650  -28.8596  -46.3292 H         1 UNK         0.1426 
     74 H74        21.1200  -29.5217  -47.0440 H         1 UNK         0.0716 
     75 H75        21.5191  -31.2188  -46.9590 H         1 UNK         0.0716 
     76 H76        22.3241  -28.5337  -43.3078 H         1 UNK         0.0695 
     77 H77        20.8900  -28.5455  -44.2729 H         1 UNK         0.0695 
     78 H78        22.3828  -27.2875  -46.1106 H         1 UNK         0.0983 
     79 H79        21.9657  -25.4248  -44.0021 H         1 UNK         0.3095 
     80 H80        19.9270  -24.3387  -43.6763 H         1 UNK         0.0454 
     81 H81        20.2026  -23.3302  -46.5412 H         1 UNK         0.0851 
     82 H82        21.4198  -23.2209  -45.2790 H         1 UNK         0.0851 
     83 H83        19.9204  -22.3268  -45.1187 H         1 UNK         0.0851 
     84 H84        18.0262  -23.9702  -45.8489 H         1 UNK         0.2976 
     85 H85        24.6215  -28.2662  -45.7392 H         1 UNK         0.3116 
     86 H86        26.5138  -26.2417  -45.1428 H         1 UNK         0.0646 
     87 H87        26.9019  -29.2652  -45.4942 H         1 UNK         0.0847 
     88 H88        28.1824  -28.0625  -45.5462 H         1 UNK         0.0847 
     89 H89        26.9357  -28.0578  -46.7806 H         1 UNK         0.0847 
     90 H90        25.1198  -28.7138  -43.1035 H         1 UNK         0.3040 
     91 H91        26.7964  -27.8505  -40.7724 H         1 UNK         0.1015 
     92 H92        27.1602  -30.2507  -41.3880 H         1 UNK         0.0786 
     93 H93        25.4266  -30.5478  -41.2778 H         1 UNK         0.0786 
     94 H94        26.3452  -30.1117  -39.8406 H         1 UNK         0.0786 
     95 H95        24.4544  -26.5125  -41.9115 H         1 UNK         0.3172 
     96 H96        22.6748  -25.3953  -41.3350 H         1 UNK         0.0595 
     97 H97        22.8735  -26.5211  -38.4927 H         1 UNK         0.0839 
     98 H98        21.8844  -25.1686  -39.0092 H         1 UNK         0.0839 
     99 H99        23.6343  -25.0405  -39.0718 H         1 UNK         0.0839 
    100 H100       22.4787  -28.6774  -40.0014 H         1 UNK         0.2998 
    101 H101       20.3517  -29.4161  -41.7968 H         1 UNK         0.0822 
    102 H102       18.8597  -28.4805  -40.0787 H         1 UNK         0.0787 
    103 H103       18.7785  -30.2294  -39.9810 H         1 UNK         0.0787 
    104 H104       19.7045  -29.3190  -38.7879 H         1 UNK         0.0787 
    105 H105       21.1186  -30.7539  -38.6115 H         1 UNK         0.3055 
    106 H106       22.1255  -32.5878  -37.8542 H         1 UNK         0.1106 
    107 H107       24.4096  -33.0502  -38.6276 H         1 UNK         0.0828 
    108 H108       24.1623  -31.3109  -38.6137 H         1 UNK         0.0828 
    109 H109       24.1275  -32.1981  -40.1367 H         1 UNK         0.0828 
    110 H110       19.9196  -33.1489  -39.3724 H         1 UNK         0.2931 
    111 H111       20.3713  -35.0914  -41.3931 H         1 UNK         0.0412 
    112 H112       20.5571  -35.6707  -37.9969 H         1 UNK         0.3472 
    113 H113       20.2651  -37.3906  -38.0825 H         1 UNK         0.3472 
    114 H114       17.9298  -35.2983  -41.5107 H         1 UNK         0.0970 
    115 H115       17.7400  -34.5369  -39.9545 H         1 UNK         0.0970 
    116 H116       17.5079  -33.8936  -43.6932 H         1 UNK         0.0612 
    117 H117       19.2485  -34.0226  -43.5339 H         1 UNK         0.0612 
@<TRIPOS>BOND
     1    1    2 1    
     2    1   62 1    
     3    1   63 1    
     4    1   64 1    
     5    2    3 2    
     6    2    4 am   BACKBONE|DICT|INTERRES
     7    4    5 1    
     8    4   65 1    
     9    5    6 1    
    10    5   25 1    
    11    5   66 1    
    12    6    7 1    
    13    6   67 1    
    14    6   68 1    
    15    7    8 1    
    16    8    9 1    
    17    8   69 1    
    18    8   70 1    
    19    9   10 ar   
    20    9   14 ar   
    21   10   11 ar   
    22   10   71 1    
    23   11   12 ar   
    24   11   61 1    
    25   12   13 ar   
    26   12   72 1    
    27   13   14 ar   
    28   13   15 1    
    29   14   73 1    
    30   15   16 1    
    31   15   74 1    
    32   15   75 1    
    33   16   17 1    
    34   17   18 1    
    35   17   76 1    
    36   17   77 1    
    37   18   19 1    
    38   18   27 1    
    39   18   78 1    
    40   19   20 am   BACKBONE|DICT|INTERRES
    41   19   79 1    
    42   20   21 2    
    43   20   22 1    
    44   22   23 1    
    45   22   24 1    
    46   22   80 1    
    47   23   81 1    
    48   23   82 1    
    49   23   83 1    
    50   24   25 am   BACKBONE|DICT|INTERRES
    51   24   84 1    
    52   25   26 2    
    53   27   28 2    
    54   27   29 am   BACKBONE|DICT|INTERRES
    55   29   30 1    
    56   29   85 1    
    57   30   31 1    
    58   30   32 1    
    59   30   86 1    
    60   31   87 1    
    61   31   88 1    
    62   31   89 1    
    63   32   33 2    
    64   32   34 am   BACKBONE|DICT|INTERRES
    65   34   35 1    
    66   34   90 1    
    67   35   36 1    
    68   35   37 1    
    69   35   91 1    
    70   36   92 1    
    71   36   93 1    
    72   36   94 1    
    73   37   38 2    
    74   37   39 am   BACKBONE|DICT|INTERRES
    75   39   40 1    
    76   39   95 1    
    77   40   41 1    
    78   40   42 1    
    79   40   96 1    
    80   41   97 1    
    81   41   98 1    
    82   41   99 1    
    83   42   43 2    
    84   42   44 am   BACKBONE|DICT|INTERRES
    85   44   45 1    
    86   44  100 1    
    87   45   46 1    
    88   45   47 1    
    89   45  101 1    
    90   46  102 1    
    91   46  103 1    
    92   46  104 1    
    93   47   48 2    
    94   47   49 am   BACKBONE|DICT|INTERRES
    95   49   50 1    
    96   49  105 1    
    97   50   51 1    
    98   50   52 1    
    99   50  106 1    
   100   51  107 1    
   101   51  108 1    
   102   51  109 1    
   103   52   53 2    
   104   52   54 am   BACKBONE|DICT|INTERRES
   105   54   55 1    
   106   54  110 1    
   107   55   56 1    
   108   55   59 1    
   109   55  111 1    
   110   56   57 am   BACKBONE|DICT|INTERRES
   111   56   58 2    
   112   57  112 1    
   113   57  113 1    
   114   59   60 1    
   115   59  114 1    
   116   59  115 1    
   117   60   61 1    
   118   61  116 1    
   119   61  117 1    
@<TRIPOS>SUBSTRUCTURE
     1 UNK         1 GROUP             0       ****    0 ROOT    
