@<TRIPOS>MOLECULE
3R8
117   119    1
SMALL
USER_CHARGES


@<TRIPOS>ATOM
      1 CA         19.0904  -25.3281  -50.1964 C.3       0 UNK        -0.2013 
      2 C          19.8348  -25.4790  -48.8781 C.2       0 UNK         0.4866 
      3 O          20.8687  -24.8391  -48.6817 O.2       0 UNK        -0.5176 
      4 N          19.3239  -26.3269  -47.9774 N.am      1 UNK        -0.4884 
      5 CA         19.8799  -26.5595  -46.6411 C.3       1 UNK         0.0853 
      6 C6         19.2307  -27.7859  -45.9539 C.3       10 UNK        -0.0849 
      7 S7         19.6322  -29.3766  -46.7461 S.3       10 UNK        -0.2776 
      8 C8         18.1782  -30.3865  -46.2951 C.3       10 UNK         0.0316 
      9 C9         17.8655  -30.3283  -44.8035 C.ar      10 UNK        -0.0863 
     10 C10        18.6614  -31.0166  -43.8827 C.ar      10 UNK        -0.1009 
     11 C11        18.3930  -30.9362  -42.5118 C.ar      10 UNK        -0.0712 
     12 C12        17.3112  -30.1711  -42.0663 C.ar      10 UNK        -0.0894 
     13 C13        16.5247  -29.4588  -42.9756 C.ar      10 UNK        -0.0745 
     14 C14        16.7944  -29.5566  -44.3427 C.ar      10 UNK        -0.0972 
     15 C15        15.4107  -28.5473  -42.4847 C.3       10 UNK         0.0209 
     16 S16        15.9725  -26.8147  -42.3857 S.3       10 UNK        -0.2568 
     17 C17        17.0694  -26.8563  -40.9273 C.3       10 UNK        -0.0983 
     18 CA         18.5701  -26.9434  -41.3028 C.3       3 UNK         0.0876 
     19 N          19.0198  -25.7838  -42.0832 N.am      3 UNK        -0.4424 
     20 C          20.2681  -25.5678  -42.5189 C.2       2 UNK         0.4918 
     21 O          21.2403  -26.2733  -42.2377 O.2       2 UNK        -0.4875 
     22 CA         20.4494  -24.4458  -43.5468 C.3       2 UNK         0.0481 
     23 CB         21.6744  -23.5700  -43.2309 C.3       2 UNK        -0.1831 
     24 N          20.6471  -25.1372  -44.8165 N.am      2 UNK        -0.4498 
     25 C          19.6830  -25.3377  -45.7220 C.2       1 UNK         0.5027 
     26 O          18.6353  -24.6880  -45.7743 O.2       1 UNK        -0.4969 
     27 C          19.4292  -27.1759  -40.0444 C.2       3 UNK         0.5005 
     28 O          19.4943  -26.2955  -39.1845 O.2       3 UNK        -0.5279 
     29 N          20.1075  -28.3327  -39.9962 N.am      4 UNK        -0.4463 
     30 CA         21.0510  -28.8143  -38.9734 C.3       4 UNK         0.0283 
     31 CB         20.3843  -28.9051  -37.5872 C.3       4 UNK        -0.1875 
     32 C          22.3848  -28.0429  -38.8988 C.2       4 UNK         0.4949 
     33 O          23.3916  -28.6304  -38.5036 O.2       4 UNK        -0.5039 
     34 N          22.3844  -26.7590  -39.2756 N.am      5 UNK        -0.4663 
     35 CA         23.5541  -25.8820  -39.3063 C.3       5 UNK         0.0242 
     36 CB         23.0887  -24.4237  -39.4435 C.3       5 UNK        -0.1982 
     37 C          24.5451  -26.2418  -40.4242 C.2       5 UNK         0.5017 
     38 O          25.7534  -26.1664  -40.1978 O.2       5 UNK        -0.5012 
     39 N          24.0257  -26.6177  -41.6027 N.am      6 UNK        -0.4439 
     40 CA         24.8251  -27.0216  -42.7629 C.3       6 UNK         0.0297 
     41 CB         23.9428  -27.0496  -44.0224 C.3       6 UNK        -0.2006 
     42 C          25.5220  -28.3768  -42.5593 C.2       6 UNK         0.4892 
     43 O          26.7077  -28.5015  -42.8681 O.2       6 UNK        -0.5089 
     44 N          24.7713  -29.3542  -42.0407 N.am      7 UNK        -0.4243 
     45 CA         25.1811  -30.7284  -41.7650 C.3       7 UNK         0.0196 
     46 CB         25.4969  -31.4801  -43.0763 C.3       7 UNK        -0.2007 
     47 C          24.0291  -31.4211  -41.0308 C.2       7 UNK         0.5020 
     48 O          22.8961  -30.9337  -41.0743 O.2       7 UNK        -0.5147 
     49 N          24.3079  -32.5887  -40.4369 N.am      8 UNK        -0.4734 
     50 CA         23.3353  -33.4602  -39.7588 C.3       8 UNK         0.0238 
     51 CB         24.0887  -34.3798  -38.7792 C.3       8 UNK        -0.1912 
     52 C          22.4338  -34.2494  -40.7377 C.2       8 UNK         0.5038 
     53 O          22.2130  -35.4473  -40.5522 O.2       8 UNK        -0.5046 
     54 N          21.9423  -33.5511  -41.7657 N.am      9 UNK        -0.4200 
     55 CA         21.0318  -34.0032  -42.8293 C.3       9 UNK         0.0839 
     56 C          21.6350  -35.0551  -43.8090 C.2       9 UNK         0.5513 
     57 N          22.9474  -35.2532  -43.8419 N.am      9 UNK        -0.7519 
     58 O          20.9077  -35.6796  -44.5771 O.2       9 UNK        -0.4960 
     59 C59        19.6200  -34.4115  -42.3096 C.3       10 UNK        -0.0876 
     60 S60        18.7935  -33.3089  -41.0976 S.3       10 UNK        -0.2414 
     61 C61        19.3074  -31.6068  -41.4990 C.3       10 UNK         0.0169 
     62 H62        18.2050  -25.9621  -50.2402 H         1 UNK         0.0903 
     63 H63        18.7741  -24.2942  -50.3320 H         1 UNK         0.0903 
     64 H64        19.7412  -25.5974  -51.0279 H         1 UNK         0.0903 
     65 H65        18.4688  -26.8218  -48.1867 H         1 UNK         0.3096 
     66 H66        20.9516  -26.7421  -46.7508 H         1 UNK         0.1121 
     67 H67        18.1469  -27.6594  -45.9258 H         1 UNK         0.0849 
     68 H68        19.5514  -27.8688  -44.9124 H         1 UNK         0.0849 
     69 H69        17.3194  -30.0529  -46.8798 H         1 UNK         0.0865 
     70 H70        18.3594  -31.4215  -46.5888 H         1 UNK         0.0865 
     71 H71        19.5042  -31.5893  -44.2395 H         1 UNK         0.1346 
     72 H72        17.1068  -30.0972  -41.0069 H         1 UNK         0.1412 
     73 H73        16.1865  -29.0025  -45.0453 H         1 UNK         0.1426 
     74 H74        15.0374  -28.8747  -41.5131 H         1 UNK         0.0716 
     75 H75        14.5637  -28.6042  -43.1700 H         1 UNK         0.0716 
     76 H76        16.7778  -27.6950  -40.2924 H         1 UNK         0.0695 
     77 H77        16.8795  -25.9576  -40.3372 H         1 UNK         0.0695 
     78 H78        18.7024  -27.8036  -41.9605 H         1 UNK         0.0983 
     79 H79        18.2859  -25.1624  -42.3908 H         1 UNK         0.3095 
     80 H80        19.5614  -23.8105  -43.5698 H         1 UNK         0.0454 
     81 H81        22.5897  -24.1536  -43.1290 H         1 UNK         0.0851 
     82 H82        21.5292  -23.0271  -42.2966 H         1 UNK         0.0851 
     83 H83        21.8392  -22.8283  -44.0123 H         1 UNK         0.0851 
     84 H84        21.4552  -25.7426  -44.8429 H         1 UNK         0.2976 
     85 H85        20.0371  -28.9368  -40.8028 H         1 UNK         0.3116 
     86 H86        21.3059  -29.8320  -39.2716 H         1 UNK         0.0646 
     87 H87        20.1278  -27.9224  -37.1908 H         1 UNK         0.0847 
     88 H88        21.0534  -29.3771  -36.8665 H         1 UNK         0.0847 
     89 H89        19.4736  -29.5027  -37.6225 H         1 UNK         0.0847 
     90 H90        21.4929  -26.3534  -39.5387 H         1 UNK         0.3040 
     91 H91        24.0800  -25.9861  -38.3544 H         1 UNK         0.1015 
     92 H92        22.5215  -24.2671  -40.3612 H         1 UNK         0.0786 
     93 H93        23.9395  -23.7412  -39.4633 H         1 UNK         0.0786 
     94 H94        22.4566  -24.1293  -38.6054 H         1 UNK         0.0786 
     95 H95        23.0136  -26.6134  -41.7132 H         1 UNK         0.3172 
     96 H96        25.6024  -26.2697  -42.9162 H         1 UNK         0.0595 
     97 H97        23.0899  -27.7198  -43.9071 H         1 UNK         0.0839 
     98 H98        24.5107  -27.3900  -44.8895 H         1 UNK         0.0839 
     99 H99        23.5642  -26.0563  -44.2583 H         1 UNK         0.0839 
    100 H100       23.8094  -29.1633  -41.7860 H         1 UNK         0.2998 
    101 H101       26.0583  -30.7127  -41.1153 H         1 UNK         0.0822 
    102 H102       26.3406  -31.0367  -43.6046 H         1 UNK         0.0787 
    103 H103       25.7596  -32.5210  -42.8844 H         1 UNK         0.0787 
    104 H104       24.6423  -31.4792  -43.7543 H         1 UNK         0.0787 
    105 H105       25.2558  -32.9358  -40.4840 H         1 UNK         0.3055 
    106 H106       22.6660  -32.8287  -39.1694 H         1 UNK         0.1106 
    107 H107       23.3941  -34.9900  -38.2001 H         1 UNK         0.0828 
    108 H108       24.7628  -35.0597  -39.3015 H         1 UNK         0.0828 
    109 H109       24.6776  -33.8032  -38.0656 H         1 UNK         0.0828 
    110 H110       22.1951  -32.5686  -41.7953 H         1 UNK         0.2931 
    111 H111       20.8990  -33.1263  -43.4594 H         1 UNK         0.0412 
    112 H112       23.3296  -35.9275  -44.4864 H         1 UNK         0.3472 
    113 H113       23.5552  -34.7483  -43.2177 H         1 UNK         0.3472 
    114 H114       18.9381  -34.5207  -43.1548 H         1 UNK         0.0970 
    115 H115       19.6754  -35.4000  -41.8502 H         1 UNK         0.0970 
    116 H116       19.2868  -31.0416  -40.5667 H         1 UNK         0.0612 
    117 H117       20.3377  -31.5500  -41.8391 H         1 UNK         0.0612 
@<TRIPOS>BOND
     1    1    2 1    
     2    1   62 1    
     3    1   63 1    
     4    1   64 1    
     5    2    3 2    
     6    2    4 am   BACKBONE|DICT|INTERRES
     7    4    5 1    
     8    4   65 1    
     9    5    6 1    
    10    5   25 1    
    11    5   66 1    
    12    6    7 1    
    13    6   67 1    
    14    6   68 1    
    15    7    8 1    
    16    8    9 1    
    17    8   69 1    
    18    8   70 1    
    19    9   10 ar   
    20    9   14 ar   
    21   10   11 ar   
    22   10   71 1    
    23   11   12 ar   
    24   11   61 1    
    25   12   13 ar   
    26   12   72 1    
    27   13   14 ar   
    28   13   15 1    
    29   14   73 1    
    30   15   16 1    
    31   15   74 1    
    32   15   75 1    
    33   16   17 1    
    34   17   18 1    
    35   17   76 1    
    36   17   77 1    
    37   18   19 1    
    38   18   27 1    
    39   18   78 1    
    40   19   20 am   BACKBONE|DICT|INTERRES
    41   19   79 1    
    42   20   21 2    
    43   20   22 1    
    44   22   23 1    
    45   22   24 1    
    46   22   80 1    
    47   23   81 1    
    48   23   82 1    
    49   23   83 1    
    50   24   25 am   BACKBONE|DICT|INTERRES
    51   24   84 1    
    52   25   26 2    
    53   27   28 2    
    54   27   29 am   BACKBONE|DICT|INTERRES
    55   29   30 1    
    56   29   85 1    
    57   30   31 1    
    58   30   32 1    
    59   30   86 1    
    60   31   87 1    
    61   31   88 1    
    62   31   89 1    
    63   32   33 2    
    64   32   34 am   BACKBONE|DICT|INTERRES
    65   34   35 1    
    66   34   90 1    
    67   35   36 1    
    68   35   37 1    
    69   35   91 1    
    70   36   92 1    
    71   36   93 1    
    72   36   94 1    
    73   37   38 2    
    74   37   39 am   BACKBONE|DICT|INTERRES
    75   39   40 1    
    76   39   95 1    
    77   40   41 1    
    78   40   42 1    
    79   40   96 1    
    80   41   97 1    
    81   41   98 1    
    82   41   99 1    
    83   42   43 2    
    84   42   44 am   BACKBONE|DICT|INTERRES
    85   44   45 1    
    86   44  100 1    
    87   45   46 1    
    88   45   47 1    
    89   45  101 1    
    90   46  102 1    
    91   46  103 1    
    92   46  104 1    
    93   47   48 2    
    94   47   49 am   BACKBONE|DICT|INTERRES
    95   49   50 1    
    96   49  105 1    
    97   50   51 1    
    98   50   52 1    
    99   50  106 1    
   100   51  107 1    
   101   51  108 1    
   102   51  109 1    
   103   52   53 2    
   104   52   54 am   BACKBONE|DICT|INTERRES
   105   54   55 1    
   106   54  110 1    
   107   55   56 1    
   108   55   59 1    
   109   55  111 1    
   110   56   57 am   BACKBONE|DICT|INTERRES
   111   56   58 2    
   112   57  112 1    
   113   57  113 1    
   114   59   60 1    
   115   59  114 1    
   116   59  115 1    
   117   60   61 1    
   118   61  116 1    
   119   61  117 1    
@<TRIPOS>SUBSTRUCTURE
     1 UNK         1 GROUP             0       ****    0 ROOT    
