@<TRIPOS>MOLECULE
3R8
117   119    1
SMALL
USER_CHARGES


@<TRIPOS>ATOM
      1 CA         17.8522  -25.1094  -47.9203 C.3       0 UNK        -0.2013 
      2 C          17.9589  -26.1867  -46.8518 C.2       0 UNK         0.4866 
      3 O          18.5373  -27.2443  -47.1032 O.2       0 UNK        -0.5176 
      4 N          17.4079  -25.9289  -45.6590 N.am      1 UNK        -0.4884 
      5 CA         17.4176  -26.8377  -44.5074 C.3       1 UNK         0.0853 
      6 C6         16.2478  -26.5466  -43.5356 C.3       10 UNK        -0.0849 
      7 S7         14.6603  -27.0212  -44.2992 S.3       10 UNK        -0.2776 
      8 C8         14.1953  -28.5093  -43.3490 C.3       10 UNK         0.0316 
      9 C9         15.3014  -29.5583  -43.2589 C.ar      10 UNK        -0.0863 
     10 C10        15.8562  -30.1218  -44.4151 C.ar      10 UNK        -0.1009 
     11 C11        16.8522  -31.1005  -44.3212 C.ar      10 UNK        -0.0712 
     12 C12        17.2566  -31.5437  -43.0611 C.ar      10 UNK        -0.0894 
     13 C13        16.7281  -30.9785  -41.8998 C.ar      10 UNK        -0.0745 
     14 C14        15.7527  -29.9834  -42.0040 C.ar      10 UNK        -0.0972 
     15 C15        17.1968  -31.4730  -40.5392 C.3       10 UNK         0.0209 
     16 S16        19.0010  -31.3205  -40.3373 S.3       10 UNK        -0.2568 
     17 C17        19.1810  -29.5495  -39.9600 C.3       10 UNK        -0.0983 
     18 CA         20.4978  -28.9871  -40.5443 C.3       3 UNK         0.0876 
     19 N          20.4131  -28.6966  -41.9804 N.am      3 UNK        -0.4424 
     20 C          21.4580  -28.3080  -42.7261 C.2       2 UNK         0.4918 
     21 O          22.6239  -28.4569  -42.3599 O.2       2 UNK        -0.4875 
     22 CA         21.1764  -27.5433  -44.0376 C.3       2 UNK         0.0481 
     23 CB         22.0063  -28.0663  -45.2182 C.3       2 UNK        -0.1831 
     24 N          19.7709  -27.4645  -44.4422 N.am      2 UNK        -0.4498 
     25 C          18.7897  -26.8074  -43.8117 C.2       1 UNK         0.5027 
     26 O          18.9416  -26.2156  -42.7401 O.2       1 UNK        -0.4969 
     27 C          20.9757  -27.7540  -39.7490 C.2       3 UNK         0.5005 
     28 O          21.7636  -27.9153  -38.8153 O.2       3 UNK        -0.5279 
     29 N          20.5727  -26.5492  -40.1878 N.am      4 UNK        -0.4463 
     30 CA         21.0494  -25.2607  -39.6734 C.3       4 UNK         0.0283 
     31 CB         20.1953  -24.1348  -40.2779 C.3       4 UNK        -0.1875 
     32 C          22.5461  -24.9972  -39.9376 C.2       4 UNK         0.4949 
     33 O          23.1383  -24.1670  -39.2495 O.2       4 UNK        -0.5039 
     34 N          23.1379  -25.7213  -40.8981 N.am      5 UNK        -0.4663 
     35 CA         24.5654  -25.7110  -41.2239 C.3       5 UNK         0.0242 
     36 CB         24.7270  -25.7052  -42.7558 C.3       5 UNK        -0.1982 
     37 C          25.3073  -26.8875  -40.5546 C.2       5 UNK         0.5017 
     38 O          26.3154  -27.3499  -41.0889 O.2       5 UNK        -0.5012 
     39 N          24.8025  -27.3335  -39.3931 N.am      6 UNK        -0.4439 
     40 CA         25.3212  -28.3987  -38.5292 C.3       6 UNK         0.0297 
     41 CB         26.7322  -28.0574  -38.0017 C.3       6 UNK        -0.2006 
     42 C          25.2365  -29.7861  -39.1894 C.2       6 UNK         0.4892 
     43 O          26.2599  -30.4478  -39.3727 O.2       6 UNK        -0.5089 
     44 N          23.9986  -30.1984  -39.5055 N.am      7 UNK        -0.4243 
     45 CA         23.6184  -31.5173  -40.0405 C.3       7 UNK         0.0196 
     46 CB         23.8553  -32.6177  -38.9833 C.3       7 UNK        -0.2007 
     47 C          24.2682  -31.8442  -41.4005 C.2       7 UNK         0.5020 
     48 O          24.6774  -32.9831  -41.6305 O.2       7 UNK        -0.5147 
     49 N          24.3472  -30.8415  -42.2841 N.am      8 UNK        -0.4734 
     50 CA         24.9723  -30.9514  -43.6059 C.3       8 UNK         0.0238 
     51 CB         25.6870  -29.6257  -43.9190 C.3       8 UNK        -0.1912 
     52 C          23.9818  -31.3332  -44.7236 C.2       8 UNK         0.5038 
     53 O          24.4115  -31.4909  -45.8674 O.2       8 UNK        -0.5046 
     54 N          22.6877  -31.4568  -44.3959 N.am      9 UNK        -0.4200 
     55 CA         21.6154  -31.8482  -45.3256 C.3       9 UNK         0.0839 
     56 C          21.7203  -33.3255  -45.7982 C.2       9 UNK         0.5513 
     57 N          21.1562  -33.6441  -46.9547 N.am      9 UNK        -0.7519 
     58 O          22.2677  -34.1872  -45.1133 O.2       9 UNK        -0.4960 
     59 C59        20.2132  -31.5266  -44.7340 C.3       10 UNK        -0.0876 
     60 S60        19.0605  -30.8496  -45.9808 S.3       10 UNK        -0.2414 
     61 C61        17.4930  -31.6863  -45.5719 C.3       10 UNK         0.0169 
     62 H62        18.8467  -24.7917  -48.2326 H         1 UNK         0.0903 
     63 H63        17.3289  -25.4987  -48.7932 H         1 UNK         0.0903 
     64 H64        17.3118  -24.2326  -47.5640 H         1 UNK         0.0903 
     65 H65        16.9534  -25.0397  -45.5057 H         1 UNK         0.3096 
     66 H66        17.2915  -27.8570  -44.8777 H         1 UNK         0.1121 
     67 H67        16.3694  -27.0869  -42.5948 H         1 UNK         0.0849 
     68 H68        16.2158  -25.4885  -43.2696 H         1 UNK         0.0849 
     69 H69        13.8795  -28.1951  -42.3528 H         1 UNK         0.0865 
     70 H70        13.3186  -28.9622  -43.8139 H         1 UNK         0.0865 
     71 H71        15.5201  -29.7878  -45.3875 H         1 UNK         0.1346 
     72 H72        17.9972  -32.3248  -42.9733 H         1 UNK         0.1412 
     73 H73        15.3305  -29.5539  -41.1055 H         1 UNK         0.1426 
     74 H74        16.9215  -32.5236  -40.4370 H         1 UNK         0.0716 
     75 H75        16.6947  -30.9430  -39.7282 H         1 UNK         0.0716 
     76 H76        18.3204  -28.9891  -40.3302 H         1 UNK         0.0695 
     77 H77        19.1580  -29.4615  -38.8716 H         1 UNK         0.0695 
     78 H78        21.2738  -29.7375  -40.4162 H         1 UNK         0.0983 
     79 H79        19.4861  -28.5547  -42.3522 H         1 UNK         0.3095 
     80 H80        21.5066  -26.5203  -43.8468 H         1 UNK         0.0454 
     81 H81        23.0598  -28.1642  -44.9614 H         1 UNK         0.0851 
     82 H82        21.9496  -27.3854  -46.0675 H         1 UNK         0.0851 
     83 H83        21.6547  -29.0377  -45.5559 H         1 UNK         0.0851 
     84 H84        19.5410  -27.8678  -45.3453 H         1 UNK         0.2976 
     85 H85        19.9388  -26.5038  -40.9808 H         1 UNK         0.3116 
     86 H86        20.9042  -25.2590  -38.5911 H         1 UNK         0.0646 
     87 H87        20.2923  -24.0938  -41.3638 H         1 UNK         0.0847 
     88 H88        19.1392  -24.2656  -40.0415 H         1 UNK         0.0847 
     89 H89        20.4958  -23.1618  -39.8865 H         1 UNK         0.0847 
     90 H90        22.5908  -26.4240  -41.3758 H         1 UNK         0.3040 
     91 H91        25.0255  -24.7977  -40.8404 H         1 UNK         0.1015 
     92 H92        25.7773  -25.6324  -43.0413 H         1 UNK         0.0786 
     93 H93        24.2133  -24.8548  -43.2041 H         1 UNK         0.0786 
     94 H94        24.3286  -26.6119  -43.2086 H         1 UNK         0.0786 
     95 H95        23.9362  -26.9144  -39.0805 H         1 UNK         0.3172 
     96 H96        24.6571  -28.4323  -37.6639 H         1 UNK         0.0595 
     97 H97        27.4746  -28.0349  -38.8000 H         1 UNK         0.0839 
     98 H98        27.0642  -28.8004  -37.2755 H         1 UNK         0.0839 
     99 H99        26.7465  -27.0885  -37.5029 H         1 UNK         0.0839 
    100 H100       23.2394  -29.5565  -39.3128 H         1 UNK         0.2998 
    101 H101       22.5461  -31.4955  -40.2273 H         1 UNK         0.0822 
    102 H102       23.4584  -33.5764  -39.3197 H         1 UNK         0.0787 
    103 H103       23.3598  -32.3774  -38.0426 H         1 UNK         0.0787 
    104 H104       24.9166  -32.7607  -38.7770 H         1 UNK         0.0787 
    105 H105       23.9530  -29.9355  -42.0470 H         1 UNK         0.3055 
    106 H106       25.7314  -31.7367  -43.5858 H         1 UNK         0.1106 
    107 H107       26.4644  -29.4162  -43.1837 H         1 UNK         0.0828 
    108 H108       26.1680  -29.6539  -44.8976 H         1 UNK         0.0828 
    109 H109       24.9979  -28.7835  -43.9151 H         1 UNK         0.0828 
    110 H110       22.4375  -31.3546  -43.4250 H         1 UNK         0.2931 
    111 H111       21.7654  -31.2331  -46.2151 H         1 UNK         0.0412 
    112 H112       21.1972  -34.5983  -47.2775 H         1 UNK         0.3472 
    113 H113       20.6785  -32.9466  -47.5048 H         1 UNK         0.3472 
    114 H114       19.7870  -32.4110  -44.2598 H         1 UNK         0.0970 
    115 H115       20.2812  -30.7808  -43.9426 H         1 UNK         0.0970 
    116 H116       16.8136  -31.5837  -46.4193 H         1 UNK         0.0612 
    117 H117       17.6652  -32.7566  -45.4482 H         1 UNK         0.0612 
@<TRIPOS>BOND
     1    1    2 1    
     2    1   62 1    
     3    1   63 1    
     4    1   64 1    
     5    2    3 2    
     6    2    4 am   BACKBONE|DICT|INTERRES
     7    4    5 1    
     8    4   65 1    
     9    5    6 1    
    10    5   25 1    
    11    5   66 1    
    12    6    7 1    
    13    6   67 1    
    14    6   68 1    
    15    7    8 1    
    16    8    9 1    
    17    8   69 1    
    18    8   70 1    
    19    9   10 ar   
    20    9   14 ar   
    21   10   11 ar   
    22   10   71 1    
    23   11   12 ar   
    24   11   61 1    
    25   12   13 ar   
    26   12   72 1    
    27   13   14 ar   
    28   13   15 1    
    29   14   73 1    
    30   15   16 1    
    31   15   74 1    
    32   15   75 1    
    33   16   17 1    
    34   17   18 1    
    35   17   76 1    
    36   17   77 1    
    37   18   19 1    
    38   18   27 1    
    39   18   78 1    
    40   19   20 am   BACKBONE|DICT|INTERRES
    41   19   79 1    
    42   20   21 2    
    43   20   22 1    
    44   22   23 1    
    45   22   24 1    
    46   22   80 1    
    47   23   81 1    
    48   23   82 1    
    49   23   83 1    
    50   24   25 am   BACKBONE|DICT|INTERRES
    51   24   84 1    
    52   25   26 2    
    53   27   28 2    
    54   27   29 am   BACKBONE|DICT|INTERRES
    55   29   30 1    
    56   29   85 1    
    57   30   31 1    
    58   30   32 1    
    59   30   86 1    
    60   31   87 1    
    61   31   88 1    
    62   31   89 1    
    63   32   33 2    
    64   32   34 am   BACKBONE|DICT|INTERRES
    65   34   35 1    
    66   34   90 1    
    67   35   36 1    
    68   35   37 1    
    69   35   91 1    
    70   36   92 1    
    71   36   93 1    
    72   36   94 1    
    73   37   38 2    
    74   37   39 am   BACKBONE|DICT|INTERRES
    75   39   40 1    
    76   39   95 1    
    77   40   41 1    
    78   40   42 1    
    79   40   96 1    
    80   41   97 1    
    81   41   98 1    
    82   41   99 1    
    83   42   43 2    
    84   42   44 am   BACKBONE|DICT|INTERRES
    85   44   45 1    
    86   44  100 1    
    87   45   46 1    
    88   45   47 1    
    89   45  101 1    
    90   46  102 1    
    91   46  103 1    
    92   46  104 1    
    93   47   48 2    
    94   47   49 am   BACKBONE|DICT|INTERRES
    95   49   50 1    
    96   49  105 1    
    97   50   51 1    
    98   50   52 1    
    99   50  106 1    
   100   51  107 1    
   101   51  108 1    
   102   51  109 1    
   103   52   53 2    
   104   52   54 am   BACKBONE|DICT|INTERRES
   105   54   55 1    
   106   54  110 1    
   107   55   56 1    
   108   55   59 1    
   109   55  111 1    
   110   56   57 am   BACKBONE|DICT|INTERRES
   111   56   58 2    
   112   57  112 1    
   113   57  113 1    
   114   59   60 1    
   115   59  114 1    
   116   59  115 1    
   117   60   61 1    
   118   61  116 1    
   119   61  117 1    
@<TRIPOS>SUBSTRUCTURE
     1 UNK         1 GROUP             0       ****    0 ROOT    
