@<TRIPOS>MOLECULE
3R8
117   119    1
SMALL
USER_CHARGES


@<TRIPOS>ATOM
      1 CA         16.5088  -23.6100  -39.6780 C.3       0 UNK        -0.2013 
      2 C          16.8599  -23.8464  -41.1390 C.2       0 UNK         0.4866 
      3 O          17.2691  -22.9131  -41.8297 O.2       0 UNK        -0.5176 
      4 N          16.7022  -25.0880  -41.6163 N.am      1 UNK        -0.4884 
      5 CA         17.0135  -25.5076  -42.9896 C.3       1 UNK         0.0853 
      6 C6         16.3262  -26.8481  -43.3481 C.3       10 UNK        -0.0849 
      7 S7         16.7183  -28.2181  -42.2002 S.3       10 UNK        -0.2776 
      8 C8         15.7463  -29.5678  -42.9432 C.3       10 UNK         0.0316 
      9 C9         16.6135  -30.5893  -43.6701 C.ar      10 UNK        -0.0863 
     10 C10        16.5013  -31.9442  -43.3494 C.ar      10 UNK        -0.1009 
     11 C11        17.2611  -32.9081  -44.0211 C.ar      10 UNK        -0.0712 
     12 C12        18.1389  -32.5026  -45.0324 C.ar      10 UNK        -0.0894 
     13 C13        18.2535  -31.1503  -45.3735 C.ar      10 UNK        -0.0745 
     14 C14        17.4888  -30.2006  -44.6887 C.ar      10 UNK        -0.0972 
     15 C15        19.1657  -30.7127  -46.5134 C.3       10 UNK         0.0209 
     16 S16        20.9370  -30.8528  -46.1108 S.3       10 UNK        -0.2568 
     17 C17        21.1239  -29.6659  -44.7386 C.3       10 UNK        -0.0983 
     18 CA         21.5068  -28.2302  -45.1856 C.3       3 UNK         0.0876 
     19 N          21.0246  -27.2172  -44.2381 N.am      3 UNK        -0.4424 
     20 C          21.4022  -27.0665  -42.9616 C.2       2 UNK         0.4918 
     21 O          22.2020  -27.8054  -42.3834 O.2       2 UNK        -0.4875 
     22 CA         20.8009  -25.8787  -42.1900 C.3       2 UNK         0.0481 
     23 CB         21.4616  -24.5520  -42.6151 C.3       2 UNK        -0.1831 
     24 N          19.3362  -25.7891  -42.2342 N.am      2 UNK        -0.4498 
     25 C          18.5282  -25.5572  -43.2809 C.2       1 UNK         0.5027 
     26 O          18.9261  -25.3943  -44.4361 O.2       1 UNK        -0.4969 
     27 C          23.0133  -28.0451  -45.4914 C.2       3 UNK         0.5005 
     28 O          23.7627  -29.0203  -45.5668 O.2       3 UNK        -0.5279 
     29 N          23.4420  -26.7762  -45.6059 N.am      4 UNK        -0.4463 
     30 CA         24.8086  -26.2676  -45.8205 C.3       4 UNK         0.0283 
     31 CB         25.3987  -26.7734  -47.1512 C.3       4 UNK        -0.1875 
     32 C          25.7870  -26.5172  -44.6551 C.2       4 UNK         0.4949 
     33 O          26.5903  -25.6375  -44.3468 O.2       4 UNK        -0.5039 
     34 N          25.6966  -27.6892  -44.0171 N.am      5 UNK        -0.4663 
     35 CA         26.5074  -28.1122  -42.8723 C.3       5 UNK         0.0242 
     36 CB         26.3722  -29.6365  -42.7176 C.3       5 UNK        -0.1982 
     37 C          26.1388  -27.4137  -41.5507 C.2       5 UNK         0.5017 
     38 O          26.9243  -27.4855  -40.6053 O.2       5 UNK        -0.5012 
     39 N          24.9523  -26.7872  -41.5009 N.am      6 UNK        -0.4439 
     40 CA         24.3088  -26.1885  -40.3232 C.3       6 UNK         0.0297 
     41 CB         25.1313  -25.0082  -39.7635 C.3       6 UNK        -0.2006 
     42 C          23.9567  -27.2517  -39.2651 C.2       6 UNK         0.4892 
     43 O          24.1583  -27.0288  -38.0699 O.2       6 UNK        -0.5089 
     44 N          23.4550  -28.3988  -39.7407 N.am      7 UNK        -0.4243 
     45 CA         23.1758  -29.5894  -38.9356 C.3       7 UNK         0.0196 
     46 CB         24.4105  -30.5104  -38.9682 C.3       7 UNK        -0.2007 
     47 C          21.9108  -30.3463  -39.3767 C.2       7 UNK         0.5020 
     48 O          21.5683  -31.3330  -38.7242 O.2       7 UNK        -0.5147 
     49 N          21.2423  -29.9015  -40.4539 N.am      8 UNK        -0.4734 
     50 CA         20.1192  -30.5785  -41.1186 C.3       8 UNK         0.0238 
     51 CB         18.8715  -30.6499  -40.2072 C.3       8 UNK        -0.1912 
     52 C          20.5645  -31.9304  -41.7175 C.2       8 UNK         0.5038 
     53 O          21.6226  -31.9733  -42.3472 O.2       8 UNK        -0.5046 
     54 N          19.7623  -32.9886  -41.5402 N.am      9 UNK        -0.4200 
     55 CA         19.9824  -34.3351  -42.0922 C.3       9 UNK         0.0839 
     56 C          21.3678  -34.9453  -41.7377 C.2       9 UNK         0.5513 
     57 N          22.0360  -35.5717  -42.6969 N.am      9 UNK        -0.7519 
     58 O          21.8082  -34.9074  -40.5908 O.2       9 UNK        -0.4960 
     59 C59        18.8630  -35.3238  -41.6702 C.3       10 UNK        -0.0876 
     60 S60        17.1522  -34.7363  -41.9087 S.3       10 UNK        -0.2414 
     61 C61        17.0812  -34.3884  -43.6982 C.3       10 UNK         0.0169 
     62 H62        16.1581  -24.5193  -39.1900 H         1 UNK         0.0903 
     63 H63        17.3826  -23.2496  -39.1358 H         1 UNK         0.0903 
     64 H64        15.7240  -22.8583  -39.5978 H         1 UNK         0.0903 
     65 H65        16.3561  -25.8206  -41.0111 H         1 UNK         0.3096 
     66 H66        16.6071  -24.7467  -43.6605 H         1 UNK         0.1121 
     67 H67        15.2445  -26.7039  -43.3403 H         1 UNK         0.0849 
     68 H68        16.5727  -27.1442  -44.3692 H         1 UNK         0.0849 
     69 H69        15.0047  -29.1704  -43.6374 H         1 UNK         0.0865 
     70 H70        15.1803  -30.0487  -42.1440 H         1 UNK         0.0865 
     71 H71        15.8071  -32.2566  -42.5812 H         1 UNK         0.1346 
     72 H72        18.7212  -33.2381  -45.5704 H         1 UNK         0.1412 
     73 H73        17.5701  -29.1568  -44.9556 H         1 UNK         0.1426 
     74 H74        18.9509  -29.6848  -46.8096 H         1 UNK         0.0716 
     75 H75        18.9582  -31.3285  -47.3896 H         1 UNK         0.0716 
     76 H76        21.8601  -30.0562  -44.0353 H         1 UNK         0.0695 
     77 H77        20.1846  -29.6431  -44.1899 H         1 UNK         0.0695 
     78 H78        20.9856  -28.0202  -46.1209 H         1 UNK         0.0983 
     79 H79        20.3280  -26.5619  -44.5884 H         1 UNK         0.3095 
     80 H80        21.0425  -26.0404  -41.1386 H         1 UNK         0.0454 
     81 H81        21.1436  -23.7318  -41.9716 H         1 UNK         0.0851 
     82 H82        21.2182  -24.2792  -43.6420 H         1 UNK         0.0851 
     83 H83        22.5485  -24.6094  -42.5509 H         1 UNK         0.0851 
     84 H84        18.8737  -25.9395  -41.3483 H         1 UNK         0.2976 
     85 H85        22.7414  -26.0558  -45.4970 H         1 UNK         0.3116 
     86 H86        24.7039  -25.1846  -45.9050 H         1 UNK         0.0646 
     87 H87        26.3642  -26.3062  -47.3498 H         1 UNK         0.0847 
     88 H88        24.7459  -26.5360  -47.9910 H         1 UNK         0.0847 
     89 H89        25.5590  -27.8518  -47.1452 H         1 UNK         0.0847 
     90 H90        25.0266  -28.3609  -44.3880 H         1 UNK         0.3040 
     91 H91        27.5522  -27.8746  -43.0844 H         1 UNK         0.1015 
     92 H92        26.7052  -30.1574  -43.6156 H         1 UNK         0.0786 
     93 H93        25.3398  -29.9314  -42.5227 H         1 UNK         0.0786 
     94 H94        26.9786  -30.0034  -41.8881 H         1 UNK         0.0786 
     95 H95        24.3794  -26.8430  -42.3320 H         1 UNK         0.3172 
     96 H96        23.3589  -25.7811  -40.6632 H         1 UNK         0.0595 
     97 H97        26.0726  -25.3378  -39.3231 H         1 UNK         0.0839 
     98 H98        24.5775  -24.4845  -38.9835 H         1 UNK         0.0839 
     99 H99        25.3610  -24.2804  -40.5416 H         1 UNK         0.0839 
    100 H100       23.3059  -28.4714  -40.7404 H         1 UNK         0.2998 
    101 H101       22.9959  -29.2916  -37.9003 H         1 UNK         0.0822 
    102 H102       24.6276  -30.8519  -39.9812 H         1 UNK         0.0787 
    103 H103       25.2966  -30.0001  -38.5901 H         1 UNK         0.0787 
    104 H104       24.2595  -31.3959  -38.3494 H         1 UNK         0.0787 
    105 H105       21.6091  -29.1030  -40.9581 H         1 UNK         0.3055 
    106 H106       19.8494  -29.9507  -41.9675 H         1 UNK         0.1106 
    107 H107       17.9979  -30.9917  -40.7639 H         1 UNK         0.0828 
    108 H108       19.0112  -31.3227  -39.3607 H         1 UNK         0.0828 
    109 H109       18.6228  -29.6658  -39.8100 H         1 UNK         0.0828 
    110 H110       18.9147  -32.8712  -41.0067 H         1 UNK         0.2931 
    111 H111       19.9389  -34.2204  -43.1766 H         1 UNK         0.0412 
    112 H112       21.6780  -35.6173  -43.6384 H         1 UNK         0.3472 
    113 H113       22.9267  -35.9914  -42.4798 H         1 UNK         0.3472 
    114 H114       18.9713  -36.2657  -42.2117 H         1 UNK         0.0970 
    115 H115       18.9658  -35.5772  -40.6129 H         1 UNK         0.0970 
    116 H116       17.8157  -35.0012  -44.2228 H         1 UNK         0.0612 
    117 H117       16.1039  -34.7000  -44.0687 H         1 UNK         0.0612 
@<TRIPOS>BOND
     1    1    2 1    
     2    1   62 1    
     3    1   63 1    
     4    1   64 1    
     5    2    3 2    
     6    2    4 am   BACKBONE|DICT|INTERRES
     7    4    5 1    
     8    4   65 1    
     9    5    6 1    
    10    5   25 1    
    11    5   66 1    
    12    6    7 1    
    13    6   67 1    
    14    6   68 1    
    15    7    8 1    
    16    8    9 1    
    17    8   69 1    
    18    8   70 1    
    19    9   10 ar   
    20    9   14 ar   
    21   10   11 ar   
    22   10   71 1    
    23   11   12 ar   
    24   11   61 1    
    25   12   13 ar   
    26   12   72 1    
    27   13   14 ar   
    28   13   15 1    
    29   14   73 1    
    30   15   16 1    
    31   15   74 1    
    32   15   75 1    
    33   16   17 1    
    34   17   18 1    
    35   17   76 1    
    36   17   77 1    
    37   18   19 1    
    38   18   27 1    
    39   18   78 1    
    40   19   20 am   BACKBONE|DICT|INTERRES
    41   19   79 1    
    42   20   21 2    
    43   20   22 1    
    44   22   23 1    
    45   22   24 1    
    46   22   80 1    
    47   23   81 1    
    48   23   82 1    
    49   23   83 1    
    50   24   25 am   BACKBONE|DICT|INTERRES
    51   24   84 1    
    52   25   26 2    
    53   27   28 2    
    54   27   29 am   BACKBONE|DICT|INTERRES
    55   29   30 1    
    56   29   85 1    
    57   30   31 1    
    58   30   32 1    
    59   30   86 1    
    60   31   87 1    
    61   31   88 1    
    62   31   89 1    
    63   32   33 2    
    64   32   34 am   BACKBONE|DICT|INTERRES
    65   34   35 1    
    66   34   90 1    
    67   35   36 1    
    68   35   37 1    
    69   35   91 1    
    70   36   92 1    
    71   36   93 1    
    72   36   94 1    
    73   37   38 2    
    74   37   39 am   BACKBONE|DICT|INTERRES
    75   39   40 1    
    76   39   95 1    
    77   40   41 1    
    78   40   42 1    
    79   40   96 1    
    80   41   97 1    
    81   41   98 1    
    82   41   99 1    
    83   42   43 2    
    84   42   44 am   BACKBONE|DICT|INTERRES
    85   44   45 1    
    86   44  100 1    
    87   45   46 1    
    88   45   47 1    
    89   45  101 1    
    90   46  102 1    
    91   46  103 1    
    92   46  104 1    
    93   47   48 2    
    94   47   49 am   BACKBONE|DICT|INTERRES
    95   49   50 1    
    96   49  105 1    
    97   50   51 1    
    98   50   52 1    
    99   50  106 1    
   100   51  107 1    
   101   51  108 1    
   102   51  109 1    
   103   52   53 2    
   104   52   54 am   BACKBONE|DICT|INTERRES
   105   54   55 1    
   106   54  110 1    
   107   55   56 1    
   108   55   59 1    
   109   55  111 1    
   110   56   57 am   BACKBONE|DICT|INTERRES
   111   56   58 2    
   112   57  112 1    
   113   57  113 1    
   114   59   60 1    
   115   59  114 1    
   116   59  115 1    
   117   60   61 1    
   118   61  116 1    
   119   61  117 1    
@<TRIPOS>SUBSTRUCTURE
     1 UNK         1 GROUP             0       ****    0 ROOT    
