@<TRIPOS>MOLECULE
3R8
117   119    1
SMALL
USER_CHARGES


@<TRIPOS>ATOM
      1 CA         12.2371  -27.0840  -40.8954 C.3       0 UNK        -0.2013 
      2 C          13.4281  -26.6478  -41.7358 C.2       0 UNK         0.4866 
      3 O          14.1453  -25.7246  -41.3485 O.2       0 UNK        -0.5176 
      4 N          13.6399  -27.2977  -42.8872 N.am      1 UNK        -0.4884 
      5 CA         14.7786  -27.0603  -43.7794 C.3       1 UNK         0.0853 
      6 C6         14.5128  -27.6503  -45.1850 C.3       10 UNK        -0.0849 
      7 S7         15.5696  -26.9026  -46.4714 S.3       10 UNK        -0.2776 
      8 C8         16.2715  -28.3719  -47.2872 C.3       10 UNK         0.0316 
      9 C9         17.6193  -28.7791  -46.7062 C.ar      10 UNK        -0.0863 
     10 C10        17.7167  -29.8096  -45.7653 C.ar      10 UNK        -0.1009 
     11 C11        18.9693  -30.2457  -45.3157 C.ar      10 UNK        -0.0712 
     12 C12        20.1286  -29.6252  -45.7948 C.ar      10 UNK        -0.0894 
     13 C13        20.0417  -28.5908  -46.7323 C.ar      10 UNK        -0.0745 
     14 C14        18.7854  -28.1701  -47.1772 C.ar      10 UNK        -0.0972 
     15 C15        21.2957  -27.9727  -47.3339 C.3       10 UNK         0.0209 
     16 S16        21.6039  -26.2882  -46.7176 S.3       10 UNK        -0.2568 
     17 C17        22.6088  -26.6018  -45.2316 C.3       10 UNK        -0.0983 
     18 CA         21.9591  -26.0314  -43.9480 C.3       3 UNK         0.0876 
     19 N          20.7852  -26.7959  -43.5385 N.am      3 UNK        -0.4424 
     20 C          19.5329  -26.3366  -43.5021 C.2       2 UNK         0.4918 
     21 O          19.1808  -25.2252  -43.9071 O.2       2 UNK        -0.4875 
     22 CA         18.5081  -27.2707  -42.8548 C.3       2 UNK         0.0481 
     23 CB         18.6326  -27.2494  -41.3179 C.3       2 UNK        -0.1831 
     24 N          17.1681  -26.8795  -43.2731 N.am      2 UNK        -0.4498 
     25 C          16.0706  -27.6345  -43.1661 C.2       1 UNK         0.5027 
     26 O          16.0443  -28.7494  -42.6376 O.2       1 UNK        -0.4969 
     27 C          22.9594  -26.1042  -42.7868 C.2       3 UNK         0.5005 
     28 O          23.0870  -27.1628  -42.1671 O.2       3 UNK        -0.5279 
     29 N          23.6965  -25.0109  -42.5466 N.am      4 UNK        -0.4463 
     30 CA         24.7379  -24.9214  -41.5131 C.3       4 UNK         0.0283 
     31 CB         25.1939  -23.4595  -41.3769 C.3       4 UNK        -0.1875 
     32 C          25.9491  -25.8404  -41.7666 C.2       4 UNK         0.4949 
     33 O          26.6578  -26.1826  -40.8204 O.2       4 UNK        -0.5039 
     34 N          26.1603  -26.2250  -43.0327 N.am      5 UNK        -0.4663 
     35 CA         27.1883  -27.1742  -43.4610 C.3       5 UNK         0.0242 
     36 CB         27.4503  -26.9734  -44.9631 C.3       5 UNK        -0.1982 
     37 C          26.8270  -28.6440  -43.1725 C.2       5 UNK         0.5017 
     38 O          27.7253  -29.4866  -43.1975 O.2       5 UNK        -0.5012 
     39 N          25.5420  -28.9402  -42.9267 N.am      6 UNK        -0.4439 
     40 CA         25.0597  -30.2798  -42.5917 C.3       6 UNK         0.0297 
     41 CB         23.6004  -30.4272  -43.0600 C.3       6 UNK        -0.2006 
     42 C          25.1646  -30.5153  -41.0788 C.2       6 UNK         0.4892 
     43 O          25.0259  -29.5723  -40.2957 O.2       6 UNK        -0.5089 
     44 N          25.3411  -31.7823  -40.6838 N.am      7 UNK        -0.4243 
     45 CA         25.3611  -32.2334  -39.2878 C.3       7 UNK         0.0196 
     46 CB         26.1238  -33.5690  -39.2053 C.3       7 UNK        -0.2007 
     47 C          23.9319  -32.3310  -38.7195 C.2       7 UNK         0.5020 
     48 O          23.4643  -33.4262  -38.4027 O.2       7 UNK        -0.5147 
     49 N          23.2365  -31.1843  -38.6788 N.am      8 UNK        -0.4734 
     50 CA         21.8288  -30.9970  -38.2903 C.3       8 UNK         0.0238 
     51 CB         21.6542  -31.2345  -36.7752 C.3       8 UNK        -0.1912 
     52 C          20.8375  -31.8279  -39.1350 C.2       8 UNK         0.5038 
     53 O          19.7593  -32.1723  -38.6478 O.2       8 UNK        -0.5046 
     54 N          21.2388  -32.1508  -40.3733 N.am      9 UNK        -0.4200 
     55 CA         20.5630  -33.0677  -41.3065 C.3       9 UNK         0.0839 
     56 C          20.5130  -34.5515  -40.8241 C.2       9 UNK         0.5513 
     57 N          21.3325  -34.9693  -39.8652 N.am      9 UNK        -0.7519 
     58 O          19.7438  -35.3522  -41.3498 O.2       9 UNK        -0.4960 
     59 C59        19.1838  -32.5378  -41.7920 C.3       10 UNK        -0.0876 
     60 S60        19.3152  -30.9271  -42.6413 S.3       10 UNK        -0.2414 
     61 C61        19.0711  -31.4346  -44.3697 C.3       10 UNK         0.0169 
     62 H62        12.5736  -27.4220  -39.9156 H         1 UNK         0.0903 
     63 H63        11.5531  -26.2481  -40.7513 H         1 UNK         0.0903 
     64 H64        11.6835  -27.8981  -41.3630 H         1 UNK         0.0903 
     65 H65        13.0404  -28.0717  -43.1363 H         1 UNK         0.3096 
     66 H66        14.8900  -25.9773  -43.8757 H         1 UNK         0.1121 
     67 H67        14.6133  -28.7375  -45.1787 H         1 UNK         0.0849 
     68 H68        13.4813  -27.4518  -45.4809 H         1 UNK         0.0849 
     69 H69        15.5667  -29.2039  -47.2500 H         1 UNK         0.0865 
     70 H70        16.3948  -28.1457  -48.3476 H         1 UNK         0.0865 
     71 H71        16.8194  -30.2952  -45.4065 H         1 UNK         0.1346 
     72 H72        21.0973  -29.9707  -45.4605 H         1 UNK         0.1412 
     73 H73        18.7179  -27.3827  -47.9159 H         1 UNK         0.1426 
     74 H74        21.1763  -27.9233  -48.4172 H         1 UNK         0.0716 
     75 H75        22.1685  -28.6042  -47.1621 H         1 UNK         0.0716 
     76 H76        22.7996  -27.6713  -45.1228 H         1 UNK         0.0695 
     77 H77        23.5812  -26.1390  -45.4112 H         1 UNK         0.0695 
     78 H78        21.6958  -24.9835  -44.1090 H         1 UNK         0.0983 
     79 H79        20.9964  -27.6904  -43.1177 H         1 UNK         0.3095 
     80 H80        18.6976  -28.2746  -43.2291 H         1 UNK         0.0454 
     81 H81        19.6420  -27.5127  -40.9996 H         1 UNK         0.0851 
     82 H82        18.4070  -26.2631  -40.9112 H         1 UNK         0.0851 
     83 H83        17.9576  -27.9669  -40.8516 H         1 UNK         0.0851 
     84 H84        17.1319  -25.9902  -43.7570 H         1 UNK         0.2976 
     85 H85        23.5424  -24.1819  -43.1042 H         1 UNK         0.3116 
     86 H86        24.2927  -25.2297  -40.5645 H         1 UNK         0.0646 
     87 H87        25.9470  -23.3574  -40.5941 H         1 UNK         0.0847 
     88 H88        24.3633  -22.8062  -41.1094 H         1 UNK         0.0847 
     89 H89        25.6345  -23.0847  -42.3016 H         1 UNK         0.0847 
     90 H90        25.5428  -25.8693  -43.7470 H         1 UNK         0.3040 
     91 H91        28.1117  -26.9559  -42.9194 H         1 UNK         0.1015 
     92 H92        26.5604  -27.1776  -45.5600 H         1 UNK         0.0786 
     93 H93        28.2383  -27.6409  -45.3149 H         1 UNK         0.0786 
     94 H94        27.7736  -25.9544  -45.1774 H         1 UNK         0.0786 
     95 H95        24.8783  -28.1846  -42.7997 H         1 UNK         0.3172 
     96 H96        25.6640  -31.0253  -43.1133 H         1 UNK         0.0595 
     97 H97        23.2466  -31.4494  -42.9226 H         1 UNK         0.0839 
     98 H98        22.9254  -29.7743  -42.5055 H         1 UNK         0.0839 
     99 H99        23.4971  -30.1920  -44.1193 H         1 UNK         0.0839 
    100 H100       25.4182  -32.5033  -41.3873 H         1 UNK         0.2998 
    101 H101       25.9036  -31.5026  -38.6835 H         1 UNK         0.0822 
    102 H102       26.1753  -33.9257  -38.1756 H         1 UNK         0.0787 
    103 H103       25.6421  -34.3489  -39.7967 H         1 UNK         0.0787 
    104 H104       27.1489  -33.4629  -39.5609 H         1 UNK         0.0787 
    105 H105       23.7157  -30.3553  -39.0235 H         1 UNK         0.3055 
    106 H106       21.5886  -29.9519  -38.4929 H         1 UNK         0.1106 
    107 H107       21.8158  -32.2796  -36.5091 H         1 UNK         0.0828 
    108 H108       22.3507  -30.6290  -36.1954 H         1 UNK         0.0828 
    109 H109       20.6482  -30.9681  -36.4486 H         1 UNK         0.0828 
    110 H110       22.1454  -31.8224  -40.6664 H         1 UNK         0.2931 
    111 H111       21.2109  -33.1011  -42.1832 H         1 UNK         0.0412 
    112 H112       21.2942  -35.9335  -39.5754 H         1 UNK         0.3472 
    113 H113       21.9865  -34.3372  -39.4154 H         1 UNK         0.3472 
    114 H114       18.4943  -32.4323  -40.9536 H         1 UNK         0.0970 
    115 H115       18.7124  -33.2530  -42.4680 H         1 UNK         0.0970 
    116 H116       18.1670  -32.0412  -44.4416 H         1 UNK         0.0612 
    117 H117       19.8985  -32.0781  -44.6728 H         1 UNK         0.0612 
@<TRIPOS>BOND
     1    1    2 1    
     2    1   62 1    
     3    1   63 1    
     4    1   64 1    
     5    2    3 2    
     6    2    4 am   BACKBONE|DICT|INTERRES
     7    4    5 1    
     8    4   65 1    
     9    5    6 1    
    10    5   25 1    
    11    5   66 1    
    12    6    7 1    
    13    6   67 1    
    14    6   68 1    
    15    7    8 1    
    16    8    9 1    
    17    8   69 1    
    18    8   70 1    
    19    9   10 ar   
    20    9   14 ar   
    21   10   11 ar   
    22   10   71 1    
    23   11   12 ar   
    24   11   61 1    
    25   12   13 ar   
    26   12   72 1    
    27   13   14 ar   
    28   13   15 1    
    29   14   73 1    
    30   15   16 1    
    31   15   74 1    
    32   15   75 1    
    33   16   17 1    
    34   17   18 1    
    35   17   76 1    
    36   17   77 1    
    37   18   19 1    
    38   18   27 1    
    39   18   78 1    
    40   19   20 am   BACKBONE|DICT|INTERRES
    41   19   79 1    
    42   20   21 2    
    43   20   22 1    
    44   22   23 1    
    45   22   24 1    
    46   22   80 1    
    47   23   81 1    
    48   23   82 1    
    49   23   83 1    
    50   24   25 am   BACKBONE|DICT|INTERRES
    51   24   84 1    
    52   25   26 2    
    53   27   28 2    
    54   27   29 am   BACKBONE|DICT|INTERRES
    55   29   30 1    
    56   29   85 1    
    57   30   31 1    
    58   30   32 1    
    59   30   86 1    
    60   31   87 1    
    61   31   88 1    
    62   31   89 1    
    63   32   33 2    
    64   32   34 am   BACKBONE|DICT|INTERRES
    65   34   35 1    
    66   34   90 1    
    67   35   36 1    
    68   35   37 1    
    69   35   91 1    
    70   36   92 1    
    71   36   93 1    
    72   36   94 1    
    73   37   38 2    
    74   37   39 am   BACKBONE|DICT|INTERRES
    75   39   40 1    
    76   39   95 1    
    77   40   41 1    
    78   40   42 1    
    79   40   96 1    
    80   41   97 1    
    81   41   98 1    
    82   41   99 1    
    83   42   43 2    
    84   42   44 am   BACKBONE|DICT|INTERRES
    85   44   45 1    
    86   44  100 1    
    87   45   46 1    
    88   45   47 1    
    89   45  101 1    
    90   46  102 1    
    91   46  103 1    
    92   46  104 1    
    93   47   48 2    
    94   47   49 am   BACKBONE|DICT|INTERRES
    95   49   50 1    
    96   49  105 1    
    97   50   51 1    
    98   50   52 1    
    99   50  106 1    
   100   51  107 1    
   101   51  108 1    
   102   51  109 1    
   103   52   53 2    
   104   52   54 am   BACKBONE|DICT|INTERRES
   105   54   55 1    
   106   54  110 1    
   107   55   56 1    
   108   55   59 1    
   109   55  111 1    
   110   56   57 am   BACKBONE|DICT|INTERRES
   111   56   58 2    
   112   57  112 1    
   113   57  113 1    
   114   59   60 1    
   115   59  114 1    
   116   59  115 1    
   117   60   61 1    
   118   61  116 1    
   119   61  117 1    
@<TRIPOS>SUBSTRUCTURE
     1 UNK         1 GROUP             0       ****    0 ROOT    
