@<TRIPOS>MOLECULE
3R8
117   119    1
SMALL
USER_CHARGES


@<TRIPOS>ATOM
      1 CA         19.5644  -24.0699  -39.3187 C.3       0 UNK        -0.2013 
      2 C          18.7542  -24.4186  -40.5588 C.2       0 UNK         0.4866 
      3 O          17.5249  -24.3624  -40.5221 O.2       0 UNK        -0.5176 
      4 N          19.4381  -24.7741  -41.6512 N.am      1 UNK        -0.4884 
      5 CA         18.8600  -25.1201  -42.9502 C.3       1 UNK         0.0853 
      6 C6         18.9340  -26.6467  -43.2460 C.3       10 UNK        -0.0849 
      7 S7         18.0570  -27.6884  -42.0283 S.3       10 UNK        -0.2776 
      8 C8         17.0627  -28.8004  -43.0788 C.3       10 UNK         0.0316 
      9 C9         17.9129  -29.8777  -43.7425 C.ar      10 UNK        -0.0863 
     10 C10        18.2503  -31.0406  -43.0436 C.ar      10 UNK        -0.1009 
     11 C11        19.0240  -32.0364  -43.6497 C.ar      10 UNK        -0.0712 
     12 C12        19.4752  -31.8537  -44.9613 C.ar      10 UNK        -0.0894 
     13 C13        19.1374  -30.7009  -45.6767 C.ar      10 UNK        -0.0745 
     14 C14        18.3374  -29.7283  -45.0653 C.ar      10 UNK        -0.0972 
     15 C15        19.6084  -30.5236  -47.1180 C.3       10 UNK         0.0209 
     16 S16        21.1397  -29.5350  -47.2439 S.3       10 UNK        -0.2568 
     17 C17        20.5402  -27.9255  -46.6431 C.3       10 UNK        -0.0983 
     18 CA         21.2949  -26.6608  -47.1218 C.3       3 UNK         0.0876 
     19 N          20.4449  -25.5127  -46.8004 N.am      3 UNK        -0.4424 
     20 C          20.6615  -24.2081  -46.9971 C.2       2 UNK         0.4918 
     21 O          21.5861  -23.7474  -47.6651 O.2       2 UNK        -0.4875 
     22 CA         19.6893  -23.2651  -46.2530 C.3       2 UNK         0.0481 
     23 CB         18.6179  -22.7311  -47.2166 C.3       2 UNK        -0.1831 
     24 N          19.0323  -23.8906  -45.0868 N.am      2 UNK        -0.4498 
     25 C          19.6775  -24.3529  -44.0028 C.2       1 UNK         0.5027 
     26 O          20.9005  -24.2694  -43.8561 O.2       1 UNK        -0.4969 
     27 C          22.7067  -26.5827  -46.4871 C.2       3 UNK         0.5005 
     28 O          23.6288  -27.2190  -46.9968 O.2       3 UNK        -0.5279 
     29 N          22.8424  -25.8370  -45.3755 N.am      4 UNK        -0.4463 
     30 CA         24.0254  -25.6717  -44.5169 C.3       4 UNK         0.0283 
     31 CB         25.2615  -25.1980  -45.3096 C.3       4 UNK        -0.1875 
     32 C          24.3343  -26.8919  -43.6273 C.2       4 UNK         0.4949 
     33 O          25.2753  -26.8337  -42.8358 O.2       4 UNK        -0.5039 
     34 N          23.5240  -27.9549  -43.7298 N.am      5 UNK        -0.4663 
     35 CA         23.6020  -29.1573  -42.8965 C.3       5 UNK         0.0242 
     36 CB         22.8238  -30.2879  -43.5867 C.3       5 UNK        -0.1982 
     37 C          23.0710  -28.9375  -41.4686 C.2       5 UNK         0.5017 
     38 O          23.4431  -29.6880  -40.5669 O.2       5 UNK        -0.5012 
     39 N          22.1952  -27.9327  -41.2976 N.am      6 UNK        -0.4439 
     40 CA         21.5779  -27.4773  -40.0416 C.3       6 UNK         0.0297 
     41 CB         22.6229  -26.7424  -39.1772 C.3       6 UNK        -0.2006 
     42 C          20.8327  -28.5773  -39.2560 C.2       6 UNK         0.4892 
     43 O          20.7512  -28.5039  -38.0290 O.2       6 UNK        -0.5089 
     44 N          20.3272  -29.5845  -39.9830 N.am      7 UNK        -0.4243 
     45 CA         19.6793  -30.8065  -39.4964 C.3       7 UNK         0.0196 
     46 CB         18.3439  -30.4859  -38.7937 C.3       7 UNK        -0.2007 
     47 C          20.5888  -31.7283  -38.6587 C.2       7 UNK         0.5020 
     48 O          20.0825  -32.6585  -38.0302 O.2       7 UNK        -0.5147 
     49 N          21.9144  -31.5299  -38.7095 N.am      8 UNK        -0.4734 
     50 CA         22.9216  -32.3960  -38.0847 C.3       8 UNK         0.0238 
     51 CB         24.1372  -31.5398  -37.6836 C.3       8 UNK        -0.1912 
     52 C          23.2968  -33.5615  -39.0224 C.2       8 UNK         0.5038 
     53 O          24.4795  -33.8418  -39.2267 O.2       8 UNK        -0.5046 
     54 N          22.2715  -34.1902  -39.6056 N.am      9 UNK        -0.4200 
     55 CA         22.3684  -35.1961  -40.6720 C.3       9 UNK         0.0839 
     56 C          22.5177  -36.6572  -40.1602 C.2       9 UNK         0.5513 
     57 N          22.4929  -36.9148  -38.8579 N.am      9 UNK        -0.7519 
     58 O          22.6698  -37.5758  -40.9614 O.2       9 UNK        -0.4960 
     59 C59        21.1892  -35.0565  -41.6723 C.3       10 UNK        -0.0876 
     60 S60        21.0877  -33.3810  -42.3933 S.3       10 UNK        -0.2414 
     61 C61        19.3469  -33.3255  -42.9069 C.3       10 UNK         0.0169 
     62 H62        19.3514  -24.7814  -38.5211 H         1 UNK         0.0903 
     63 H63        20.6369  -24.0890  -39.5119 H         1 UNK         0.0903 
     64 H64        19.3022  -23.0728  -38.9659 H         1 UNK         0.0903 
     65 H65        20.4472  -24.7025  -41.6618 H         1 UNK         0.3096 
     66 H66        17.8209  -24.7876  -43.0042 H         1 UNK         0.1121 
     67 H67        18.5232  -26.8496  -44.2357 H         1 UNK         0.0849 
     68 H68        19.9704  -26.9867  -43.2739 H         1 UNK         0.0849 
     69 H69        16.3011  -29.2747  -42.4580 H         1 UNK         0.0865 
     70 H70        16.5190  -28.2177  -43.8240 H         1 UNK         0.0865 
     71 H71        17.8918  -31.1732  -42.0327 H         1 UNK         0.1346 
     72 H72        20.0812  -32.6184  -45.4280 H         1 UNK         0.1412 
     73 H73        18.0423  -28.8490  -45.6181 H         1 UNK         0.1426 
     74 H74        18.8221  -30.0573  -47.7136 H         1 UNK         0.0716 
     75 H75        19.7879  -31.4991  -47.5726 H         1 UNK         0.0716 
     76 H76        20.5058  -27.9640  -45.5530 H         1 UNK         0.0695 
     77 H77        19.5057  -27.8463  -46.9797 H         1 UNK         0.0695 
     78 H78        21.4151  -26.6945  -48.2065 H         1 UNK         0.0983 
     79 H79        19.6111  -25.7386  -46.2820 H         1 UNK         0.3095 
     80 H80        20.2743  -22.4178  -45.8893 H         1 UNK         0.0454 
     81 H81        19.0762  -22.2385  -48.0754 H         1 UNK         0.0851 
     82 H82        17.9766  -21.9958  -46.7304 H         1 UNK         0.0851 
     83 H83        17.9831  -23.5303  -47.6011 H         1 UNK         0.0851 
     84 H84        18.0273  -23.9880  -45.1380 H         1 UNK         0.2976 
     85 H85        22.0277  -25.3297  -45.0411 H         1 UNK         0.3116 
     86 H86        23.7628  -24.8683  -43.8268 H         1 UNK         0.0646 
     87 H87        25.6613  -25.9821  -45.9526 H         1 UNK         0.0847 
     88 H88        25.0273  -24.3357  -45.9338 H         1 UNK         0.0847 
     89 H89        26.0643  -24.8997  -44.6342 H         1 UNK         0.0847 
     90 H90        22.8141  -27.9404  -44.4463 H         1 UNK         0.3040 
     91 H91        24.6497  -29.4562  -42.8160 H         1 UNK         0.1015 
     92 H92        22.9394  -31.2214  -43.0359 H         1 UNK         0.0786 
     93 H93        23.1889  -30.4662  -44.5984 H         1 UNK         0.0786 
     94 H94        21.7554  -30.0742  -43.6497 H         1 UNK         0.0786 
     95 H95        21.9630  -27.3957  -42.1194 H         1 UNK         0.3172 
     96 H96        20.8139  -26.7548  -40.3239 H         1 UNK         0.0595 
     97 H97        23.3929  -27.4242  -38.8141 H         1 UNK         0.0839 
     98 H98        22.1592  -26.2796  -38.3051 H         1 UNK         0.0839 
     99 H99        23.1162  -25.9488  -39.7383 H         1 UNK         0.0839 
    100 H100       20.4477  -29.5303  -40.9846 H         1 UNK         0.2998 
    101 H101       19.4480  -31.3875  -40.3880 H         1 UNK         0.0822 
    102 H102       17.7876  -31.3974  -38.5721 H         1 UNK         0.0787 
    103 H103       17.7064  -29.8637  -39.4223 H         1 UNK         0.0787 
    104 H104       18.4985  -29.9628  -37.8498 H         1 UNK         0.0787 
    105 H105       22.2756  -30.7860  -39.2999 H         1 UNK         0.3055 
    106 H106       22.5101  -32.8358  -37.1734 H         1 UNK         0.1106 
    107 H107       23.8459  -30.7216  -37.0248 H         1 UNK         0.0828 
    108 H108       24.8781  -32.1367  -37.1503 H         1 UNK         0.0828 
    109 H109       24.6314  -31.1079  -38.5547 H         1 UNK         0.0828 
    110 H110       21.3366  -33.9072  -39.3434 H         1 UNK         0.2931 
    111 H111       23.2827  -34.9953  -41.2340 H         1 UNK         0.0412 
    112 H112       22.5959  -37.8656  -38.5388 H         1 UNK         0.3472 
    113 H113       22.3758  -36.1676  -38.1923 H         1 UNK         0.3472 
    114 H114       21.2944  -35.7678  -42.4938 H         1 UNK         0.0970 
    115 H115       20.2452  -35.2949  -41.1787 H         1 UNK         0.0970 
    116 H116       19.1343  -34.1784  -43.5533 H         1 UNK         0.0612 
    117 H117       18.7095  -33.4338  -42.0279 H         1 UNK         0.0612 
@<TRIPOS>BOND
     1    1    2 1    
     2    1   62 1    
     3    1   63 1    
     4    1   64 1    
     5    2    3 2    
     6    2    4 am   BACKBONE|DICT|INTERRES
     7    4    5 1    
     8    4   65 1    
     9    5    6 1    
    10    5   25 1    
    11    5   66 1    
    12    6    7 1    
    13    6   67 1    
    14    6   68 1    
    15    7    8 1    
    16    8    9 1    
    17    8   69 1    
    18    8   70 1    
    19    9   10 ar   
    20    9   14 ar   
    21   10   11 ar   
    22   10   71 1    
    23   11   12 ar   
    24   11   61 1    
    25   12   13 ar   
    26   12   72 1    
    27   13   14 ar   
    28   13   15 1    
    29   14   73 1    
    30   15   16 1    
    31   15   74 1    
    32   15   75 1    
    33   16   17 1    
    34   17   18 1    
    35   17   76 1    
    36   17   77 1    
    37   18   19 1    
    38   18   27 1    
    39   18   78 1    
    40   19   20 am   BACKBONE|DICT|INTERRES
    41   19   79 1    
    42   20   21 2    
    43   20   22 1    
    44   22   23 1    
    45   22   24 1    
    46   22   80 1    
    47   23   81 1    
    48   23   82 1    
    49   23   83 1    
    50   24   25 am   BACKBONE|DICT|INTERRES
    51   24   84 1    
    52   25   26 2    
    53   27   28 2    
    54   27   29 am   BACKBONE|DICT|INTERRES
    55   29   30 1    
    56   29   85 1    
    57   30   31 1    
    58   30   32 1    
    59   30   86 1    
    60   31   87 1    
    61   31   88 1    
    62   31   89 1    
    63   32   33 2    
    64   32   34 am   BACKBONE|DICT|INTERRES
    65   34   35 1    
    66   34   90 1    
    67   35   36 1    
    68   35   37 1    
    69   35   91 1    
    70   36   92 1    
    71   36   93 1    
    72   36   94 1    
    73   37   38 2    
    74   37   39 am   BACKBONE|DICT|INTERRES
    75   39   40 1    
    76   39   95 1    
    77   40   41 1    
    78   40   42 1    
    79   40   96 1    
    80   41   97 1    
    81   41   98 1    
    82   41   99 1    
    83   42   43 2    
    84   42   44 am   BACKBONE|DICT|INTERRES
    85   44   45 1    
    86   44  100 1    
    87   45   46 1    
    88   45   47 1    
    89   45  101 1    
    90   46  102 1    
    91   46  103 1    
    92   46  104 1    
    93   47   48 2    
    94   47   49 am   BACKBONE|DICT|INTERRES
    95   49   50 1    
    96   49  105 1    
    97   50   51 1    
    98   50   52 1    
    99   50  106 1    
   100   51  107 1    
   101   51  108 1    
   102   51  109 1    
   103   52   53 2    
   104   52   54 am   BACKBONE|DICT|INTERRES
   105   54   55 1    
   106   54  110 1    
   107   55   56 1    
   108   55   59 1    
   109   55  111 1    
   110   56   57 am   BACKBONE|DICT|INTERRES
   111   56   58 2    
   112   57  112 1    
   113   57  113 1    
   114   59   60 1    
   115   59  114 1    
   116   59  115 1    
   117   60   61 1    
   118   61  116 1    
   119   61  117 1    
@<TRIPOS>SUBSTRUCTURE
     1 UNK         1 GROUP             0       ****    0 ROOT    
