@<TRIPOS>MOLECULE
3R8
117   119    1
SMALL
USER_CHARGES


@<TRIPOS>ATOM
      1 CA         19.9217  -22.6139  -41.0205 C.3       0 UNK        -0.2013 
      2 C          19.5796  -23.7139  -42.0137 C.2       0 UNK         0.4866 
      3 O          20.0954  -24.8225  -41.8889 O.2       0 UNK        -0.5176 
      4 N          18.7091  -23.4131  -42.9867 N.am      1 UNK        -0.4884 
      5 CA         18.2582  -24.2813  -44.0848 C.3       1 UNK         0.0853 
      6 C6         17.6647  -25.6357  -43.6020 C.3       10 UNK        -0.0849 
      7 S7         16.2896  -26.1886  -44.6621 S.3       10 UNK        -0.2776 
      8 C8         15.6641  -27.6318  -43.7373 C.3       10 UNK         0.0316 
      9 C9         16.4954  -28.8885  -43.9695 C.ar      10 UNK        -0.0863 
     10 C10        17.0133  -29.6101  -42.8868 C.ar      10 UNK        -0.1009 
     11 C11        17.7429  -30.7858  -43.0996 C.ar      10 UNK        -0.0712 
     12 C12        17.9554  -31.2326  -44.4066 C.ar      10 UNK        -0.0894 
     13 C13        17.4725  -30.5040  -45.4963 C.ar      10 UNK        -0.0745 
     14 C14        16.7219  -29.3481  -45.2714 C.ar      10 UNK        -0.0972 
     15 C15        17.8243  -30.9333  -46.9136 C.3       10 UNK         0.0209 
     16 S16        19.0034  -29.7878  -47.7122 S.3       10 UNK        -0.2568 
     17 C17        20.3172  -29.6108  -46.4488 C.3       10 UNK        -0.0983 
     18 CA         21.1876  -28.3395  -46.6215 C.3       3 UNK         0.0876 
     19 N          20.3682  -27.1378  -46.8115 N.am      3 UNK        -0.4424 
     20 C          20.7429  -26.0642  -47.5163 C.2       2 UNK         0.4918 
     21 O          21.8329  -25.9562  -48.0784 O.2       2 UNK        -0.4875 
     22 CA         19.7323  -24.9059  -47.5984 C.3       2 UNK         0.0481 
     23 CB         18.8360  -25.0702  -48.8361 C.3       2 UNK        -0.1831 
     24 N          18.8891  -24.7566  -46.4055 N.am      2 UNK        -0.4498 
     25 C          19.3380  -24.4715  -45.1747 C.2       1 UNK         0.5027 
     26 O          20.5368  -24.3705  -44.9038 O.2       1 UNK        -0.4969 
     27 C          22.1538  -28.2078  -45.4210 C.2       3 UNK         0.5005 
     28 O          22.9921  -29.0932  -45.2484 O.2       3 UNK        -0.5279 
     29 N          22.0027  -27.1417  -44.6137 N.am      4 UNK        -0.4463 
     30 CA         22.5850  -26.9123  -43.2864 C.3       4 UNK         0.0283 
     31 CB         24.1281  -26.9471  -43.3044 C.3       4 UNK        -0.1875 
     32 C          21.9828  -27.8851  -42.2574 C.2       4 UNK         0.4949 
     33 O          22.4740  -29.0004  -42.0977 O.2       4 UNK        -0.5039 
     34 N          20.9273  -27.4364  -41.5660 N.am      5 UNK        -0.4663 
     35 CA         20.1260  -28.2070  -40.6037 C.3       5 UNK         0.0242 
     36 CB         18.8440  -27.4197  -40.2818 C.3       5 UNK        -0.1982 
     37 C          20.8495  -28.6255  -39.3058 C.2       5 UNK         0.5017 
     38 O          20.2357  -29.2926  -38.4713 O.2       5 UNK        -0.5012 
     39 N          22.1111  -28.2091  -39.1406 N.am      6 UNK        -0.4439 
     40 CA         22.9949  -28.5462  -38.0271 C.3       6 UNK         0.0297 
     41 CB         23.9984  -27.3898  -37.8300 C.3       6 UNK        -0.2006 
     42 C          23.6534  -29.9286  -38.2339 C.2       6 UNK         0.4892 
     43 O          22.9544  -30.9042  -38.5120 O.2       6 UNK        -0.5089 
     44 N          24.9834  -30.0010  -38.0721 N.am      7 UNK        -0.4243 
     45 CA         25.7892  -31.2285  -38.0537 C.3       7 UNK         0.0196 
     46 CB         27.2593  -30.8623  -37.7933 C.3       7 UNK        -0.2007 
     47 C          25.6750  -32.1166  -39.3051 C.2       7 UNK         0.5020 
     48 O          25.8001  -33.3355  -39.1838 O.2       7 UNK        -0.5147 
     49 N          25.4105  -31.5153  -40.4738 N.am      8 UNK        -0.4734 
     50 CA         25.2002  -32.2319  -41.7379 C.3       8 UNK         0.0238 
     51 CB         25.2116  -31.2341  -42.9067 C.3       8 UNK        -0.1912 
     52 C          23.9213  -33.0931  -41.7592 C.2       8 UNK         0.5038 
     53 O          23.8657  -34.0514  -42.5314 O.2       8 UNK        -0.5046 
     54 N          22.9450  -32.7645  -40.9032 N.am      9 UNK        -0.4200 
     55 CA         21.7304  -33.5568  -40.6582 C.3       9 UNK         0.0839 
     56 C          21.8831  -34.5580  -39.4752 C.2       9 UNK         0.5513 
     57 N          23.0458  -34.6927  -38.8459 N.am      9 UNK        -0.7519 
     58 O          20.9281  -35.2496  -39.1306 O.2       9 UNK        -0.4960 
     59 C59        20.4851  -32.6461  -40.4904 C.3       10 UNK        -0.0876 
     60 S60        20.1166  -31.7240  -42.0194 S.3       10 UNK        -0.2414 
     61 C61        18.3031  -31.5815  -41.9273 C.3       10 UNK         0.0169 
     62 H62        19.6690  -22.9319  -40.0093 H         1 UNK         0.0903 
     63 H63        20.9897  -22.4006  -41.0536 H         1 UNK         0.0903 
     64 H64        19.3835  -21.6899  -41.2306 H         1 UNK         0.0903 
     65 H65        18.3482  -22.4696  -43.0272 H         1 UNK         0.3096 
     66 H66        17.4563  -23.7037  -44.5488 H         1 UNK         0.1121 
     67 H67        17.2619  -25.5243  -42.5943 H         1 UNK         0.0849 
     68 H68        18.4256  -26.4169  -43.5382 H         1 UNK         0.0849 
     69 H69        15.6054  -27.3869  -42.6756 H         1 UNK         0.0865 
     70 H70        14.6415  -27.8331  -44.0591 H         1 UNK         0.0865 
     71 H71        16.8404  -29.2633  -41.8773 H         1 UNK         0.1346 
     72 H72        18.5372  -32.1290  -44.5734 H         1 UNK         0.1412 
     73 H73        16.3408  -28.7876  -46.1144 H         1 UNK         0.1426 
     74 H74        16.9152  -30.9848  -47.5141 H         1 UNK         0.0716 
     75 H75        18.2526  -31.9368  -46.9181 H         1 UNK         0.0716 
     76 H76        19.8687  -29.5925  -45.4561 H         1 UNK         0.0695 
     77 H77        20.9389  -30.5075  -46.4816 H         1 UNK         0.0695 
     78 H78        21.8059  -28.4825  -47.5106 H         1 UNK         0.0983 
     79 H79        19.4412  -27.1599  -46.4123 H         1 UNK         0.3095 
     80 H80        20.3032  -23.9823  -47.7134 H         1 UNK         0.0454 
     81 H81        19.4356  -25.1573  -49.7433 H         1 UNK         0.0851 
     82 H82        18.2150  -25.9646  -48.7702 H         1 UNK         0.0851 
     83 H83        18.1775  -24.2116  -48.9682 H         1 UNK         0.0851 
     84 H84        17.8923  -24.8557  -46.5429 H         1 UNK         0.2976 
     85 H85        21.3175  -26.4480  -44.8885 H         1 UNK         0.3116 
     86 H86        22.2945  -25.8994  -43.0034 H         1 UNK         0.0646 
     87 H87        24.5300  -26.6509  -42.3350 H         1 UNK         0.0847 
     88 H88        24.5313  -26.2595  -44.0475 H         1 UNK         0.0847 
     89 H89        24.5195  -27.9413  -43.5202 H         1 UNK         0.0847 
     90 H90        20.6153  -26.4764  -41.7298 H         1 UNK         0.3040 
     91 H91        19.8278  -29.1272  -41.1016 H         1 UNK         0.1015 
     92 H92        18.2678  -27.2199  -41.1835 H         1 UNK         0.0786 
     93 H93        19.0685  -26.4642  -39.8064 H         1 UNK         0.0786 
     94 H94        18.1942  -27.9779  -39.6065 H         1 UNK         0.0786 
     95 H95        22.5249  -27.7077  -39.9122 H         1 UNK         0.3172 
     96 H96        22.3961  -28.6196  -37.1170 H         1 UNK         0.0595 
     97 H97        24.6203  -27.5452  -36.9473 H         1 UNK         0.0839 
     98 H98        23.4771  -26.4443  -37.6778 H         1 UNK         0.0839 
     99 H99        24.6568  -27.2647  -38.6910 H         1 UNK         0.0839 
    100 H100       25.4752  -29.1457  -37.8578 H         1 UNK         0.2998 
    101 H101       25.4348  -31.8263  -37.2113 H         1 UNK         0.0822 
    102 H102       27.3778  -30.3399  -36.8437 H         1 UNK         0.0787 
    103 H103       27.8829  -31.7566  -37.7471 H         1 UNK         0.0787 
    104 H104       27.6620  -30.2250  -38.5817 H         1 UNK         0.0787 
    105 H105       25.2975  -30.5118  -40.4875 H         1 UNK         0.3055 
    106 H106       26.0417  -32.9155  -41.8728 H         1 UNK         0.1106 
    107 H107       24.3874  -30.5251  -42.8414 H         1 UNK         0.0828 
    108 H108       26.1421  -30.6677  -42.9413 H         1 UNK         0.0828 
    109 H109       25.1126  -31.7518  -43.8617 H         1 UNK         0.0828 
    110 H110       23.0826  -31.9788  -40.2766 H         1 UNK         0.2931 
    111 H111       21.5438  -34.1859  -41.5305 H         1 UNK         0.0412 
    112 H112       23.8573  -34.1525  -39.1189 H         1 UNK         0.3472 
    113 H113       23.1182  -35.3540  -38.0890 H         1 UNK         0.3472 
    114 H114       19.6076  -33.2402  -40.2286 H         1 UNK         0.0970 
    115 H115       20.6307  -31.9369  -39.6734 H         1 UNK         0.0970 
    116 H116       18.0324  -31.1154  -40.9785 H         1 UNK         0.0612 
    117 H117       17.8604  -32.5785  -41.9279 H         1 UNK         0.0612 
@<TRIPOS>BOND
     1    1    2 1    
     2    1   62 1    
     3    1   63 1    
     4    1   64 1    
     5    2    3 2    
     6    2    4 am   BACKBONE|DICT|INTERRES
     7    4    5 1    
     8    4   65 1    
     9    5    6 1    
    10    5   25 1    
    11    5   66 1    
    12    6    7 1    
    13    6   67 1    
    14    6   68 1    
    15    7    8 1    
    16    8    9 1    
    17    8   69 1    
    18    8   70 1    
    19    9   10 ar   
    20    9   14 ar   
    21   10   11 ar   
    22   10   71 1    
    23   11   12 ar   
    24   11   61 1    
    25   12   13 ar   
    26   12   72 1    
    27   13   14 ar   
    28   13   15 1    
    29   14   73 1    
    30   15   16 1    
    31   15   74 1    
    32   15   75 1    
    33   16   17 1    
    34   17   18 1    
    35   17   76 1    
    36   17   77 1    
    37   18   19 1    
    38   18   27 1    
    39   18   78 1    
    40   19   20 am   BACKBONE|DICT|INTERRES
    41   19   79 1    
    42   20   21 2    
    43   20   22 1    
    44   22   23 1    
    45   22   24 1    
    46   22   80 1    
    47   23   81 1    
    48   23   82 1    
    49   23   83 1    
    50   24   25 am   BACKBONE|DICT|INTERRES
    51   24   84 1    
    52   25   26 2    
    53   27   28 2    
    54   27   29 am   BACKBONE|DICT|INTERRES
    55   29   30 1    
    56   29   85 1    
    57   30   31 1    
    58   30   32 1    
    59   30   86 1    
    60   31   87 1    
    61   31   88 1    
    62   31   89 1    
    63   32   33 2    
    64   32   34 am   BACKBONE|DICT|INTERRES
    65   34   35 1    
    66   34   90 1    
    67   35   36 1    
    68   35   37 1    
    69   35   91 1    
    70   36   92 1    
    71   36   93 1    
    72   36   94 1    
    73   37   38 2    
    74   37   39 am   BACKBONE|DICT|INTERRES
    75   39   40 1    
    76   39   95 1    
    77   40   41 1    
    78   40   42 1    
    79   40   96 1    
    80   41   97 1    
    81   41   98 1    
    82   41   99 1    
    83   42   43 2    
    84   42   44 am   BACKBONE|DICT|INTERRES
    85   44   45 1    
    86   44  100 1    
    87   45   46 1    
    88   45   47 1    
    89   45  101 1    
    90   46  102 1    
    91   46  103 1    
    92   46  104 1    
    93   47   48 2    
    94   47   49 am   BACKBONE|DICT|INTERRES
    95   49   50 1    
    96   49  105 1    
    97   50   51 1    
    98   50   52 1    
    99   50  106 1    
   100   51  107 1    
   101   51  108 1    
   102   51  109 1    
   103   52   53 2    
   104   52   54 am   BACKBONE|DICT|INTERRES
   105   54   55 1    
   106   54  110 1    
   107   55   56 1    
   108   55   59 1    
   109   55  111 1    
   110   56   57 am   BACKBONE|DICT|INTERRES
   111   56   58 2    
   112   57  112 1    
   113   57  113 1    
   114   59   60 1    
   115   59  114 1    
   116   59  115 1    
   117   60   61 1    
   118   61  116 1    
   119   61  117 1    
@<TRIPOS>SUBSTRUCTURE
     1 UNK         1 GROUP             0       ****    0 ROOT    
