@<TRIPOS>MOLECULE
3R8
117   119    1
SMALL
USER_CHARGES


@<TRIPOS>ATOM
      1 CA         16.3079  -24.2108  -39.2415 C.3       0 UNK        -0.2013 
      2 C          16.8558  -24.4127  -40.6464 C.2       0 UNK         0.4866 
      3 O          17.4626  -23.4975  -41.2040 O.2       0 UNK        -0.5176 
      4 N          16.6409  -25.6012  -41.2249 N.am      1 UNK        -0.4884 
      5 CA         17.1768  -26.0012  -42.5305 C.3       1 UNK         0.0853 
      6 C6         16.3849  -27.2001  -43.1076 C.3       10 UNK        -0.0849 
      7 S7         16.4788  -27.2627  -44.9272 S.3       10 UNK        -0.2776 
      8 C8         16.0349  -29.0005  -45.2540 C.3       10 UNK         0.0316 
      9 C9         17.0472  -29.9972  -44.6991 C.ar      10 UNK        -0.0863 
     10 C10        16.6143  -31.0687  -43.9094 C.ar      10 UNK        -0.1009 
     11 C11        17.5288  -32.0091  -43.4252 C.ar      10 UNK        -0.0712 
     12 C12        18.8819  -31.8725  -43.7422 C.ar      10 UNK        -0.0894 
     13 C13        19.3342  -30.7994  -44.5106 C.ar      10 UNK        -0.0745 
     14 C14        18.4100  -29.8648  -44.9887 C.ar      10 UNK        -0.0972 
     15 C15        20.8274  -30.6340  -44.7554 C.3       10 UNK         0.0209 
     16 S16        21.2420  -30.2199  -46.4804 S.3       10 UNK        -0.2568 
     17 C17        22.9655  -29.6721  -46.2561 C.3       10 UNK        -0.0983 
     18 CA         23.0970  -28.1299  -46.1302 C.3       3 UNK         0.0876 
     19 N          22.3952  -27.5972  -44.9630 N.am      3 UNK        -0.4424 
     20 C          21.2733  -26.8745  -44.9710 C.2       2 UNK         0.4918 
     21 O          20.6128  -26.6052  -45.9761 O.2       2 UNK        -0.4875 
     22 CA         20.8614  -26.3131  -43.6095 C.3       2 UNK         0.0481 
     23 CB         21.5638  -24.9678  -43.3470 C.3       2 UNK        -0.1831 
     24 N          19.4159  -26.1295  -43.5406 N.am      2 UNK        -0.4498 
     25 C          18.6897  -26.2980  -42.4299 C.2       1 UNK         0.5027 
     26 O          19.1699  -26.6769  -41.3566 O.2       1 UNK        -0.4969 
     27 C          24.5548  -27.6766  -45.9517 C.2       3 UNK         0.5005 
     28 O          25.4320  -28.4979  -45.6760 O.2       3 UNK        -0.5279 
     29 N          24.7562  -26.3491  -45.9708 N.am      4 UNK        -0.4463 
     30 CA         25.9278  -25.5960  -45.4954 C.3       4 UNK         0.0283 
     31 CB         27.2360  -26.0138  -46.1970 C.3       4 UNK        -0.1875 
     32 C          26.0528  -25.6375  -43.9608 C.2       4 UNK         0.4949 
     33 O          26.0572  -24.5829  -43.3262 O.2       4 UNK        -0.5039 
     34 N          26.0911  -26.8473  -43.3909 N.am      5 UNK        -0.4663 
     35 CA         25.9118  -27.1051  -41.9637 C.3       5 UNK         0.0242 
     36 CB         26.5820  -28.4410  -41.6078 C.3       5 UNK        -0.1982 
     37 C          24.4105  -27.1471  -41.6373 C.2       5 UNK         0.5017 
     38 O          23.6424  -27.7352  -42.4051 O.2       5 UNK        -0.5012 
     39 N          24.0210  -26.5266  -40.5170 N.am      6 UNK        -0.4439 
     40 CA         22.6393  -26.4720  -40.0357 C.3       6 UNK         0.0297 
     41 CB         22.5063  -25.3593  -38.9840 C.3       6 UNK        -0.2006 
     42 C          22.1868  -27.8200  -39.4571 C.2       6 UNK         0.4892 
     43 O          22.9459  -28.4375  -38.7069 O.2       6 UNK        -0.5089 
     44 N          20.9523  -28.2215  -39.7964 N.am      7 UNK        -0.4243 
     45 CA         20.2462  -29.4275  -39.3418 C.3       7 UNK         0.0196 
     46 CB         19.8173  -29.2666  -37.8684 C.3       7 UNK        -0.2007 
     47 C          21.0109  -30.7430  -39.5960 C.2       7 UNK         0.5020 
     48 O          20.9050  -31.6807  -38.8031 O.2       7 UNK        -0.5147 
     49 N          21.7678  -30.8019  -40.7001 N.am      8 UNK        -0.4734 
     50 CA         22.6359  -31.9208  -41.0856 C.3       8 UNK         0.0238 
     51 CB         23.7244  -31.3872  -42.0358 C.3       8 UNK        -0.1912 
     52 C          21.8629  -33.1220  -41.6719 C.2       8 UNK         0.5038 
     53 O          22.2195  -33.6229  -42.7398 O.2       8 UNK        -0.5046 
     54 N          20.7986  -33.5424  -40.9812 N.am      9 UNK        -0.4200 
     55 CA         19.9362  -34.6754  -41.3388 C.3       9 UNK         0.0839 
     56 C          20.6254  -36.0422  -41.0833 C.2       9 UNK         0.5513 
     57 N          20.2819  -37.0622  -41.8577 N.am      9 UNK        -0.7519 
     58 O          21.4333  -36.1978  -40.1694 O.2       9 UNK        -0.4960 
     59 C59        18.5617  -34.6017  -40.6204 C.3       10 UNK        -0.0876 
     60 S60        17.6876  -33.0129  -40.8547 S.3       10 UNK        -0.2414 
     61 C61        17.0656  -33.1733  -42.5602 C.3       10 UNK         0.0169 
     62 H62        15.6138  -23.3710  -39.2262 H         1 UNK         0.0903 
     63 H63        15.7809  -25.0928  -38.8779 H         1 UNK         0.0903 
     64 H64        17.1217  -23.9935  -38.5501 H         1 UNK         0.0903 
     65 H65        16.1692  -26.3263  -40.7035 H         1 UNK         0.3096 
     66 H66        17.0502  -25.1464  -43.1998 H         1 UNK         0.1121 
     67 H67        15.3271  -27.1127  -42.8535 H         1 UNK         0.0849 
     68 H68        16.7210  -28.1426  -42.6702 H         1 UNK         0.0849 
     69 H69        15.0390  -29.1893  -44.8500 H         1 UNK         0.0865 
     70 H70        15.9600  -29.1459  -46.3324 H         1 UNK         0.0865 
     71 H71        15.5639  -31.1749  -43.6746 H         1 UNK         0.1346 
     72 H72        19.5910  -32.5935  -43.3681 H         1 UNK         0.1412 
     73 H73        18.7526  -29.0280  -45.5829 H         1 UNK         0.1426 
     74 H74        21.3644  -31.5459  -44.4899 H         1 UNK         0.0716 
     75 H75        21.1917  -29.8561  -44.0851 H         1 UNK         0.0716 
     76 H76        23.5363  -30.0257  -47.1166 H         1 UNK         0.0695 
     77 H77        23.3914  -30.1751  -45.3856 H         1 UNK         0.0695 
     78 H78        22.7191  -27.6711  -47.0468 H         1 UNK         0.0983 
     79 H79        22.8808  -27.7199  -44.0741 H         1 UNK         0.3095 
     80 H80        21.1642  -27.0401  -42.8549 H         1 UNK         0.0454 
     81 H81        22.6480  -25.0865  -43.3289 H         1 UNK         0.0851 
     82 H82        21.2690  -24.5412  -42.3884 H         1 UNK         0.0851 
     83 H83        21.3280  -24.2351  -44.1196 H         1 UNK         0.0851 
     84 H84        18.9622  -25.9085  -44.4184 H         1 UNK         0.2976 
     85 H85        23.9521  -25.7736  -46.1823 H         1 UNK         0.3116 
     86 H86        25.7367  -24.5566  -45.7678 H         1 UNK         0.0646 
     87 H87        27.5465  -27.0249  -45.9336 H         1 UNK         0.0847 
     88 H88        27.1368  -25.9656  -47.2812 H         1 UNK         0.0847 
     89 H89        28.0521  -25.3470  -45.9163 H         1 UNK         0.0847 
     90 H90        26.0136  -27.6486  -44.0116 H         1 UNK         0.3040 
     91 H91        26.3878  -26.3085  -41.3873 H         1 UNK         0.1015 
     92 H92        26.4231  -28.6937  -40.5584 H         1 UNK         0.0786 
     93 H93        27.6588  -28.3974  -41.7722 H         1 UNK         0.0786 
     94 H94        26.1875  -29.2620  -42.2074 H         1 UNK         0.0786 
     95 H95        24.7206  -26.1098  -39.9199 H         1 UNK         0.3172 
     96 H96        21.9924  -26.2163  -40.8732 H         1 UNK         0.0595 
     97 H97        23.1350  -25.5482  -38.1127 H         1 UNK         0.0839 
     98 H98        21.4769  -25.2797  -38.6313 H         1 UNK         0.0839 
     99 H99        22.7818  -24.3880  -39.3953 H         1 UNK         0.0839 
    100 H100       20.4009  -27.6162  -40.4051 H         1 UNK         0.2998 
    101 H101       19.3383  -29.4905  -39.9441 H         1 UNK         0.0822 
    102 H102       19.1812  -30.0940  -37.5511 H         1 UNK         0.0787 
    103 H103       19.2489  -28.3485  -37.7194 H         1 UNK         0.0787 
    104 H104       20.6784  -29.2413  -37.1996 H         1 UNK         0.0787 
    105 H105       21.7937  -29.9870  -41.2959 H         1 UNK         0.3055 
    106 H106       23.1374  -32.2882  -40.1872 H         1 UNK         0.1106 
    107 H107       24.2936  -30.5856  -41.5660 H         1 UNK         0.0828 
    108 H108       24.4337  -32.1711  -42.3043 H         1 UNK         0.0828 
    109 H109       23.3015  -30.9966  -42.9613 H         1 UNK         0.0828 
    110 H110       20.5936  -33.0743  -40.1041 H         1 UNK         0.2931 
    111 H111       19.7504  -34.6145  -42.4120 H         1 UNK         0.0412 
    112 H112       19.6154  -36.9500  -42.6062 H         1 UNK         0.3472 
    113 H113       20.7068  -37.9629  -41.6985 H         1 UNK         0.3472 
    114 H114       17.9086  -35.4103  -40.9541 H         1 UNK         0.0970 
    115 H115       18.6925  -34.7489  -39.5465 H         1 UNK         0.0970 
    116 H116       15.9763  -33.2262  -42.5309 H         1 UNK         0.0612 
    117 H117       17.4047  -34.1079  -43.0083 H         1 UNK         0.0612 
@<TRIPOS>BOND
     1    1    2 1    
     2    1   62 1    
     3    1   63 1    
     4    1   64 1    
     5    2    3 2    
     6    2    4 am   BACKBONE|DICT|INTERRES
     7    4    5 1    
     8    4   65 1    
     9    5    6 1    
    10    5   25 1    
    11    5   66 1    
    12    6    7 1    
    13    6   67 1    
    14    6   68 1    
    15    7    8 1    
    16    8    9 1    
    17    8   69 1    
    18    8   70 1    
    19    9   10 ar   
    20    9   14 ar   
    21   10   11 ar   
    22   10   71 1    
    23   11   12 ar   
    24   11   61 1    
    25   12   13 ar   
    26   12   72 1    
    27   13   14 ar   
    28   13   15 1    
    29   14   73 1    
    30   15   16 1    
    31   15   74 1    
    32   15   75 1    
    33   16   17 1    
    34   17   18 1    
    35   17   76 1    
    36   17   77 1    
    37   18   19 1    
    38   18   27 1    
    39   18   78 1    
    40   19   20 am   BACKBONE|DICT|INTERRES
    41   19   79 1    
    42   20   21 2    
    43   20   22 1    
    44   22   23 1    
    45   22   24 1    
    46   22   80 1    
    47   23   81 1    
    48   23   82 1    
    49   23   83 1    
    50   24   25 am   BACKBONE|DICT|INTERRES
    51   24   84 1    
    52   25   26 2    
    53   27   28 2    
    54   27   29 am   BACKBONE|DICT|INTERRES
    55   29   30 1    
    56   29   85 1    
    57   30   31 1    
    58   30   32 1    
    59   30   86 1    
    60   31   87 1    
    61   31   88 1    
    62   31   89 1    
    63   32   33 2    
    64   32   34 am   BACKBONE|DICT|INTERRES
    65   34   35 1    
    66   34   90 1    
    67   35   36 1    
    68   35   37 1    
    69   35   91 1    
    70   36   92 1    
    71   36   93 1    
    72   36   94 1    
    73   37   38 2    
    74   37   39 am   BACKBONE|DICT|INTERRES
    75   39   40 1    
    76   39   95 1    
    77   40   41 1    
    78   40   42 1    
    79   40   96 1    
    80   41   97 1    
    81   41   98 1    
    82   41   99 1    
    83   42   43 2    
    84   42   44 am   BACKBONE|DICT|INTERRES
    85   44   45 1    
    86   44  100 1    
    87   45   46 1    
    88   45   47 1    
    89   45  101 1    
    90   46  102 1    
    91   46  103 1    
    92   46  104 1    
    93   47   48 2    
    94   47   49 am   BACKBONE|DICT|INTERRES
    95   49   50 1    
    96   49  105 1    
    97   50   51 1    
    98   50   52 1    
    99   50  106 1    
   100   51  107 1    
   101   51  108 1    
   102   51  109 1    
   103   52   53 2    
   104   52   54 am   BACKBONE|DICT|INTERRES
   105   54   55 1    
   106   54  110 1    
   107   55   56 1    
   108   55   59 1    
   109   55  111 1    
   110   56   57 am   BACKBONE|DICT|INTERRES
   111   56   58 2    
   112   57  112 1    
   113   57  113 1    
   114   59   60 1    
   115   59  114 1    
   116   59  115 1    
   117   60   61 1    
   118   61  116 1    
   119   61  117 1    
@<TRIPOS>SUBSTRUCTURE
     1 UNK         1 GROUP             0       ****    0 ROOT    
