@<TRIPOS>MOLECULE
3R8
117   119    1
SMALL
USER_CHARGES


@<TRIPOS>ATOM
      1 CA         14.2218  -24.8003  -50.1272 C.3       0 UNK        -0.2013 
      2 C          15.3855  -25.4133  -49.3623 C.2       0 UNK         0.4866 
      3 O          16.4182  -25.7190  -49.9600 O.2       0 UNK        -0.5176 
      4 N          15.2241  -25.6048  -48.0475 N.am      1 UNK        -0.4884 
      5 CA         16.2545  -26.1364  -47.1508 C.3       1 UNK         0.0853 
      6 C6         15.6749  -26.5207  -45.7671 C.3       10 UNK        -0.0849 
      7 S7         14.5073  -27.9208  -45.7945 S.3       10 UNK        -0.2776 
      8 C8         15.5244  -29.2868  -45.1133 C.3       10 UNK         0.0316 
      9 C9         16.0825  -29.1058  -43.6942 C.ar      10 UNK        -0.0863 
     10 C10        16.9898  -30.0588  -43.2169 C.ar      10 UNK        -0.1009 
     11 C11        17.5583  -29.9377  -41.9449 C.ar      10 UNK        -0.0712 
     12 C12        17.2355  -28.8372  -41.1478 C.ar      10 UNK        -0.0894 
     13 C13        16.3436  -27.8684  -41.6121 C.ar      10 UNK        -0.0745 
     14 C14        15.7431  -28.0278  -42.8639 C.ar      10 UNK        -0.0972 
     15 C15        16.0451  -26.6304  -40.7809 C.3       10 UNK         0.0209 
     16 S16        16.9006  -25.1656  -41.4505 S.3       10 UNK        -0.2568 
     17 C17        18.6304  -25.4475  -40.9337 C.3       10 UNK        -0.0983 
     18 CA         19.5058  -26.1199  -42.0260 C.3       3 UNK         0.0876 
     19 N          19.4981  -25.3730  -43.2912 N.am      3 UNK        -0.4424 
     20 C          19.7237  -25.9151  -44.4934 C.2       2 UNK         0.4918 
     21 O          20.0088  -27.1033  -44.6657 O.2       2 UNK        -0.4875 
     22 CA         19.5631  -25.0101  -45.7193 C.3       2 UNK         0.0481 
     23 CB         20.8795  -24.8883  -46.5039 C.3       2 UNK        -0.1831 
     24 N          18.5544  -25.6723  -46.5346 N.am      2 UNK        -0.4498 
     25 C          17.3953  -25.1265  -46.9134 C.2       1 UNK         0.5027 
     26 O          17.1777  -23.9123  -46.9514 O.2       1 UNK        -0.4969 
     27 C          20.9548  -26.3651  -41.5505 C.2       3 UNK         0.5005 
     28 O          21.3766  -25.8315  -40.5212 O.2       3 UNK        -0.5279 
     29 N          21.7111  -27.1371  -42.3397 N.am      4 UNK        -0.4463 
     30 CA         23.1237  -27.4566  -42.1447 C.3       4 UNK         0.0283 
     31 CB         23.7166  -27.8918  -43.4947 C.3       4 UNK        -0.1875 
     32 C          23.3274  -28.5031  -41.0338 C.2       4 UNK         0.4949 
     33 O          23.7155  -29.6408  -41.3045 O.2       4 UNK        -0.5039 
     34 N          23.0661  -28.0839  -39.7890 N.am      5 UNK        -0.4663 
     35 CA         23.1853  -28.8810  -38.5618 C.3       5 UNK         0.0242 
     36 CB         22.6676  -28.0501  -37.3772 C.3       5 UNK        -0.1982 
     37 C          24.6044  -29.4071  -38.2726 C.2       5 UNK         0.5017 
     38 O          24.7479  -30.3698  -37.5172 O.2       5 UNK        -0.5012 
     39 N          25.6223  -28.7874  -38.8852 N.am      6 UNK        -0.4439 
     40 CA         27.0204  -29.2149  -38.8812 C.3       6 UNK         0.0297 
     41 CB         27.9005  -28.0403  -39.3469 C.3       6 UNK        -0.2006 
     42 C          27.2213  -30.4765  -39.7442 C.2       6 UNK         0.4892 
     43 O          27.7532  -30.3911  -40.8522 O.2       6 UNK        -0.5089 
     44 N          26.7597  -31.6189  -39.2194 N.am      7 UNK        -0.4243 
     45 CA         26.8663  -32.9951  -39.7251 C.3       7 UNK         0.0196 
     46 CB         28.3405  -33.4208  -39.8708 C.3       7 UNK        -0.2007 
     47 C          26.0798  -33.3123  -41.0109 C.2       7 UNK         0.5020 
     48 O          25.6302  -34.4492  -41.1535 O.2       7 UNK        -0.5147 
     49 N          25.9154  -32.3442  -41.9212 N.am      8 UNK        -0.4734 
     50 CA         25.2592  -32.5175  -43.2248 C.3       8 UNK         0.0238 
     51 CB         25.4397  -31.2457  -44.0635 C.3       8 UNK        -0.1912 
     52 C          23.7760  -32.9251  -43.1403 C.2       8 UNK         0.5038 
     53 O          23.3216  -33.7049  -43.9787 O.2       8 UNK        -0.5046 
     54 N          23.0681  -32.4360  -42.1143 N.am      9 UNK        -0.4200 
     55 CA         21.7248  -32.8947  -41.7207 C.3       9 UNK         0.0839 
     56 C          21.6626  -34.3525  -41.1677 C.2       9 UNK         0.5513 
     57 N          22.7702  -35.0322  -40.8959 N.am      9 UNK        -0.7519 
     58 O          20.5708  -34.8850  -40.9854 O.2       9 UNK        -0.4960 
     59 C59        21.0555  -31.8981  -40.7341 C.3       10 UNK        -0.0876 
     60 S60        20.2497  -30.5005  -41.5863 S.3       10 UNK        -0.2414 
     61 C61        18.5085  -31.0008  -41.4193 C.3       10 UNK         0.0169 
     62 H62        14.5297  -23.8631  -50.5901 H         1 UNK         0.0903 
     63 H63        13.8918  -25.4774  -50.9146 H         1 UNK         0.0903 
     64 H64        13.3704  -24.5944  -49.4786 H         1 UNK         0.0903 
     65 H65        14.3589  -25.3298  -47.6046 H         1 UNK         0.3096 
     66 H66        16.6797  -27.0285  -47.6172 H         1 UNK         0.1121 
     67 H67        16.4853  -26.7660  -45.0793 H         1 UNK         0.0849 
     68 H68        15.1634  -25.6663  -45.3185 H         1 UNK         0.0849 
     69 H69        16.3553  -29.4617  -45.7986 H         1 UNK         0.0865 
     70 H70        14.9205  -30.1951  -45.1298 H         1 UNK         0.0865 
     71 H71        17.2558  -30.9029  -43.8391 H         1 UNK         0.1346 
     72 H72        17.6929  -28.7290  -40.1737 H         1 UNK         0.1412 
     73 H73        15.0401  -27.2770  -43.1940 H         1 UNK         0.1426 
     74 H74        16.3231  -26.7786  -39.7363 H         1 UNK         0.0716 
     75 H75        14.9703  -26.4436  -40.7868 H         1 UNK         0.0716 
     76 H76        18.6331  -26.0470  -40.0214 H         1 UNK         0.0695 
     77 H77        19.0492  -24.4782  -40.6569 H         1 UNK         0.0695 
     78 H78        19.0789  -27.1061  -42.2172 H         1 UNK         0.0983 
     79 H79        19.2674  -24.3923  -43.2244 H         1 UNK         0.3095 
     80 H80        19.2340  -24.0174  -45.4041 H         1 UNK         0.0454 
     81 H81        20.7496  -24.2779  -47.3976 H         1 UNK         0.0851 
     82 H82        21.2591  -25.8618  -46.8175 H         1 UNK         0.0851 
     83 H83        21.6524  -24.4162  -45.8963 H         1 UNK         0.0851 
     84 H84        18.6297  -26.6818  -46.5195 H         1 UNK         0.2976 
     85 H85        21.2709  -27.5147  -43.1735 H         1 UNK         0.3116 
     86 H86        23.6440  -26.5471  -41.8369 H         1 UNK         0.0646 
     87 H87        24.7872  -28.0779  -43.4048 H         1 UNK         0.0847 
     88 H88        23.5892  -27.1181  -44.2521 H         1 UNK         0.0847 
     89 H89        23.2462  -28.8029  -43.8668 H         1 UNK         0.0847 
     90 H90        22.6803  -27.1490  -39.6934 H         1 UNK         0.3040 
     91 H91        22.5400  -29.7534  -38.6735 H         1 UNK         0.1015 
     92 H92        21.6297  -27.7509  -37.5261 H         1 UNK         0.0786 
     93 H93        23.2600  -27.1462  -37.2296 H         1 UNK         0.0786 
     94 H94        22.7079  -28.6226  -36.4493 H         1 UNK         0.0786 
     95 H95        25.3876  -28.0234  -39.5014 H         1 UNK         0.3172 
     96 H96        27.3078  -29.4614  -37.8568 H         1 UNK         0.0595 
     97 H97        27.6463  -27.7168  -40.3572 H         1 UNK         0.0839 
     98 H98        28.9544  -28.3221  -39.3516 H         1 UNK         0.0839 
     99 H99        27.7998  -27.1809  -38.6838 H         1 UNK         0.0839 
    100 H100       26.2345  -31.5224  -38.3556 H         1 UNK         0.2998 
    101 H101       26.4259  -33.6183  -38.9449 H         1 UNK         0.0822 
    102 H102       28.8866  -33.2873  -38.9370 H         1 UNK         0.0787 
    103 H103       28.4161  -34.4748  -40.1419 H         1 UNK         0.0787 
    104 H104       28.8547  -32.8512  -40.6456 H         1 UNK         0.0787 
    105 H105       26.3555  -31.4484  -41.7326 H         1 UNK         0.3055 
    106 H106       25.7757  -33.3315  -43.7385 H         1 UNK         0.1106 
    107 H107       26.4928  -31.0482  -44.2639 H         1 UNK         0.0828 
    108 H108       24.9346  -31.3307  -45.0266 H         1 UNK         0.0828 
    109 H109       25.0295  -30.3792  -43.5507 H         1 UNK         0.0828 
    110 H110       23.4931  -31.7194  -41.5371 H         1 UNK         0.2931 
    111 H111       21.1221  -32.9215  -42.6308 H         1 UNK         0.0412 
    112 H112       22.6881  -35.9727  -40.5438 H         1 UNK         0.3472 
    113 H113       23.6924  -34.6425  -41.0607 H         1 UNK         0.3472 
    114 H114       20.3079  -32.3883  -40.1074 H         1 UNK         0.0970 
    115 H115       21.7929  -31.5058  -40.0337 H         1 UNK         0.0970 
    116 H116       18.3555  -31.9448  -41.9449 H         1 UNK         0.0612 
    117 H117       18.2837  -31.1917  -40.3688 H         1 UNK         0.0612 
@<TRIPOS>BOND
     1    1    2 1    
     2    1   62 1    
     3    1   63 1    
     4    1   64 1    
     5    2    3 2    
     6    2    4 am   BACKBONE|DICT|INTERRES
     7    4    5 1    
     8    4   65 1    
     9    5    6 1    
    10    5   25 1    
    11    5   66 1    
    12    6    7 1    
    13    6   67 1    
    14    6   68 1    
    15    7    8 1    
    16    8    9 1    
    17    8   69 1    
    18    8   70 1    
    19    9   10 ar   
    20    9   14 ar   
    21   10   11 ar   
    22   10   71 1    
    23   11   12 ar   
    24   11   61 1    
    25   12   13 ar   
    26   12   72 1    
    27   13   14 ar   
    28   13   15 1    
    29   14   73 1    
    30   15   16 1    
    31   15   74 1    
    32   15   75 1    
    33   16   17 1    
    34   17   18 1    
    35   17   76 1    
    36   17   77 1    
    37   18   19 1    
    38   18   27 1    
    39   18   78 1    
    40   19   20 am   BACKBONE|DICT|INTERRES
    41   19   79 1    
    42   20   21 2    
    43   20   22 1    
    44   22   23 1    
    45   22   24 1    
    46   22   80 1    
    47   23   81 1    
    48   23   82 1    
    49   23   83 1    
    50   24   25 am   BACKBONE|DICT|INTERRES
    51   24   84 1    
    52   25   26 2    
    53   27   28 2    
    54   27   29 am   BACKBONE|DICT|INTERRES
    55   29   30 1    
    56   29   85 1    
    57   30   31 1    
    58   30   32 1    
    59   30   86 1    
    60   31   87 1    
    61   31   88 1    
    62   31   89 1    
    63   32   33 2    
    64   32   34 am   BACKBONE|DICT|INTERRES
    65   34   35 1    
    66   34   90 1    
    67   35   36 1    
    68   35   37 1    
    69   35   91 1    
    70   36   92 1    
    71   36   93 1    
    72   36   94 1    
    73   37   38 2    
    74   37   39 am   BACKBONE|DICT|INTERRES
    75   39   40 1    
    76   39   95 1    
    77   40   41 1    
    78   40   42 1    
    79   40   96 1    
    80   41   97 1    
    81   41   98 1    
    82   41   99 1    
    83   42   43 2    
    84   42   44 am   BACKBONE|DICT|INTERRES
    85   44   45 1    
    86   44  100 1    
    87   45   46 1    
    88   45   47 1    
    89   45  101 1    
    90   46  102 1    
    91   46  103 1    
    92   46  104 1    
    93   47   48 2    
    94   47   49 am   BACKBONE|DICT|INTERRES
    95   49   50 1    
    96   49  105 1    
    97   50   51 1    
    98   50   52 1    
    99   50  106 1    
   100   51  107 1    
   101   51  108 1    
   102   51  109 1    
   103   52   53 2    
   104   52   54 am   BACKBONE|DICT|INTERRES
   105   54   55 1    
   106   54  110 1    
   107   55   56 1    
   108   55   59 1    
   109   55  111 1    
   110   56   57 am   BACKBONE|DICT|INTERRES
   111   56   58 2    
   112   57  112 1    
   113   57  113 1    
   114   59   60 1    
   115   59  114 1    
   116   59  115 1    
   117   60   61 1    
   118   61  116 1    
   119   61  117 1    
@<TRIPOS>SUBSTRUCTURE
     1 UNK         1 GROUP             0       ****    0 ROOT    
