@<TRIPOS>MOLECULE
3R8
117   119    1
SMALL
USER_CHARGES


@<TRIPOS>ATOM
      1 CA         15.5098  -28.1188  -50.2003 C.3       0 UNK        -0.2013 
      2 C          16.2907  -28.9871  -49.2253 C.2       0 UNK         0.4866 
      3 O          17.2177  -29.6860  -49.6349 O.2       0 UNK        -0.5176 
      4 N          15.9199  -28.9512  -47.9389 N.am      1 UNK        -0.4884 
      5 CA         16.5732  -29.6872  -46.8477 C.3       1 UNK         0.0853 
      6 C6         15.6908  -29.7604  -45.5732 C.3       10 UNK        -0.0849 
      7 S7         14.9363  -28.1656  -45.0968 S.3       10 UNK        -0.2776 
      8 C8         14.6124  -28.4246  -43.3242 C.3       10 UNK         0.0316 
      9 C9         15.7305  -27.8678  -42.4549 C.ar      10 UNK        -0.0863 
     10 C10        16.5591  -28.7179  -41.7140 C.ar      10 UNK        -0.1009 
     11 C11        17.5426  -28.1860  -40.8723 C.ar      10 UNK        -0.0712 
     12 C12        17.6975  -26.7998  -40.7796 C.ar      10 UNK        -0.0894 
     13 C13        16.9026  -25.9448  -41.5453 C.ar      10 UNK        -0.0745 
     14 C14        15.9113  -26.4840  -42.3685 C.ar      10 UNK        -0.0972 
     15 C15        17.1150  -24.4402  -41.4958 C.3       10 UNK         0.0209 
     16 S16        18.0641  -23.8624  -42.9388 S.3       10 UNK        -0.2568 
     17 C17        19.7833  -24.2682  -42.4704 C.3       10 UNK        -0.0983 
     18 CA         20.2806  -25.6571  -42.9619 C.3       3 UNK         0.0876 
     19 N          19.9789  -25.8872  -44.3826 N.am      3 UNK        -0.4424 
     20 C          19.8700  -27.0843  -44.9710 C.2       2 UNK         0.4918 
     21 O          20.1490  -28.1399  -44.4017 O.2       2 UNK        -0.4875 
     22 CA         19.4379  -27.0864  -46.4484 C.3       2 UNK         0.0481 
     23 CB         20.5864  -27.5655  -47.3586 C.3       2 UNK        -0.1831 
     24 N          18.2069  -27.8530  -46.6865 N.am      2 UNK        -0.4498 
     25 C          17.9924  -29.1714  -46.5321 C.2       1 UNK         0.5027 
     26 O          18.8479  -29.9874  -46.1890 O.2       1 UNK        -0.4969 
     27 C          21.7679  -25.9000  -42.5968 C.2       3 UNK         0.5005 
     28 O          22.3512  -25.1308  -41.8287 O.2       3 UNK        -0.5279 
     29 N          22.3698  -26.9657  -43.1386 N.am      4 UNK        -0.4463 
     30 CA         23.7488  -27.3941  -42.9036 C.3       4 UNK         0.0283 
     31 CB         24.2226  -28.2329  -44.1053 C.3       4 UNK        -0.1875 
     32 C          23.8646  -28.1552  -41.5723 C.2       4 UNK         0.4949 
     33 O          24.2076  -29.3383  -41.5638 O.2       4 UNK        -0.5039 
     34 N          23.5561  -27.4680  -40.4648 N.am      5 UNK        -0.4663 
     35 CA         23.4654  -28.0211  -39.1075 C.3       5 UNK         0.0242 
     36 CB         23.0285  -26.9137  -38.1369 C.3       5 UNK        -0.1982 
     37 C          24.7469  -28.7102  -38.6080 C.2       5 UNK         0.5017 
     38 O          24.6524  -29.6877  -37.8663 O.2       5 UNK        -0.5012 
     39 N          25.9123  -28.2381  -39.0734 N.am      6 UNK        -0.4439 
     40 CA         27.2268  -28.8429  -38.8297 C.3       6 UNK         0.0297 
     41 CB         28.3202  -27.9025  -39.3617 C.3       6 UNK        -0.2006 
     42 C          27.3903  -30.2518  -39.4368 C.2       6 UNK         0.4892 
     43 O          28.2046  -31.0272  -38.9352 O.2       6 UNK        -0.5089 
     44 N          26.6126  -30.5599  -40.4836 N.am      7 UNK        -0.4243 
     45 CA         26.5356  -31.8682  -41.1365 C.3       7 UNK         0.0196 
     46 CB         26.6526  -31.6576  -42.6575 C.3       7 UNK        -0.2007 
     47 C          25.2291  -32.6064  -40.7811 C.2       7 UNK         0.5020 
     48 O          24.9380  -33.6304  -41.3990 O.2       7 UNK        -0.5147 
     49 N          24.4608  -32.0757  -39.8151 N.am      8 UNK        -0.4734 
     50 CA         23.1290  -32.5190  -39.3792 C.3       8 UNK         0.0238 
     51 CB         23.1816  -33.9374  -38.7709 C.3       8 UNK        -0.1912 
     52 C          22.0364  -32.3660  -40.4595 C.2       8 UNK         0.5038 
     53 O          21.0400  -33.0911  -40.4179 O.2       8 UNK        -0.5046 
     54 N          22.2256  -31.4039  -41.3741 N.am      9 UNK        -0.4200 
     55 CA         21.3230  -31.0313  -42.4775 C.3       9 UNK         0.0839 
     56 C          21.1990  -32.1250  -43.5800 C.2       9 UNK         0.5513 
     57 N          20.4546  -31.8661  -44.6452 N.am      9 UNK        -0.7519 
     58 O          21.7934  -33.1993  -43.5141 O.2       9 UNK        -0.4960 
     59 C59        19.9438  -30.5024  -41.9822 C.3       10 UNK        -0.0876 
     60 S60        20.1188  -29.1658  -40.7493 S.3       10 UNK        -0.2414 
     61 C61        18.4425  -29.0940  -40.0502 C.3       10 UNK         0.0169 
     62 H62        15.0540  -28.7383  -50.9722 H         1 UNK         0.0903 
     63 H63        14.7176  -27.5584  -49.7040 H         1 UNK         0.0903 
     64 H64        16.1768  -27.4061  -50.6849 H         1 UNK         0.0903 
     65 H65        15.1467  -28.3651  -47.6530 H         1 UNK         0.3096 
     66 H66        16.7088  -30.7136  -47.1977 H         1 UNK         0.1121 
     67 H67        14.8760  -30.4659  -45.7435 H         1 UNK         0.0849 
     68 H68        16.2567  -30.1664  -44.7313 H         1 UNK         0.0849 
     69 H69        13.6815  -27.9184  -43.0638 H         1 UNK         0.0865 
     70 H70        14.4432  -29.4836  -43.1225 H         1 UNK         0.0865 
     71 H71        16.4312  -29.7897  -41.7803 H         1 UNK         0.1346 
     72 H72        18.4619  -26.3900  -40.1332 H         1 UNK         0.1412 
     73 H73        15.2842  -25.8246  -42.9535 H         1 UNK         0.1426 
     74 H74        17.6148  -24.1425  -40.5728 H         1 UNK         0.0716 
     75 H75        16.1457  -23.9393  -41.4907 H         1 UNK         0.0716 
     76 H76        20.4174  -23.4798  -42.8806 H         1 UNK         0.0695 
     77 H77        19.8780  -24.1921  -41.3855 H         1 UNK         0.0695 
     78 H78        19.7322  -26.4147  -42.4031 H         1 UNK         0.0983 
     79 H79        19.7634  -25.0589  -44.9184 H         1 UNK         0.3095 
     80 H80        19.2028  -26.0596  -46.7341 H         1 UNK         0.0454 
     81 H81        21.4596  -26.9198  -47.2550 H         1 UNK         0.0851 
     82 H82        20.9063  -28.5794  -47.1140 H         1 UNK         0.0851 
     83 H83        20.2936  -27.5513  -48.4083 H         1 UNK         0.0851 
     84 H84        17.4042  -27.3010  -46.9563 H         1 UNK         0.2976 
     85 H85        21.7808  -27.5855  -43.6902 H         1 UNK         0.3116 
     86 H86        24.3908  -26.5134  -42.8364 H         1 UNK         0.0646 
     87 H87        25.2567  -28.5544  -43.9736 H         1 UNK         0.0847 
     88 H88        24.1788  -27.6590  -45.0309 H         1 UNK         0.0847 
     89 H89        23.6176  -29.1301  -44.2399 H         1 UNK         0.0847 
     90 H90        23.2536  -26.5071  -40.5918 H         1 UNK         0.3040 
     91 H91        22.6847  -28.7846  -39.1250 H         1 UNK         0.1015 
     92 H92        22.0604  -26.4995  -38.4200 H         1 UNK         0.0786 
     93 H93        23.7491  -26.0954  -38.1071 H         1 UNK         0.0786 
     94 H94        22.9290  -27.3000  -37.1214 H         1 UNK         0.0786 
     95 H95        25.8830  -27.4335  -39.6833 H         1 UNK         0.3172 
     96 H96        27.3527  -28.9372  -37.7490 H         1 UNK         0.0595 
     97 H97        29.3134  -28.3102  -39.1676 H         1 UNK         0.0839 
     98 H98        28.2748  -26.9256  -38.8797 H         1 UNK         0.0839 
     99 H99        28.2358  -27.7520  -40.4389 H         1 UNK         0.0839 
    100 H100       25.9379  -29.8760  -40.8139 H         1 UNK         0.2998 
    101 H101       27.3622  -32.5043  -40.8137 H         1 UNK         0.0822 
    102 H102       25.8145  -31.0793  -43.0489 H         1 UNK         0.0787 
    103 H103       27.5722  -31.1322  -42.9153 H         1 UNK         0.0787 
    104 H104       26.6668  -32.6109  -43.1873 H         1 UNK         0.0787 
    105 H105       24.8027  -31.2434  -39.3486 H         1 UNK         0.3055 
    106 H106       22.8389  -31.8362  -38.5787 H         1 UNK         0.1106 
    107 H107       23.3779  -34.6969  -39.5280 H         1 UNK         0.0828 
    108 H108       23.9558  -34.0141  -38.0076 H         1 UNK         0.0828 
    109 H109       22.2342  -34.1939  -38.2953 H         1 UNK         0.0828 
    110 H110       23.0809  -30.8584  -41.3309 H         1 UNK         0.2931 
    111 H111       21.8268  -30.1983  -42.9679 H         1 UNK         0.0412 
    112 H112       20.3849  -32.5684  -45.3638 H         1 UNK         0.3472 
    113 H113       19.9929  -30.9739  -44.7904 H         1 UNK         0.3472 
    114 H114       19.3541  -30.1134  -42.8136 H         1 UNK         0.0970 
    115 H115       19.3601  -31.3164  -41.5502 H         1 UNK         0.0970 
    116 H116       18.0237  -30.0980  -39.9684 H         1 UNK         0.0612 
    117 H117       18.5067  -28.7074  -39.0321 H         1 UNK         0.0612 
@<TRIPOS>BOND
     1    1    2 1    
     2    1   62 1    
     3    1   63 1    
     4    1   64 1    
     5    2    3 2    
     6    2    4 am   BACKBONE|DICT|INTERRES
     7    4    5 1    
     8    4   65 1    
     9    5    6 1    
    10    5   25 1    
    11    5   66 1    
    12    6    7 1    
    13    6   67 1    
    14    6   68 1    
    15    7    8 1    
    16    8    9 1    
    17    8   69 1    
    18    8   70 1    
    19    9   10 ar   
    20    9   14 ar   
    21   10   11 ar   
    22   10   71 1    
    23   11   12 ar   
    24   11   61 1    
    25   12   13 ar   
    26   12   72 1    
    27   13   14 ar   
    28   13   15 1    
    29   14   73 1    
    30   15   16 1    
    31   15   74 1    
    32   15   75 1    
    33   16   17 1    
    34   17   18 1    
    35   17   76 1    
    36   17   77 1    
    37   18   19 1    
    38   18   27 1    
    39   18   78 1    
    40   19   20 am   BACKBONE|DICT|INTERRES
    41   19   79 1    
    42   20   21 2    
    43   20   22 1    
    44   22   23 1    
    45   22   24 1    
    46   22   80 1    
    47   23   81 1    
    48   23   82 1    
    49   23   83 1    
    50   24   25 am   BACKBONE|DICT|INTERRES
    51   24   84 1    
    52   25   26 2    
    53   27   28 2    
    54   27   29 am   BACKBONE|DICT|INTERRES
    55   29   30 1    
    56   29   85 1    
    57   30   31 1    
    58   30   32 1    
    59   30   86 1    
    60   31   87 1    
    61   31   88 1    
    62   31   89 1    
    63   32   33 2    
    64   32   34 am   BACKBONE|DICT|INTERRES
    65   34   35 1    
    66   34   90 1    
    67   35   36 1    
    68   35   37 1    
    69   35   91 1    
    70   36   92 1    
    71   36   93 1    
    72   36   94 1    
    73   37   38 2    
    74   37   39 am   BACKBONE|DICT|INTERRES
    75   39   40 1    
    76   39   95 1    
    77   40   41 1    
    78   40   42 1    
    79   40   96 1    
    80   41   97 1    
    81   41   98 1    
    82   41   99 1    
    83   42   43 2    
    84   42   44 am   BACKBONE|DICT|INTERRES
    85   44   45 1    
    86   44  100 1    
    87   45   46 1    
    88   45   47 1    
    89   45  101 1    
    90   46  102 1    
    91   46  103 1    
    92   46  104 1    
    93   47   48 2    
    94   47   49 am   BACKBONE|DICT|INTERRES
    95   49   50 1    
    96   49  105 1    
    97   50   51 1    
    98   50   52 1    
    99   50  106 1    
   100   51  107 1    
   101   51  108 1    
   102   51  109 1    
   103   52   53 2    
   104   52   54 am   BACKBONE|DICT|INTERRES
   105   54   55 1    
   106   54  110 1    
   107   55   56 1    
   108   55   59 1    
   109   55  111 1    
   110   56   57 am   BACKBONE|DICT|INTERRES
   111   56   58 2    
   112   57  112 1    
   113   57  113 1    
   114   59   60 1    
   115   59  114 1    
   116   59  115 1    
   117   60   61 1    
   118   61  116 1    
   119   61  117 1    
@<TRIPOS>SUBSTRUCTURE
     1 UNK         1 GROUP             0       ****    0 ROOT    
