@<TRIPOS>MOLECULE
3R8
117   119    1
SMALL
USER_CHARGES


@<TRIPOS>ATOM
      1 CA         15.5142  -24.1148  -40.5583 C.3       0 UNK        -0.2013 
      2 C          15.6160  -24.5518  -42.0121 C.2       0 UNK         0.4866 
      3 O          14.6357  -24.4583  -42.7511 O.2       0 UNK        -0.5176 
      4 N          16.7937  -25.0260  -42.4277 N.am      1 UNK        -0.4884 
      5 CA         17.1089  -25.4632  -43.7861 C.3       1 UNK         0.0853 
      6 C6         16.5782  -26.8909  -44.0727 C.3       10 UNK        -0.0849 
      7 S7         16.2552  -27.1737  -45.8455 S.3       10 UNK        -0.2776 
      8 C8         15.5612  -28.8604  -45.8088 C.3       10 UNK         0.0316 
      9 C9         16.5789  -29.8601  -45.2816 C.ar      10 UNK        -0.0863 
     10 C10        16.4649  -30.3724  -43.9837 C.ar      10 UNK        -0.1009 
     11 C11        17.4551  -31.2120  -43.4631 C.ar      10 UNK        -0.0712 
     12 C12        18.5484  -31.5495  -44.2633 C.ar      10 UNK        -0.0894 
     13 C13        18.6674  -31.0554  -45.5642 C.ar      10 UNK        -0.0745 
     14 C14        17.6711  -30.2219  -46.0751 C.ar      10 UNK        -0.0972 
     15 C15        19.9062  -31.3727  -46.3886 C.3       10 UNK         0.0209 
     16 S16        21.0632  -29.9642  -46.4455 S.3       10 UNK        -0.2568 
     17 C17        21.4448  -29.7240  -44.6752 C.3       10 UNK        -0.0983 
     18 CA         22.0124  -28.3257  -44.3493 C.3       3 UNK         0.0876 
     19 N          21.1621  -27.2497  -44.8718 N.am      3 UNK        -0.4424 
     20 C          21.5394  -25.9715  -44.9955 C.2       2 UNK         0.4918 
     21 O          22.6421  -25.5490  -44.6469 O.2       2 UNK        -0.4875 
     22 CA         20.5033  -24.9922  -45.5782 C.3       2 UNK         0.0481 
     23 CB         20.6252  -24.9424  -47.1093 C.3       2 UNK        -0.1831 
     24 N          19.1058  -25.2636  -45.2104 N.am      2 UNK        -0.4498 
     25 C          18.6350  -25.3526  -43.9585 C.2       1 UNK         0.5027 
     26 O          19.3569  -25.3507  -42.9573 O.2       1 UNK        -0.4969 
     27 C          22.2742  -28.2072  -42.8313 C.2       3 UNK         0.5005 
     28 O          23.2434  -28.7941  -42.3435 O.2       3 UNK        -0.5279 
     29 N          21.4437  -27.4377  -42.1055 N.am      4 UNK        -0.4463 
     30 CA         21.5792  -27.1975  -40.6647 C.3       4 UNK         0.0283 
     31 CB         20.3315  -26.4790  -40.1291 C.3       4 UNK        -0.1875 
     32 C          22.8516  -26.4167  -40.2934 C.2       4 UNK         0.4949 
     33 O          23.3200  -26.5471  -39.1641 O.2       4 UNK        -0.5039 
     34 N          23.4285  -25.6778  -41.2537 N.am      5 UNK        -0.4663 
     35 CA         24.7368  -25.0263  -41.1312 C.3       5 UNK         0.0242 
     36 CB         24.9530  -24.0976  -42.3363 C.3       5 UNK        -0.1982 
     37 C          25.9027  -26.0267  -41.0038 C.2       5 UNK         0.5017 
     38 O          26.9119  -25.6953  -40.3814 O.2       5 UNK        -0.5012 
     39 N          25.7332  -27.2307  -41.5690 N.am      6 UNK        -0.4439 
     40 CA         26.6496  -28.3659  -41.4335 C.3       6 UNK         0.0297 
     41 CB         26.7620  -29.0678  -42.7985 C.3       6 UNK        -0.2006 
     42 C          26.1804  -29.3638  -40.3560 C.2       6 UNK         0.4892 
     43 O          26.8885  -30.3388  -40.1020 O.2       6 UNK        -0.5089 
     44 N          24.9966  -29.1218  -39.7683 N.am      7 UNK        -0.4243 
     45 CA         24.2542  -29.9789  -38.8363 C.3       7 UNK         0.0196 
     46 CB         24.9902  -30.0815  -37.4836 C.3       7 UNK        -0.2007 
     47 C          23.8977  -31.3551  -39.4365 C.2       7 UNK         0.5020 
     48 O          23.8713  -32.3507  -38.7105 O.2       7 UNK        -0.5147 
     49 N          23.6446  -31.3952  -40.7512 N.am      8 UNK        -0.4734 
     50 CA         23.3751  -32.6201  -41.5023 C.3       8 UNK         0.0238 
     51 CB         24.1460  -32.5587  -42.8313 C.3       8 UNK        -0.1912 
     52 C          21.8709  -32.7809  -41.7580 C.2       8 UNK         0.5038 
     53 O          21.1981  -31.7950  -42.0624 O.2       8 UNK        -0.5046 
     54 N          21.3865  -34.0248  -41.6686 N.am      9 UNK        -0.4200 
     55 CA         20.0183  -34.4512  -42.0038 C.3       9 UNK         0.0839 
     56 C          19.9231  -35.9889  -42.2316 C.2       9 UNK         0.5513 
     57 N          21.0015  -36.6598  -42.6233 N.am      9 UNK        -0.7519 
     58 O          18.8686  -36.5931  -42.0554 O.2       9 UNK        -0.4960 
     59 C59        18.9399  -33.8792  -41.0321 C.3       10 UNK        -0.0876 
     60 S60        17.3535  -33.5048  -41.8679 S.3       10 UNK        -0.2414 
     61 C61        17.3879  -31.6853  -42.0155 C.3       10 UNK         0.0169 
     62 H62        14.7402  -24.6875  -40.0480 H         1 UNK         0.0903 
     63 H63        16.4520  -24.2601  -40.0223 H         1 UNK         0.0903 
     64 H64        15.2508  -23.0590  -40.5012 H         1 UNK         0.0903 
     65 H65        17.5973  -25.0418  -41.8099 H         1 UNK         0.3096 
     66 H66        16.6461  -24.7520  -44.4747 H         1 UNK         0.1121 
     67 H67        15.6335  -27.0552  -43.5519 H         1 UNK         0.0849 
     68 H68        17.2636  -27.6489  -43.6885 H         1 UNK         0.0849 
     69 H69        14.6541  -28.8687  -45.2023 H         1 UNK         0.0865 
     70 H70        15.2583  -29.1455  -46.8174 H         1 UNK         0.0865 
     71 H71        15.6283  -30.0804  -43.3636 H         1 UNK         0.1346 
     72 H72        19.3396  -32.1560  -43.8542 H         1 UNK         0.1412 
     73 H73        17.7730  -29.8119  -47.0709 H         1 UNK         0.1426 
     74 H74        20.4247  -32.2450  -45.9871 H         1 UNK         0.0716 
     75 H75        19.6107  -31.6321  -47.4062 H         1 UNK         0.0716 
     76 H76        22.1460  -30.5038  -44.3776 H         1 UNK         0.0695 
     77 H77        20.5469  -29.8815  -44.0805 H         1 UNK         0.0695 
     78 H78        22.9849  -28.2401  -44.8392 H         1 UNK         0.0983 
     79 H79        20.2452  -27.5213  -45.1956 H         1 UNK         0.3095 
     80 H80        20.7470  -24.0015  -45.1893 H         1 UNK         0.0454 
     81 H81        20.3495  -25.8931  -47.5677 H         1 UNK         0.0851 
     82 H82        19.9889  -24.1663  -47.5349 H         1 UNK         0.0851 
     83 H83        21.6491  -24.7195  -47.4131 H         1 UNK         0.0851 
     84 H84        18.4441  -25.3183  -45.9727 H         1 UNK         0.2976 
     85 H85        20.6959  -26.9399  -42.5766 H         1 UNK         0.3116 
     86 H86        21.6399  -28.1734  -40.1783 H         1 UNK         0.0646 
     87 H87        19.4171  -27.0076  -40.3988 H         1 UNK         0.0847 
     88 H88        20.3599  -26.4150  -39.0405 H         1 UNK         0.0847 
     89 H89        20.2586  -25.4593  -40.5083 H         1 UNK         0.0847 
     90 H90        22.9750  -25.6219  -42.1566 H         1 UNK         0.3040 
     91 H91        24.7271  -24.4185  -40.2236 H         1 UNK         0.1015 
     92 H92        24.9636  -24.6514  -43.2762 H         1 UNK         0.0786 
     93 H93        25.9048  -23.5704  -42.2573 H         1 UNK         0.0786 
     94 H94        24.1695  -23.3424  -42.4018 H         1 UNK         0.0786 
     95 H95        24.8577  -27.4278  -42.0410 H         1 UNK         0.3172 
     96 H96        27.6433  -28.0160  -41.1466 H         1 UNK         0.0595 
     97 H97        25.8051  -29.4796  -43.1220 H         1 UNK         0.0839 
     98 H98        27.4729  -29.8942  -42.7567 H         1 UNK         0.0839 
     99 H99        27.1108  -28.3817  -43.5704 H         1 UNK         0.0839 
    100 H100       24.5182  -28.2720  -40.0338 H         1 UNK         0.2998 
    101 H101       23.3032  -29.4763  -38.6546 H         1 UNK         0.0822 
    102 H102       24.3801  -30.6015  -36.7440 H         1 UNK         0.0787 
    103 H103       25.9288  -30.6292  -37.5738 H         1 UNK         0.0787 
    104 H104       25.2145  -29.0942  -37.0797 H         1 UNK         0.0787 
    105 H105       23.5962  -30.5252  -41.2739 H         1 UNK         0.3055 
    106 H106       23.7339  -33.4886  -40.9450 H         1 UNK         0.1106 
    107 H107       25.2221  -32.5256  -42.6591 H         1 UNK         0.0828 
    108 H108       23.9429  -33.4354  -43.4477 H         1 UNK         0.0828 
    109 H109       23.8793  -31.6776  -43.4144 H         1 UNK         0.0828 
    110 H110       22.0007  -34.7744  -41.3833 H         1 UNK         0.2931 
    111 H111       19.8288  -34.0462  -42.9960 H         1 UNK         0.0412 
    112 H112       20.9263  -37.6557  -42.7638 H         1 UNK         0.3472 
    113 H113       21.8619  -36.1901  -42.8545 H         1 UNK         0.3472 
    114 H114       18.7474  -34.5771  -40.2154 H         1 UNK         0.0970 
    115 H115       19.2967  -32.9757  -40.5385 H         1 UNK         0.0970 
    116 H116       16.4957  -31.2909  -41.5272 H         1 UNK         0.0612 
    117 H117       18.2365  -31.2649  -41.4751 H         1 UNK         0.0612 
@<TRIPOS>BOND
     1    1    2 1    
     2    1   62 1    
     3    1   63 1    
     4    1   64 1    
     5    2    3 2    
     6    2    4 am   BACKBONE|DICT|INTERRES
     7    4    5 1    
     8    4   65 1    
     9    5    6 1    
    10    5   25 1    
    11    5   66 1    
    12    6    7 1    
    13    6   67 1    
    14    6   68 1    
    15    7    8 1    
    16    8    9 1    
    17    8   69 1    
    18    8   70 1    
    19    9   10 ar   
    20    9   14 ar   
    21   10   11 ar   
    22   10   71 1    
    23   11   12 ar   
    24   11   61 1    
    25   12   13 ar   
    26   12   72 1    
    27   13   14 ar   
    28   13   15 1    
    29   14   73 1    
    30   15   16 1    
    31   15   74 1    
    32   15   75 1    
    33   16   17 1    
    34   17   18 1    
    35   17   76 1    
    36   17   77 1    
    37   18   19 1    
    38   18   27 1    
    39   18   78 1    
    40   19   20 am   BACKBONE|DICT|INTERRES
    41   19   79 1    
    42   20   21 2    
    43   20   22 1    
    44   22   23 1    
    45   22   24 1    
    46   22   80 1    
    47   23   81 1    
    48   23   82 1    
    49   23   83 1    
    50   24   25 am   BACKBONE|DICT|INTERRES
    51   24   84 1    
    52   25   26 2    
    53   27   28 2    
    54   27   29 am   BACKBONE|DICT|INTERRES
    55   29   30 1    
    56   29   85 1    
    57   30   31 1    
    58   30   32 1    
    59   30   86 1    
    60   31   87 1    
    61   31   88 1    
    62   31   89 1    
    63   32   33 2    
    64   32   34 am   BACKBONE|DICT|INTERRES
    65   34   35 1    
    66   34   90 1    
    67   35   36 1    
    68   35   37 1    
    69   35   91 1    
    70   36   92 1    
    71   36   93 1    
    72   36   94 1    
    73   37   38 2    
    74   37   39 am   BACKBONE|DICT|INTERRES
    75   39   40 1    
    76   39   95 1    
    77   40   41 1    
    78   40   42 1    
    79   40   96 1    
    80   41   97 1    
    81   41   98 1    
    82   41   99 1    
    83   42   43 2    
    84   42   44 am   BACKBONE|DICT|INTERRES
    85   44   45 1    
    86   44  100 1    
    87   45   46 1    
    88   45   47 1    
    89   45  101 1    
    90   46  102 1    
    91   46  103 1    
    92   46  104 1    
    93   47   48 2    
    94   47   49 am   BACKBONE|DICT|INTERRES
    95   49   50 1    
    96   49  105 1    
    97   50   51 1    
    98   50   52 1    
    99   50  106 1    
   100   51  107 1    
   101   51  108 1    
   102   51  109 1    
   103   52   53 2    
   104   52   54 am   BACKBONE|DICT|INTERRES
   105   54   55 1    
   106   54  110 1    
   107   55   56 1    
   108   55   59 1    
   109   55  111 1    
   110   56   57 am   BACKBONE|DICT|INTERRES
   111   56   58 2    
   112   57  112 1    
   113   57  113 1    
   114   59   60 1    
   115   59  114 1    
   116   59  115 1    
   117   60   61 1    
   118   61  116 1    
   119   61  117 1    
@<TRIPOS>SUBSTRUCTURE
     1 UNK         1 GROUP             0       ****    0 ROOT    
