@<TRIPOS>MOLECULE
3R8
117   119    1
SMALL
USER_CHARGES


@<TRIPOS>ATOM
      1 CA         14.0589  -25.8839  -42.8127 C.3       0 UNK        -0.2013 
      2 C          15.3214  -25.8582  -41.9549 C.2       0 UNK         0.4866 
      3 O          15.2231  -25.7044  -40.7391 O.2       0 UNK        -0.5176 
      4 N          16.5207  -25.9937  -42.5314 N.am      1 UNK        -0.4884 
      5 CA         16.8129  -26.1319  -43.9573 C.3       1 UNK         0.0853 
      6 C6         16.6708  -27.5971  -44.4429 C.3       10 UNK        -0.0849 
      7 S7         16.2334  -27.6905  -46.2123 S.3       10 UNK        -0.2776 
      8 C8         16.0043  -29.4848  -46.4327 C.3       10 UNK         0.0316 
      9 C9         17.2712  -30.2510  -46.0861 C.ar      10 UNK        -0.0863 
     10 C10        17.3736  -30.9235  -44.8649 C.ar      10 UNK        -0.1009 
     11 C11        18.5606  -31.5679  -44.5074 C.ar      10 UNK        -0.0712 
     12 C12        19.6398  -31.5634  -45.3946 C.ar      10 UNK        -0.0894 
     13 C13        19.5536  -30.8791  -46.6125 C.ar      10 UNK        -0.0745 
     14 C14        18.3608  -30.2399  -46.9609 C.ar      10 UNK        -0.0972 
     15 C15        20.7681  -30.7762  -47.5251 C.3       10 UNK         0.0209 
     16 S16        21.5364  -29.1207  -47.4507 S.3       10 UNK        -0.2568 
     17 C17        22.0329  -29.0317  -45.6961 C.3       10 UNK        -0.0983 
     18 CA         22.1694  -27.5976  -45.1261 C.3       3 UNK         0.0876 
     19 N          21.0225  -26.7448  -45.4555 N.am      3 UNK        -0.4424 
     20 C          21.0850  -25.4112  -45.5560 C.2       2 UNK         0.4918 
     21 O          22.1108  -24.7582  -45.3635 O.2       2 UNK        -0.4875 
     22 CA         19.7889  -24.6705  -45.9351 C.3       2 UNK         0.0481 
     23 CB         19.7238  -24.4651  -47.4570 C.3       2 UNK        -0.1831 
     24 N          18.5477  -25.3105  -45.4831 N.am      2 UNK        -0.4498 
     25 C          18.2257  -25.5738  -44.2096 C.2       1 UNK         0.5027 
     26 O          18.9958  -25.4046  -43.2604 O.2       1 UNK        -0.4969 
     27 C          22.4262  -27.6939  -43.6068 C.2       3 UNK         0.5005 
     28 O          23.4474  -28.2666  -43.2240 O.2       3 UNK        -0.5279 
     29 N          21.4988  -27.2163  -42.7604 N.am      4 UNK        -0.4463 
     30 CA         21.5336  -27.4083  -41.3069 C.3       4 UNK         0.0283 
     31 CB         20.2911  -26.7757  -40.6631 C.3       4 UNK        -0.1875 
     32 C          22.8214  -26.8691  -40.6599 C.2       4 UNK         0.4949 
     33 O          23.2507  -25.7610  -40.9840 O.2       4 UNK        -0.5039 
     34 N          23.4043  -27.6934  -39.7808 N.am      5 UNK        -0.4663 
     35 CA         24.6854  -27.5530  -39.0740 C.3       5 UNK         0.0242 
     36 CB         24.9088  -26.1475  -38.4782 C.3       5 UNK        -0.1982 
     37 C          25.8969  -28.0411  -39.8874 C.2       5 UNK         0.5017 
     38 O          26.9169  -28.3619  -39.2755 O.2       5 UNK        -0.5012 
     39 N          25.7702  -28.1482  -41.2185 N.am      6 UNK        -0.4439 
     40 CA         26.6828  -28.9306  -42.0571 C.3       6 UNK         0.0297 
     41 CB         26.8238  -28.2923  -43.4496 C.3       6 UNK        -0.2006 
     42 C          26.1640  -30.3746  -42.1394 C.2       6 UNK         0.4892 
     43 O          26.9191  -31.3109  -41.8747 O.2       6 UNK        -0.5089 
     44 N          24.8683  -30.5181  -42.4478 N.am      7 UNK        -0.4243 
     45 CA         24.1001  -31.7505  -42.3015 C.3       7 UNK         0.0196 
     46 CB         22.8658  -31.6838  -43.2159 C.3       7 UNK        -0.2007 
     47 C          23.6677  -31.9461  -40.8401 C.2       7 UNK         0.5020 
     48 O          23.5348  -30.9730  -40.0901 O.2       7 UNK        -0.5147 
     49 N          23.3996  -33.2087  -40.4817 N.am      8 UNK        -0.4734 
     50 CA         23.0052  -33.6548  -39.1384 C.3       8 UNK         0.0238 
     51 CB         22.9478  -35.1913  -39.1182 C.3       8 UNK        -0.1912 
     52 C          21.6837  -33.0619  -38.6135 C.2       8 UNK         0.5038 
     53 O          21.4643  -33.0788  -37.4016 O.2       8 UNK        -0.5046 
     54 N          20.8431  -32.5392  -39.5158 N.am      9 UNK        -0.4200 
     55 CA         19.6439  -31.7558  -39.1887 C.3       9 UNK         0.0839 
     56 C          19.9272  -30.3315  -38.6208 C.2       9 UNK         0.5513 
     57 N          21.1669  -29.8533  -38.5959 N.am      9 UNK        -0.7519 
     58 O          19.0048  -29.6595  -38.1672 O.2       9 UNK        -0.4960 
     59 C59        18.6278  -31.7428  -40.3599 C.3       10 UNK        -0.0876 
     60 S60        19.2704  -31.0146  -41.9087 S.3       10 UNK        -0.2414 
     61 C61        18.6846  -32.2212  -43.1410 C.3       10 UNK         0.0169 
     62 H62        13.1747  -25.9907  -42.1847 H         1 UNK         0.0903 
     63 H63        13.9601  -24.9538  -43.3716 H         1 UNK         0.0903 
     64 H64        14.0617  -26.7148  -43.5161 H         1 UNK         0.0903 
     65 H65        17.3582  -25.9066  -41.9677 H         1 UNK         0.3096 
     66 H66        16.1218  -25.4881  -44.5058 H         1 UNK         0.1121 
     67 H67        15.8884  -28.1165  -43.8882 H         1 UNK         0.0849 
     68 H68        17.5845  -28.1639  -44.2517 H         1 UNK         0.0849 
     69 H69        15.1661  -29.8215  -45.8206 H         1 UNK         0.0865 
     70 H70        15.7267  -29.6858  -47.4685 H         1 UNK         0.0865 
     71 H71        16.5428  -30.9123  -44.1724 H         1 UNK         0.1346 
     72 H72        20.5648  -32.0470  -45.1126 H         1 UNK         0.1412 
     73 H73        18.2962  -29.6948  -47.8930 H         1 UNK         0.1426 
     74 H74        20.4686  -30.9831  -48.5534 H         1 UNK         0.0716 
     75 H75        21.5136  -31.5292  -47.2645 H         1 UNK         0.0716 
     76 H76        22.9800  -29.5654  -45.5985 H         1 UNK         0.0695 
     77 H77        21.3141  -29.5835  -45.0935 H         1 UNK         0.0695 
     78 H78        23.0651  -27.1550  -45.5678 H         1 UNK         0.0983 
     79 H79        20.1522  -27.2146  -45.6574 H         1 UNK         0.3095 
     80 H80        19.8319  -23.6866  -45.4635 H         1 UNK         0.0454 
     81 H81        19.6408  -25.4138  -47.9890 H         1 UNK         0.0851 
     82 H82        20.6216  -23.9648  -47.8229 H         1 UNK         0.0851 
     83 H83        18.8735  -23.8445  -47.7398 H         1 UNK         0.0851 
     84 H84        17.8684  -25.5273  -46.2001 H         1 UNK         0.2976 
     85 H85        20.7090  -26.7018  -43.1317 H         1 UNK         0.3116 
     86 H86        21.4841  -28.4864  -41.1377 H         1 UNK         0.0646 
     87 H87        19.3742  -27.2105  -41.0613 H         1 UNK         0.0847 
     88 H88        20.2569  -25.6983  -40.8293 H         1 UNK         0.0847 
     89 H89        20.2822  -26.9409  -39.5850 H         1 UNK         0.0847 
     90 H90        22.9810  -28.6063  -39.6683 H         1 UNK         0.3040 
     91 H91        24.6095  -28.2424  -38.2310 H         1 UNK         0.1015 
     92 H92        25.1193  -25.4046  -39.2477 H         1 UNK         0.0786 
     93 H93        25.7617  -26.1496  -37.7983 H         1 UNK         0.0786 
     94 H94        24.0416  -25.8119  -37.9096 H         1 UNK         0.0786 
     95 H95        24.8907  -27.8759  -41.6425 H         1 UNK         0.3172 
     96 H96        27.6773  -28.9522  -41.6064 H         1 UNK         0.0595 
     97 H97        25.8842  -28.2772  -44.0005 H         1 UNK         0.0839 
     98 H98        27.5419  -28.8463  -44.0553 H         1 UNK         0.0839 
     99 H99        27.1846  -27.2663  -43.3783 H         1 UNK         0.0839 
    100 H100       24.3282  -29.6812  -42.6645 H         1 UNK         0.2998 
    101 H101       24.7218  -32.5957  -42.6048 H         1 UNK         0.0822 
    102 H102       23.1560  -31.5818  -44.2611 H         1 UNK         0.0787 
    103 H103       22.2639  -32.5898  -43.1366 H         1 UNK         0.0787 
    104 H104       22.2209  -30.8414  -42.9614 H         1 UNK         0.0787 
    105 H105       23.5136  -33.9361  -41.1739 H         1 UNK         0.3055 
    106 H106       23.7867  -33.3318  -38.4469 H         1 UNK         0.1106 
    107 H107       22.2001  -35.5766  -39.8127 H         1 UNK         0.0828 
    108 H108       22.6893  -35.5606  -38.1246 H         1 UNK         0.0828 
    109 H109       23.9106  -35.6297  -39.3813 H         1 UNK         0.0828 
    110 H110       21.1134  -32.5486  -40.4875 H         1 UNK         0.2931 
    111 H111       19.1482  -32.2829  -38.3711 H         1 UNK         0.0412 
    112 H112       21.9354  -30.4040  -38.9612 H         1 UNK         0.3472 
    113 H113       21.3281  -28.9593  -38.1621 H         1 UNK         0.3472 
    114 H114       17.7229  -31.2023  -40.0761 H         1 UNK         0.0970 
    115 H115       18.3031  -32.7666  -40.5508 H         1 UNK         0.0970 
    116 H116       19.3723  -33.0674  -43.1774 H         1 UNK         0.0612 
    117 H117       17.7138  -32.6190  -42.8411 H         1 UNK         0.0612 
@<TRIPOS>BOND
     1    1    2 1    
     2    1   62 1    
     3    1   63 1    
     4    1   64 1    
     5    2    3 2    
     6    2    4 am   BACKBONE|DICT|INTERRES
     7    4    5 1    
     8    4   65 1    
     9    5    6 1    
    10    5   25 1    
    11    5   66 1    
    12    6    7 1    
    13    6   67 1    
    14    6   68 1    
    15    7    8 1    
    16    8    9 1    
    17    8   69 1    
    18    8   70 1    
    19    9   10 ar   
    20    9   14 ar   
    21   10   11 ar   
    22   10   71 1    
    23   11   12 ar   
    24   11   61 1    
    25   12   13 ar   
    26   12   72 1    
    27   13   14 ar   
    28   13   15 1    
    29   14   73 1    
    30   15   16 1    
    31   15   74 1    
    32   15   75 1    
    33   16   17 1    
    34   17   18 1    
    35   17   76 1    
    36   17   77 1    
    37   18   19 1    
    38   18   27 1    
    39   18   78 1    
    40   19   20 am   BACKBONE|DICT|INTERRES
    41   19   79 1    
    42   20   21 2    
    43   20   22 1    
    44   22   23 1    
    45   22   24 1    
    46   22   80 1    
    47   23   81 1    
    48   23   82 1    
    49   23   83 1    
    50   24   25 am   BACKBONE|DICT|INTERRES
    51   24   84 1    
    52   25   26 2    
    53   27   28 2    
    54   27   29 am   BACKBONE|DICT|INTERRES
    55   29   30 1    
    56   29   85 1    
    57   30   31 1    
    58   30   32 1    
    59   30   86 1    
    60   31   87 1    
    61   31   88 1    
    62   31   89 1    
    63   32   33 2    
    64   32   34 am   BACKBONE|DICT|INTERRES
    65   34   35 1    
    66   34   90 1    
    67   35   36 1    
    68   35   37 1    
    69   35   91 1    
    70   36   92 1    
    71   36   93 1    
    72   36   94 1    
    73   37   38 2    
    74   37   39 am   BACKBONE|DICT|INTERRES
    75   39   40 1    
    76   39   95 1    
    77   40   41 1    
    78   40   42 1    
    79   40   96 1    
    80   41   97 1    
    81   41   98 1    
    82   41   99 1    
    83   42   43 2    
    84   42   44 am   BACKBONE|DICT|INTERRES
    85   44   45 1    
    86   44  100 1    
    87   45   46 1    
    88   45   47 1    
    89   45  101 1    
    90   46  102 1    
    91   46  103 1    
    92   46  104 1    
    93   47   48 2    
    94   47   49 am   BACKBONE|DICT|INTERRES
    95   49   50 1    
    96   49  105 1    
    97   50   51 1    
    98   50   52 1    
    99   50  106 1    
   100   51  107 1    
   101   51  108 1    
   102   51  109 1    
   103   52   53 2    
   104   52   54 am   BACKBONE|DICT|INTERRES
   105   54   55 1    
   106   54  110 1    
   107   55   56 1    
   108   55   59 1    
   109   55  111 1    
   110   56   57 am   BACKBONE|DICT|INTERRES
   111   56   58 2    
   112   57  112 1    
   113   57  113 1    
   114   59   60 1    
   115   59  114 1    
   116   59  115 1    
   117   60   61 1    
   118   61  116 1    
   119   61  117 1    
@<TRIPOS>SUBSTRUCTURE
     1 UNK         1 GROUP             0       ****    0 ROOT    
