@<TRIPOS>MOLECULE
3R8
117   119    1
SMALL
USER_CHARGES


@<TRIPOS>ATOM
      1 CA         21.7340  -24.0945  -40.1736 C.3       0 UNK        -0.2013 
      2 C          20.3758  -24.4010  -40.7842 C.2       0 UNK         0.4866 
      3 O          19.3498  -24.0316  -40.2119 O.2       0 UNK        -0.5176 
      4 N          20.3692  -25.0621  -41.9442 N.am      1 UNK        -0.4884 
      5 CA         19.1841  -25.3803  -42.7418 C.3       1 UNK         0.0853 
      6 C6         19.0676  -26.9071  -42.9945 C.3       10 UNK        -0.0849 
      7 S7         18.8632  -27.8807  -41.4679 S.3       10 UNK        -0.2776 
      8 C8         17.8145  -29.2572  -42.0438 C.3       10 UNK         0.0316 
      9 C9         18.4651  -30.0431  -43.1758 C.ar      10 UNK        -0.0863 
     10 C10        19.5256  -30.9132  -42.9114 C.ar      10 UNK        -0.1009 
     11 C11        20.1299  -31.6317  -43.9476 C.ar      10 UNK        -0.0712 
     12 C12        19.6716  -31.4704  -45.2588 C.ar      10 UNK        -0.0894 
     13 C13        18.6124  -30.6015  -45.5402 C.ar      10 UNK        -0.0745 
     14 C14        18.0054  -29.9030  -44.4891 C.ar      10 UNK        -0.0972 
     15 C15        18.0966  -30.4702  -46.9710 C.3       10 UNK         0.0209 
     16 S16        17.7389  -28.7492  -47.4633 S.3       10 UNK        -0.2568 
     17 C17        19.2322  -28.2377  -48.3917 C.3       10 UNK        -0.0983 
     18 CA         20.2096  -27.2935  -47.6285 C.3       3 UNK         0.0876 
     19 N          19.5060  -26.2925  -46.8236 N.am      3 UNK        -0.4424 
     20 C          19.1402  -25.0736  -47.2396 C.2       2 UNK         0.4918 
     21 O          19.4691  -24.5916  -48.3240 O.2       2 UNK        -0.4875 
     22 CA         18.2315  -24.2534  -46.2980 C.3       2 UNK         0.0481 
     23 CB         16.7865  -24.2571  -46.8225 C.3       2 UNK        -0.1831 
     24 N          18.2369  -24.7344  -44.9107 N.am      2 UNK        -0.4498 
     25 C          19.2853  -24.6253  -44.0830 C.2       1 UNK         0.5027 
     26 O          20.3105  -24.0064  -44.3810 O.2       1 UNK        -0.4969 
     27 C          21.3130  -28.0272  -46.8344 C.2       3 UNK         0.5005 
     28 O          21.7762  -29.0769  -47.2848 O.2       3 UNK        -0.5279 
     29 N          21.7648  -27.4585  -45.7053 N.am      4 UNK        -0.4463 
     30 CA         22.8757  -27.9671  -44.8969 C.3       4 UNK         0.0283 
     31 CB         22.4779  -29.2528  -44.1539 C.3       4 UNK        -0.1875 
     32 C          23.3268  -26.9064  -43.8909 C.2       4 UNK         0.4949 
     33 O          22.5527  -26.0118  -43.5487 O.2       4 UNK        -0.5039 
     34 N          24.5645  -27.0529  -43.4048 N.am      5 UNK        -0.4663 
     35 CA         25.1756  -26.1731  -42.4041 C.3       5 UNK         0.0242 
     36 CB         26.7030  -26.3444  -42.4594 C.3       5 UNK        -0.1982 
     37 C          24.6621  -26.4027  -40.9697 C.2       5 UNK         0.5017 
     38 O          24.8968  -25.5483  -40.1145 O.2       5 UNK        -0.5012 
     39 N          23.9886  -27.5321  -40.7195 N.am      6 UNK        -0.4439 
     40 CA         23.4216  -27.9091  -39.4290 C.3       6 UNK         0.0297 
     41 CB         24.5174  -28.5017  -38.5230 C.3       6 UNK        -0.2006 
     42 C          22.2921  -28.9208  -39.6469 C.2       6 UNK         0.4892 
     43 O          22.2985  -29.6420  -40.6488 O.2       6 UNK        -0.5089 
     44 N          21.3662  -28.9682  -38.6817 N.am      7 UNK        -0.4243 
     45 CA         20.2677  -29.9323  -38.6207 C.3       7 UNK         0.0196 
     46 CB         19.2178  -29.4281  -37.6170 C.3       7 UNK        -0.2007 
     47 C          20.7586  -31.3383  -38.2376 C.2       7 UNK         0.5020 
     48 O          21.8426  -31.4841  -37.6692 O.2       7 UNK        -0.5147 
     49 N          19.9416  -32.3484  -38.5678 N.am      8 UNK        -0.4734 
     50 CA         20.1556  -33.7940  -38.3705 C.3       8 UNK         0.0238 
     51 CB         20.3597  -34.1397  -36.8802 C.3       8 UNK        -0.1912 
     52 C          21.2542  -34.4182  -39.2569 C.2       8 UNK         0.5038 
     53 O          21.4070  -35.6405  -39.2396 O.2       8 UNK        -0.5046 
     54 N          21.9611  -33.5913  -40.0379 N.am      9 UNK        -0.4200 
     55 CA         22.9548  -33.9680  -41.0559 C.3       9 UNK         0.0839 
     56 C          24.2572  -34.6149  -40.4963 C.2       9 UNK         0.5513 
     57 N          24.5717  -34.4571  -39.2161 N.am      9 UNK        -0.7519 
     58 O          25.0112  -35.2425  -41.2360 O.2       9 UNK        -0.4960 
     59 C59        22.3429  -34.7676  -42.2482 C.3       10 UNK        -0.0876 
     60 S60        20.7622  -34.0970  -42.8804 S.3       10 UNK        -0.2414 
     61 C61        21.3086  -32.5432  -43.6467 C.3       10 UNK         0.0169 
     62 H62        22.5366  -24.2235  -40.8993 H         1 UNK         0.0903 
     63 H63        21.7664  -23.0646  -39.8193 H         1 UNK         0.0903 
     64 H64        21.9258  -24.7536  -39.3278 H         1 UNK         0.0903 
     65 H65        21.2465  -25.2893  -42.4100 H         1 UNK         0.3096 
     66 H66        18.2783  -25.0327  -42.2401 H         1 UNK         0.1121 
     67 H67        18.2166  -27.1226  -43.6416 H         1 UNK         0.0849 
     68 H68        19.9505  -27.2849  -43.5117 H         1 UNK         0.0849 
     69 H69        17.6177  -29.9264  -41.2052 H         1 UNK         0.0865 
     70 H70        16.8438  -28.8653  -42.3515 H         1 UNK         0.0865 
     71 H71        19.8949  -31.0202  -41.9008 H         1 UNK         0.1346 
     72 H72        20.1437  -32.0204  -46.0613 H         1 UNK         0.1412 
     73 H73        17.1730  -29.2447  -44.6961 H         1 UNK         0.1426 
     74 H74        17.1728  -31.0448  -47.0484 H         1 UNK         0.0716 
     75 H75        18.7927  -30.9188  -47.6810 H         1 UNK         0.0716 
     76 H76        19.7391  -29.1118  -48.8031 H         1 UNK         0.0695 
     77 H77        18.8639  -27.7006  -49.2670 H         1 UNK         0.0695 
     78 H78        20.7827  -26.7634  -48.3925 H         1 UNK         0.0983 
     79 H79        19.1488  -26.6222  -45.9407 H         1 UNK         0.3095 
     80 H80        18.5935  -23.2231  -46.3061 H         1 UNK         0.0454 
     81 H81        16.7399  -23.8671  -47.8403 H         1 UNK         0.0851 
     82 H82        16.3655  -25.2633  -46.8416 H         1 UNK         0.0851 
     83 H83        16.1381  -23.6310  -46.2094 H         1 UNK         0.0851 
     84 H84        17.4093  -25.2246  -44.6010 H         1 UNK         0.2976 
     85 H85        21.4146  -26.5543  -45.4128 H         1 UNK         0.3116 
     86 H86        23.7150  -28.1798  -45.5626 H         1 UNK         0.0646 
     87 H87        23.2858  -29.6195  -43.5201 H         1 UNK         0.0847 
     88 H88        22.2410  -30.0520  -44.8537 H         1 UNK         0.0847 
     89 H89        21.6112  -29.0922  -43.5122 H         1 UNK         0.0847 
     90 H90        25.1318  -27.8207  -43.7366 H         1 UNK         0.3040 
     91 H91        24.9386  -25.1389  -42.6651 H         1 UNK         0.1015 
     92 H92        27.0936  -26.1104  -43.4500 H         1 UNK         0.0786 
     93 H93        27.0050  -27.3623  -42.2093 H         1 UNK         0.0786 
     94 H94        27.1976  -25.6757  -41.7533 H         1 UNK         0.0786 
     95 H95        23.7853  -28.1765  -41.4730 H         1 UNK         0.3172 
     96 H96        22.9977  -27.0215  -38.9546 H         1 UNK         0.0595 
     97 H97        25.3046  -27.7756  -38.3198 H         1 UNK         0.0839 
     98 H98        24.9796  -29.3796  -38.9763 H         1 UNK         0.0839 
     99 H99        24.1079  -28.8110  -37.5604 H         1 UNK         0.0839 
    100 H100       21.4753  -28.3669  -37.8785 H         1 UNK         0.2998 
    101 H101       19.8097  -29.9892  -39.6096 H         1 UNK         0.0822 
    102 H102       18.8378  -28.4469  -37.9035 H         1 UNK         0.0787 
    103 H103       18.3613  -30.1018  -37.5694 H         1 UNK         0.0787 
    104 H104       19.6273  -29.3502  -36.6089 H         1 UNK         0.0787 
    105 H105       19.0764  -32.1138  -39.0362 H         1 UNK         0.3055 
    106 H106       19.2271  -34.2722  -38.6873 H         1 UNK         0.1106 
    107 H107       21.3103  -33.7663  -36.4989 H         1 UNK         0.0828 
    108 H108       19.5630  -33.7249  -36.2629 H         1 UNK         0.0828 
    109 H109       20.3565  -35.2197  -36.7274 H         1 UNK         0.0828 
    110 H110       21.7888  -32.6012  -39.9466 H         1 UNK         0.2931 
    111 H111       23.3019  -33.0163  -41.4567 H         1 UNK         0.0412 
    112 H112       25.4198  -34.8687  -38.8592 H         1 UNK         0.3472 
    113 H113       23.9655  -33.9330  -38.6045 H         1 UNK         0.3472 
    114 H114       22.1630  -35.8013  -41.9479 H         1 UNK         0.0970 
    115 H115       23.0519  -34.8166  -43.0765 H         1 UNK         0.0970 
    116 H116       21.8727  -32.7662  -44.5535 H         1 UNK         0.0612 
    117 H117       21.9894  -32.0150  -42.9795 H         1 UNK         0.0612 
@<TRIPOS>BOND
     1    1    2 1    
     2    1   62 1    
     3    1   63 1    
     4    1   64 1    
     5    2    3 2    
     6    2    4 am   BACKBONE|DICT|INTERRES
     7    4    5 1    
     8    4   65 1    
     9    5    6 1    
    10    5   25 1    
    11    5   66 1    
    12    6    7 1    
    13    6   67 1    
    14    6   68 1    
    15    7    8 1    
    16    8    9 1    
    17    8   69 1    
    18    8   70 1    
    19    9   10 ar   
    20    9   14 ar   
    21   10   11 ar   
    22   10   71 1    
    23   11   12 ar   
    24   11   61 1    
    25   12   13 ar   
    26   12   72 1    
    27   13   14 ar   
    28   13   15 1    
    29   14   73 1    
    30   15   16 1    
    31   15   74 1    
    32   15   75 1    
    33   16   17 1    
    34   17   18 1    
    35   17   76 1    
    36   17   77 1    
    37   18   19 1    
    38   18   27 1    
    39   18   78 1    
    40   19   20 am   BACKBONE|DICT|INTERRES
    41   19   79 1    
    42   20   21 2    
    43   20   22 1    
    44   22   23 1    
    45   22   24 1    
    46   22   80 1    
    47   23   81 1    
    48   23   82 1    
    49   23   83 1    
    50   24   25 am   BACKBONE|DICT|INTERRES
    51   24   84 1    
    52   25   26 2    
    53   27   28 2    
    54   27   29 am   BACKBONE|DICT|INTERRES
    55   29   30 1    
    56   29   85 1    
    57   30   31 1    
    58   30   32 1    
    59   30   86 1    
    60   31   87 1    
    61   31   88 1    
    62   31   89 1    
    63   32   33 2    
    64   32   34 am   BACKBONE|DICT|INTERRES
    65   34   35 1    
    66   34   90 1    
    67   35   36 1    
    68   35   37 1    
    69   35   91 1    
    70   36   92 1    
    71   36   93 1    
    72   36   94 1    
    73   37   38 2    
    74   37   39 am   BACKBONE|DICT|INTERRES
    75   39   40 1    
    76   39   95 1    
    77   40   41 1    
    78   40   42 1    
    79   40   96 1    
    80   41   97 1    
    81   41   98 1    
    82   41   99 1    
    83   42   43 2    
    84   42   44 am   BACKBONE|DICT|INTERRES
    85   44   45 1    
    86   44  100 1    
    87   45   46 1    
    88   45   47 1    
    89   45  101 1    
    90   46  102 1    
    91   46  103 1    
    92   46  104 1    
    93   47   48 2    
    94   47   49 am   BACKBONE|DICT|INTERRES
    95   49   50 1    
    96   49  105 1    
    97   50   51 1    
    98   50   52 1    
    99   50  106 1    
   100   51  107 1    
   101   51  108 1    
   102   51  109 1    
   103   52   53 2    
   104   52   54 am   BACKBONE|DICT|INTERRES
   105   54   55 1    
   106   54  110 1    
   107   55   56 1    
   108   55   59 1    
   109   55  111 1    
   110   56   57 am   BACKBONE|DICT|INTERRES
   111   56   58 2    
   112   57  112 1    
   113   57  113 1    
   114   59   60 1    
   115   59  114 1    
   116   59  115 1    
   117   60   61 1    
   118   61  116 1    
   119   61  117 1    
@<TRIPOS>SUBSTRUCTURE
     1 UNK         1 GROUP             0       ****    0 ROOT    
