@<TRIPOS>MOLECULE
3R8
117   119    1
SMALL
USER_CHARGES


@<TRIPOS>ATOM
      1 CA         17.0381  -28.4458  -41.9433 C.3       0 UNK        -0.2013 
      2 C          16.1226  -27.2264  -41.9071 C.2       0 UNK         0.4866 
      3 O          15.4061  -27.0541  -40.9225 O.2       0 UNK        -0.5176 
      4 N          16.0703  -26.3590  -42.9293 N.am      1 UNK        -0.4884 
      5 CA         16.8497  -26.2831  -44.1778 C.3       1 UNK         0.0853 
      6 C6         16.9396  -27.5931  -45.0125 C.3       10 UNK        -0.0849 
      7 S7         15.3474  -28.4677  -45.2113 S.3       10 UNK        -0.2776 
      8 C8         15.7370  -29.6991  -46.4995 C.3       10 UNK         0.0316 
      9 C9         17.0536  -30.4237  -46.2473 C.ar      10 UNK        -0.0863 
     10 C10        17.1678  -31.3657  -45.2180 C.ar      10 UNK        -0.1009 
     11 C11        18.3834  -32.0203  -44.9881 C.ar      10 UNK        -0.0712 
     12 C12        19.4838  -31.7282  -45.8004 C.ar      10 UNK        -0.0894 
     13 C13        19.3850  -30.7784  -46.8205 C.ar      10 UNK        -0.0745 
     14 C14        18.1650  -30.1379  -47.0461 C.ar      10 UNK        -0.0972 
     15 C15        20.6032  -30.4255  -47.6621 C.3       10 UNK         0.0209 
     16 S16        21.2497  -28.7691  -47.2614 S.3       10 UNK        -0.2568 
     17 C17        21.6477  -28.9641  -45.4921 C.3       10 UNK        -0.0983 
     18 CA         22.0994  -27.6476  -44.8171 C.3       3 UNK         0.0876 
     19 N          21.1234  -26.5725  -45.0119 N.am      3 UNK        -0.4424 
     20 C          21.2991  -25.2832  -44.6954 C.2       2 UNK         0.4918 
     21 O          22.3351  -24.8331  -44.2055 O.2       2 UNK        -0.4875 
     22 CA         20.1047  -24.3404  -44.9424 C.3       2 UNK         0.0481 
     23 CB         20.3038  -23.5647  -46.2542 C.3       2 UNK        -0.1831 
     24 N          18.7934  -25.0072  -44.9680 N.am      2 UNK        -0.4498 
     25 C          18.2494  -25.6768  -43.9401 C.2       1 UNK         0.5027 
     26 O          18.8312  -25.8478  -42.8663 O.2       1 UNK        -0.4969 
     27 C          22.4148  -27.9271  -43.3332 C.2       3 UNK         0.5005 
     28 O          23.4673  -28.5041  -43.0568 O.2       3 UNK        -0.5279 
     29 N          21.5212  -27.5351  -42.4070 N.am      4 UNK        -0.4463 
     30 CA         21.5931  -27.8097  -40.9642 C.3       4 UNK         0.0283 
     31 CB         20.4101  -27.1355  -40.2544 C.3       4 UNK        -0.1875 
     32 C          22.9086  -27.4033  -40.2777 C.2       4 UNK         0.4949 
     33 O          23.2938  -28.0410  -39.2992 O.2       4 UNK        -0.5039 
     34 N          23.5908  -26.3856  -40.8186 N.am      5 UNK        -0.4663 
     35 CA         24.9058  -25.9260  -40.3670 C.3       5 UNK         0.0242 
     36 CB         25.2327  -24.5973  -41.0680 C.3       5 UNK        -0.1982 
     37 C          26.0440  -26.9433  -40.5880 C.2       5 UNK         0.5017 
     38 O          27.0648  -26.8381  -39.9068 O.2       5 UNK        -0.5012 
     39 N          25.8659  -27.8858  -41.5253 N.am      6 UNK        -0.4439 
     40 CA         26.8520  -28.9102  -41.8788 C.3       6 UNK         0.0297 
     41 CB         27.3147  -28.6885  -43.3287 C.3       6 UNK        -0.2006 
     42 C          26.2961  -30.3311  -41.7060 C.2       6 UNK         0.4892 
     43 O          27.0038  -31.1934  -41.1846 O.2       6 UNK        -0.5089 
     44 N          25.0550  -30.5604  -42.1548 N.am      7 UNK        -0.4243 
     45 CA         24.4025  -31.8716  -42.1693 C.3       7 UNK         0.0196 
     46 CB         23.3582  -31.8876  -43.2985 C.3       7 UNK        -0.2007 
     47 C          23.7483  -32.2518  -40.8303 C.2       7 UNK         0.5020 
     48 O          23.4213  -33.4238  -40.6452 O.2       7 UNK        -0.5147 
     49 N          23.5458  -31.2690  -39.9378 N.am      8 UNK        -0.4734 
     50 CA         22.8874  -31.3826  -38.6255 C.3       8 UNK         0.0238 
     51 CB         23.6903  -32.3005  -37.6781 C.3       8 UNK        -0.1912 
     52 C          21.3928  -31.7648  -38.7018 C.2       8 UNK         0.5038 
     53 O          20.8464  -32.2847  -37.7268 O.2       8 UNK        -0.5046 
     54 N          20.7598  -31.4926  -39.8505 N.am      9 UNK        -0.4200 
     55 CA         19.3255  -31.6789  -40.1138 C.3       9 UNK         0.0839 
     56 C          18.4244  -30.8061  -39.1980 C.2       9 UNK         0.5513 
     57 N          17.2139  -31.2629  -38.9089 N.am      9 UNK        -0.7519 
     58 O          18.7905  -29.7069  -38.7891 O.2       9 UNK        -0.4960 
     59 C59        18.9988  -31.4300  -41.6107 C.3       10 UNK        -0.0876 
     60 S60        19.8190  -32.6540  -42.6848 S.3       10 UNK        -0.2414 
     61 C61        18.5107  -33.0656  -43.8867 C.3       10 UNK         0.0169 
     62 H62        16.5886  -29.2415  -42.5363 H         1 UNK         0.0903 
     63 H63        18.0209  -28.2180  -42.3468 H         1 UNK         0.0903 
     64 H64        17.1823  -28.8249  -40.9335 H         1 UNK         0.0903 
     65 H65        15.4345  -25.5818  -42.8164 H         1 UNK         0.3096 
     66 H66        16.3032  -25.5596  -44.7855 H         1 UNK         0.1121 
     67 H67        17.6636  -28.2880  -44.5864 H         1 UNK         0.0849 
     68 H68        17.3157  -27.3637  -46.0113 H         1 UNK         0.0849 
     69 H69        14.9265  -30.4276  -46.5506 H         1 UNK         0.0865 
     70 H70        15.7537  -29.1986  -47.4690 H         1 UNK         0.0865 
     71 H71        16.3093  -31.5847  -44.5977 H         1 UNK         0.1346 
     72 H72        20.4252  -32.2299  -45.6219 H         1 UNK         0.1412 
     73 H73        18.0906  -29.4010  -47.8344 H         1 UNK         0.1426 
     74 H74        21.3971  -31.1615  -47.5252 H         1 UNK         0.0716 
     75 H75        20.3348  -30.4563  -48.7190 H         1 UNK         0.0716 
     76 H76        22.4244  -29.7268  -45.4070 H         1 UNK         0.0695 
     77 H77        20.7700  -29.3578  -44.9763 H         1 UNK         0.0695 
     78 H78        23.0340  -27.3272  -45.2828 H         1 UNK         0.0983 
     79 H79        20.2550  -26.8428  -45.4479 H         1 UNK         0.3095 
     80 H80        20.0891  -23.6204  -44.1216 H         1 UNK         0.0454 
     81 H81        19.5226  -22.8183  -46.3984 H         1 UNK         0.0851 
     82 H82        20.3017  -24.2274  -47.1205 H         1 UNK         0.0851 
     83 H83        21.2572  -23.0341  -46.2534 H         1 UNK         0.0851 
     84 H84        18.2640  -24.9124  -45.8236 H         1 UNK         0.2976 
     85 H85        20.7000  -27.0300  -42.7200 H         1 UNK         0.3116 
     86 H86        21.4910  -28.8886  -40.8417 H         1 UNK         0.0646 
     87 H87        19.4573  -27.5217  -40.6112 H         1 UNK         0.0847 
     88 H88        20.4407  -27.3187  -39.1792 H         1 UNK         0.0847 
     89 H89        20.4107  -26.0551  -40.4036 H         1 UNK         0.0847 
     90 H90        23.1994  -25.9269  -41.6300 H         1 UNK         0.3040 
     91 H91        24.8449  -25.7426  -39.2918 H         1 UNK         0.1015 
     92 H92        25.2810  -24.7145  -42.1516 H         1 UNK         0.0786 
     93 H93        26.1968  -24.2072  -40.7384 H         1 UNK         0.0786 
     94 H94        24.4846  -23.8361  -40.8454 H         1 UNK         0.0786 
     95 H95        24.9804  -27.9123  -42.0238 H         1 UNK         0.3172 
     96 H96        27.7300  -28.8334  -41.2342 H         1 UNK         0.0595 
     97 H97        26.4826  -28.7383  -44.0324 H         1 UNK         0.0839 
     98 H98        28.0422  -29.4446  -43.6276 H         1 UNK         0.0839 
     99 H99        27.7928  -27.7159  -43.4455 H         1 UNK         0.0839 
    100 H100       24.5238  -29.7934  -42.5663 H         1 UNK         0.2998 
    101 H101       25.1519  -32.6343  -42.3923 H         1 UNK         0.0822 
    102 H102       22.8881  -32.8684  -43.3822 H         1 UNK         0.0787 
    103 H103       22.5642  -31.1603  -43.1258 H         1 UNK         0.0787 
    104 H104       23.8130  -31.6647  -44.2637 H         1 UNK         0.0787 
    105 H105       23.8628  -30.3400  -40.1826 H         1 UNK         0.3055 
    106 H106       22.9050  -30.3827  -38.1902 H         1 UNK         0.1106 
    107 H107       24.7384  -32.0050  -37.6334 H         1 UNK         0.0828 
    108 H108       23.2989  -32.2518  -36.6612 H         1 UNK         0.0828 
    109 H109       23.6478  -33.3443  -37.9899 H         1 UNK         0.0828 
    110 H110       21.3003  -31.1004  -40.6044 H         1 UNK         0.2931 
    111 H111       19.0997  -32.7228  -39.8856 H         1 UNK         0.0412 
    112 H112       16.8998  -32.1614  -39.2416 H         1 UNK         0.3472 
    113 H113       16.6077  -30.7053  -38.3276 H         1 UNK         0.3472 
    114 H114       17.9218  -31.4790  -41.7809 H         1 UNK         0.0970 
    115 H115       19.3107  -30.4301  -41.9177 H         1 UNK         0.0970 
    116 H116       18.7566  -34.0230  -44.3479 H         1 UNK         0.0612 
    117 H117       17.5636  -33.2133  -43.3658 H         1 UNK         0.0612 
@<TRIPOS>BOND
     1    1    2 1    
     2    1   62 1    
     3    1   63 1    
     4    1   64 1    
     5    2    3 2    
     6    2    4 am   BACKBONE|DICT|INTERRES
     7    4    5 1    
     8    4   65 1    
     9    5    6 1    
    10    5   25 1    
    11    5   66 1    
    12    6    7 1    
    13    6   67 1    
    14    6   68 1    
    15    7    8 1    
    16    8    9 1    
    17    8   69 1    
    18    8   70 1    
    19    9   10 ar   
    20    9   14 ar   
    21   10   11 ar   
    22   10   71 1    
    23   11   12 ar   
    24   11   61 1    
    25   12   13 ar   
    26   12   72 1    
    27   13   14 ar   
    28   13   15 1    
    29   14   73 1    
    30   15   16 1    
    31   15   74 1    
    32   15   75 1    
    33   16   17 1    
    34   17   18 1    
    35   17   76 1    
    36   17   77 1    
    37   18   19 1    
    38   18   27 1    
    39   18   78 1    
    40   19   20 am   BACKBONE|DICT|INTERRES
    41   19   79 1    
    42   20   21 2    
    43   20   22 1    
    44   22   23 1    
    45   22   24 1    
    46   22   80 1    
    47   23   81 1    
    48   23   82 1    
    49   23   83 1    
    50   24   25 am   BACKBONE|DICT|INTERRES
    51   24   84 1    
    52   25   26 2    
    53   27   28 2    
    54   27   29 am   BACKBONE|DICT|INTERRES
    55   29   30 1    
    56   29   85 1    
    57   30   31 1    
    58   30   32 1    
    59   30   86 1    
    60   31   87 1    
    61   31   88 1    
    62   31   89 1    
    63   32   33 2    
    64   32   34 am   BACKBONE|DICT|INTERRES
    65   34   35 1    
    66   34   90 1    
    67   35   36 1    
    68   35   37 1    
    69   35   91 1    
    70   36   92 1    
    71   36   93 1    
    72   36   94 1    
    73   37   38 2    
    74   37   39 am   BACKBONE|DICT|INTERRES
    75   39   40 1    
    76   39   95 1    
    77   40   41 1    
    78   40   42 1    
    79   40   96 1    
    80   41   97 1    
    81   41   98 1    
    82   41   99 1    
    83   42   43 2    
    84   42   44 am   BACKBONE|DICT|INTERRES
    85   44   45 1    
    86   44  100 1    
    87   45   46 1    
    88   45   47 1    
    89   45  101 1    
    90   46  102 1    
    91   46  103 1    
    92   46  104 1    
    93   47   48 2    
    94   47   49 am   BACKBONE|DICT|INTERRES
    95   49   50 1    
    96   49  105 1    
    97   50   51 1    
    98   50   52 1    
    99   50  106 1    
   100   51  107 1    
   101   51  108 1    
   102   51  109 1    
   103   52   53 2    
   104   52   54 am   BACKBONE|DICT|INTERRES
   105   54   55 1    
   106   54  110 1    
   107   55   56 1    
   108   55   59 1    
   109   55  111 1    
   110   56   57 am   BACKBONE|DICT|INTERRES
   111   56   58 2    
   112   57  112 1    
   113   57  113 1    
   114   59   60 1    
   115   59  114 1    
   116   59  115 1    
   117   60   61 1    
   118   61  116 1    
   119   61  117 1    
@<TRIPOS>SUBSTRUCTURE
     1 UNK         1 GROUP             0       ****    0 ROOT    
