@<TRIPOS>MOLECULE
3R8
117   119    1
SMALL
USER_CHARGES


@<TRIPOS>ATOM
      1 CA         13.3343  -23.3833  -45.6045 C.3       0 UNK        -0.2013 
      2 C          14.3017  -24.3819  -46.2224 C.2       0 UNK         0.4866 
      3 O          14.4941  -24.3763  -47.4390 O.2       0 UNK        -0.5176 
      4 N          14.9045  -25.2452  -45.3959 N.am      1 UNK        -0.4884 
      5 CA         15.8989  -26.2413  -45.8081 C.3       1 UNK         0.0853 
      6 C6         16.1783  -27.2739  -44.6895 C.3       10 UNK        -0.0849 
      7 S7         14.7177  -28.2627  -44.2263 S.3       10 UNK        -0.2776 
      8 C8         14.8485  -28.2849  -42.4062 C.3       10 UNK         0.0316 
      9 C9         16.1947  -28.8185  -41.9289 C.ar      10 UNK        -0.0863 
     10 C10        16.5125  -30.1721  -42.0805 C.ar      10 UNK        -0.1009 
     11 C11        17.7543  -30.6596  -41.6612 C.ar      10 UNK        -0.0712 
     12 C12        18.6739  -29.7881  -41.0731 C.ar      10 UNK        -0.0894 
     13 C13        18.3718  -28.4326  -40.9233 C.ar      10 UNK        -0.0745 
     14 C14        17.1280  -27.9543  -41.3456 C.ar      10 UNK        -0.0972 
     15 C15        19.3919  -27.4911  -40.3008 C.3       10 UNK         0.0209 
     16 S16        20.8985  -27.3460  -41.3134 S.3       10 UNK        -0.2568 
     17 C17        20.3231  -26.3612  -42.7408 C.3       10 UNK        -0.0983 
     18 CA         20.8852  -26.8654  -44.0958 C.3       3 UNK         0.0876 
     19 N          20.1747  -26.2455  -45.2141 N.am      3 UNK        -0.4424 
     20 C          20.2664  -26.6145  -46.4976 C.2       2 UNK         0.4918 
     21 O          20.9814  -27.5336  -46.8996 O.2       2 UNK        -0.4875 
     22 CA         19.3394  -25.8676  -47.4775 C.3       2 UNK         0.0481 
     23 CB         19.6130  -26.2301  -48.9490 C.3       2 UNK        -0.1831 
     24 N          17.9415  -26.1711  -47.1603 N.am      2 UNK        -0.4498 
     25 C          17.2309  -25.5712  -46.1963 C.2       1 UNK         0.5027 
     26 O          17.6394  -24.5986  -45.5547 O.2       1 UNK        -0.4969 
     27 C          22.4063  -26.6245  -44.1992 C.2       3 UNK         0.5005 
     28 O          22.8325  -25.4969  -44.4624 O.2       3 UNK        -0.5279 
     29 N          23.1907  -27.6746  -43.9262 N.am      4 UNK        -0.4463 
     30 CA         24.6501  -27.6311  -43.7882 C.3       4 UNK         0.0283 
     31 CB         25.2059  -29.0550  -43.9633 C.3       4 UNK        -0.1875 
     32 C          25.1259  -27.0353  -42.4466 C.2       4 UNK         0.4949 
     33 O          26.3326  -26.8671  -42.2700 O.2       4 UNK        -0.5039 
     34 N          24.1878  -26.7528  -41.5280 N.am      5 UNK        -0.4663 
     35 CA         24.3864  -26.2744  -40.1533 C.3       5 UNK         0.0242 
     36 CB         25.0426  -24.8769  -40.1345 C.3       5 UNK        -0.1982 
     37 C          25.1213  -27.3092  -39.2802 C.2       5 UNK         0.5017 
     38 O          26.0104  -26.9512  -38.5051 O.2       5 UNK        -0.5012 
     39 N          24.7329  -28.5805  -39.4307 N.am      6 UNK        -0.4439 
     40 CA         25.2817  -29.7328  -38.7267 C.3       6 UNK         0.0297 
     41 CB         26.5649  -30.2092  -39.4340 C.3       6 UNK        -0.2006 
     42 C          24.2271  -30.8436  -38.7061 C.2       6 UNK         0.4892 
     43 O          23.3124  -30.8383  -39.5357 O.2       6 UNK        -0.5089 
     44 N          24.4100  -31.8095  -37.7949 N.am      7 UNK        -0.4243 
     45 CA         23.5570  -32.9942  -37.6192 C.3       7 UNK         0.0196 
     46 CB         24.0163  -33.7612  -36.3683 C.3       7 UNK        -0.2007 
     47 C          23.5089  -33.9355  -38.8396 C.2       7 UNK         0.5020 
     48 O          22.5888  -34.7465  -38.9413 O.2       7 UNK        -0.5147 
     49 N          24.4760  -33.7932  -39.7563 N.am      8 UNK        -0.4734 
     50 CA         24.5207  -34.4570  -41.0613 C.3       8 UNK         0.0238 
     51 CB         25.9287  -34.2797  -41.6550 C.3       8 UNK        -0.1912 
     52 C          23.4518  -33.9609  -42.0574 C.2       8 UNK         0.5038 
     53 O          23.2988  -34.5830  -43.1097 O.2       8 UNK        -0.5046 
     54 N          22.7500  -32.8626  -41.7346 N.am      9 UNK        -0.4200 
     55 CA         21.6963  -32.2109  -42.5288 C.3       9 UNK         0.0839 
     56 C          22.2513  -31.4274  -43.7481 C.2       9 UNK         0.5513 
     57 N          23.0421  -32.0516  -44.6102 N.am      9 UNK        -0.7519 
     58 O          21.9886  -30.2369  -43.8910 O.2       9 UNK        -0.4960 
     59 C59        20.5356  -33.1780  -42.9024 C.3       10 UNK        -0.0876 
     60 S60        19.0102  -32.3317  -43.4373 S.3       10 UNK        -0.2414 
     61 C61        18.1184  -32.1198  -41.8656 C.3       10 UNK         0.0169 
     62 H62        13.2496  -23.5110  -44.5255 H         1 UNK         0.0903 
     63 H63        13.6707  -22.3654  -45.8000 H         1 UNK         0.0903 
     64 H64        12.3421  -23.5039  -46.0388 H         1 UNK         0.0903 
     65 H65        14.7170  -25.2005  -44.4048 H         1 UNK         0.3096 
     66 H66        15.5072  -26.7666  -46.6824 H         1 UNK         0.1121 
     67 H67        16.9564  -27.9783  -44.9926 H         1 UNK         0.0849 
     68 H68        16.5669  -26.7607  -43.8085 H         1 UNK         0.0849 
     69 H69        14.6721  -27.2784  -42.0234 H         1 UNK         0.0865 
     70 H70        14.0497  -28.9076  -42.0007 H         1 UNK         0.0865 
     71 H71        15.8001  -30.8408  -42.5446 H         1 UNK         0.1346 
     72 H72        19.6375  -30.1577  -40.7508 H         1 UNK         0.1412 
     73 H73        16.8904  -26.9056  -41.2289 H         1 UNK         0.1426 
     74 H74        19.6673  -27.8704  -39.3158 H         1 UNK         0.0716 
     75 H75        18.9689  -26.4982  -40.1403 H         1 UNK         0.0716 
     76 H76        20.5831  -25.3141  -42.5731 H         1 UNK         0.0695 
     77 H77        19.2331  -26.3973  -42.7660 H         1 UNK         0.0695 
     78 H78        20.6945  -27.9389  -44.1641 H         1 UNK         0.0983 
     79 H79        19.5573  -25.4755  -44.9886 H         1 UNK         0.3095 
     80 H80        19.5203  -24.7970  -47.3601 H         1 UNK         0.0454 
     81 H81        19.4456  -27.2897  -49.1459 H         1 UNK         0.0851 
     82 H82        20.6463  -26.0080  -49.2186 H         1 UNK         0.0851 
     83 H83        18.9742  -25.6590  -49.6228 H         1 UNK         0.0851 
     84 H84        17.5533  -26.9866  -47.6136 H         1 UNK         0.2976 
     85 H85        22.7483  -28.5816  -43.7769 H         1 UNK         0.3116 
     86 H86        25.0549  -27.0048  -44.5857 H         1 UNK         0.0646 
     87 H87        24.8573  -29.7239  -43.1754 H         1 UNK         0.0847 
     88 H88        26.2963  -29.0576  -43.9322 H         1 UNK         0.0847 
     89 H89        24.9107  -29.4819  -44.9217 H         1 UNK         0.0847 
     90 H90        23.2263  -26.9410  -41.7820 H         1 UNK         0.3040 
     91 H91        23.3911  -26.1698  -39.7181 H         1 UNK         0.1015 
     92 H92        26.0732  -24.9048  -40.4892 H         1 UNK         0.0786 
     93 H93        25.0602  -24.4689  -39.1232 H         1 UNK         0.0786 
     94 H94        24.4918  -24.1724  -40.7577 H         1 UNK         0.0786 
     95 H95        23.9576  -28.8008  -40.0443 H         1 UNK         0.3172 
     96 H96        25.5080  -29.4531  -37.6956 H         1 UNK         0.0595 
     97 H97        27.0035  -31.0689  -38.9262 H         1 UNK         0.0839 
     98 H98        27.3232  -29.4261  -39.4491 H         1 UNK         0.0839 
     99 H99        26.3700  -30.5010  -40.4671 H         1 UNK         0.0839 
    100 H100       25.1969  -31.7317  -37.1658 H         1 UNK         0.2998 
    101 H101       22.5372  -32.6416  -37.4506 H         1 UNK         0.0822 
    102 H102       23.3826  -34.6309  -36.1877 H         1 UNK         0.0787 
    103 H103       25.0412  -34.1207  -36.4690 H         1 UNK         0.0787 
    104 H104       23.9641  -33.1361  -35.4766 H         1 UNK         0.0787 
    105 H105       25.1959  -33.1100  -39.5731 H         1 UNK         0.3055 
    106 H106       24.3410  -35.5234  -40.9071 H         1 UNK         0.1106 
    107 H107       26.0194  -34.7990  -42.6103 H         1 UNK         0.0828 
    108 H108       26.1631  -33.2293  -41.8331 H         1 UNK         0.0828 
    109 H109       26.6937  -34.6889  -40.9949 H         1 UNK         0.0828 
    110 H110       22.9890  -32.3791  -40.8757 H         1 UNK         0.2931 
    111 H111       21.2835  -31.4649  -41.8488 H         1 UNK         0.0412 
    112 H112       23.4109  -31.5575  -45.4063 H         1 UNK         0.3472 
    113 H113       23.2652  -33.0277  -44.4579 H         1 UNK         0.3472 
    114 H114       20.8407  -33.8505  -43.7056 H         1 UNK         0.0970 
    115 H115       20.2988  -33.8262  -42.0575 H         1 UNK         0.0970 
    116 H116       18.7216  -32.4677  -41.0258 H         1 UNK         0.0612 
    117 H117       17.2209  -32.7399  -41.8775 H         1 UNK         0.0612 
@<TRIPOS>BOND
     1    1    2 1    
     2    1   62 1    
     3    1   63 1    
     4    1   64 1    
     5    2    3 2    
     6    2    4 am   BACKBONE|DICT|INTERRES
     7    4    5 1    
     8    4   65 1    
     9    5    6 1    
    10    5   25 1    
    11    5   66 1    
    12    6    7 1    
    13    6   67 1    
    14    6   68 1    
    15    7    8 1    
    16    8    9 1    
    17    8   69 1    
    18    8   70 1    
    19    9   10 ar   
    20    9   14 ar   
    21   10   11 ar   
    22   10   71 1    
    23   11   12 ar   
    24   11   61 1    
    25   12   13 ar   
    26   12   72 1    
    27   13   14 ar   
    28   13   15 1    
    29   14   73 1    
    30   15   16 1    
    31   15   74 1    
    32   15   75 1    
    33   16   17 1    
    34   17   18 1    
    35   17   76 1    
    36   17   77 1    
    37   18   19 1    
    38   18   27 1    
    39   18   78 1    
    40   19   20 am   BACKBONE|DICT|INTERRES
    41   19   79 1    
    42   20   21 2    
    43   20   22 1    
    44   22   23 1    
    45   22   24 1    
    46   22   80 1    
    47   23   81 1    
    48   23   82 1    
    49   23   83 1    
    50   24   25 am   BACKBONE|DICT|INTERRES
    51   24   84 1    
    52   25   26 2    
    53   27   28 2    
    54   27   29 am   BACKBONE|DICT|INTERRES
    55   29   30 1    
    56   29   85 1    
    57   30   31 1    
    58   30   32 1    
    59   30   86 1    
    60   31   87 1    
    61   31   88 1    
    62   31   89 1    
    63   32   33 2    
    64   32   34 am   BACKBONE|DICT|INTERRES
    65   34   35 1    
    66   34   90 1    
    67   35   36 1    
    68   35   37 1    
    69   35   91 1    
    70   36   92 1    
    71   36   93 1    
    72   36   94 1    
    73   37   38 2    
    74   37   39 am   BACKBONE|DICT|INTERRES
    75   39   40 1    
    76   39   95 1    
    77   40   41 1    
    78   40   42 1    
    79   40   96 1    
    80   41   97 1    
    81   41   98 1    
    82   41   99 1    
    83   42   43 2    
    84   42   44 am   BACKBONE|DICT|INTERRES
    85   44   45 1    
    86   44  100 1    
    87   45   46 1    
    88   45   47 1    
    89   45  101 1    
    90   46  102 1    
    91   46  103 1    
    92   46  104 1    
    93   47   48 2    
    94   47   49 am   BACKBONE|DICT|INTERRES
    95   49   50 1    
    96   49  105 1    
    97   50   51 1    
    98   50   52 1    
    99   50  106 1    
   100   51  107 1    
   101   51  108 1    
   102   51  109 1    
   103   52   53 2    
   104   52   54 am   BACKBONE|DICT|INTERRES
   105   54   55 1    
   106   54  110 1    
   107   55   56 1    
   108   55   59 1    
   109   55  111 1    
   110   56   57 am   BACKBONE|DICT|INTERRES
   111   56   58 2    
   112   57  112 1    
   113   57  113 1    
   114   59   60 1    
   115   59  114 1    
   116   59  115 1    
   117   60   61 1    
   118   61  116 1    
   119   61  117 1    
@<TRIPOS>SUBSTRUCTURE
     1 UNK         1 GROUP             0       ****    0 ROOT    
