@<TRIPOS>MOLECULE
3R8
117   119    1
SMALL
USER_CHARGES


@<TRIPOS>ATOM
      1 CA         17.6781  -24.7162  -47.9854 C.3       0 UNK        -0.2013 
      2 C          17.8445  -25.6794  -46.8201 C.2       0 UNK         0.4866 
      3 O          18.9761  -25.9573  -46.4189 O.2       0 UNK        -0.5176 
      4 N          16.7252  -26.1871  -46.2798 N.am      1 UNK        -0.4884 
      5 CA         16.6583  -27.1024  -45.1342 C.3       1 UNK         0.0853 
      6 C6         15.2226  -27.6636  -44.9502 C.3       10 UNK        -0.0849 
      7 S7         14.9413  -28.7072  -43.4738 S.3       10 UNK        -0.2776 
      8 C8         15.7772  -30.2701  -43.9035 C.3       10 UNK         0.0316 
      9 C9         17.2696  -30.2271  -43.5981 C.ar      10 UNK        -0.0863 
     10 C10        17.7126  -30.0250  -42.2867 C.ar      10 UNK        -0.1009 
     11 C11        19.0785  -29.9796  -41.9940 C.ar      10 UNK        -0.0712 
     12 C12        20.0068  -30.1502  -43.0254 C.ar      10 UNK        -0.0894 
     13 C13        19.5781  -30.3717  -44.3369 C.ar      10 UNK        -0.0745 
     14 C14        18.2089  -30.4095  -44.6174 C.ar      10 UNK        -0.0972 
     15 C15        20.5875  -30.5953  -45.4516 C.3       10 UNK         0.0209 
     16 S16        21.0243  -29.0399  -46.2884 S.3       10 UNK        -0.2568 
     17 C17        22.3995  -28.4375  -45.2525 C.3       10 UNK        -0.0983 
     18 CA         22.3550  -26.9047  -45.0209 C.3       3 UNK         0.0876 
     19 N          21.1310  -26.4803  -44.3267 N.am      3 UNK        -0.4424 
     20 C          20.8319  -26.6788  -43.0305 C.2       2 UNK         0.4918 
     21 O          21.5867  -27.2000  -42.2147 O.2       2 UNK        -0.4875 
     22 CA         19.4261  -26.2618  -42.5856 C.3       2 UNK         0.0481 
     23 CB         19.3779  -24.7275  -42.4212 C.3       2 UNK        -0.1831 
     24 N          18.4994  -26.7751  -43.5917 N.am      2 UNK        -0.4498 
     25 C          17.2418  -26.4244  -43.8753 C.2       1 UNK         0.5027 
     26 O          16.5766  -25.5908  -43.2570 O.2       1 UNK        -0.4969 
     27 C          23.6392  -26.3736  -44.3388 C.2       3 UNK         0.5005 
     28 O          24.5751  -27.1406  -44.1078 O.2       3 UNK        -0.5279 
     29 N          23.6434  -25.0675  -44.0232 N.am      4 UNK        -0.4463 
     30 CA         24.6652  -24.3404  -43.2572 C.3       4 UNK         0.0283 
     31 CB         26.0396  -24.3650  -43.9614 C.3       4 UNK        -0.1875 
     32 C          24.7226  -24.8360  -41.8002 C.2       4 UNK         0.4949 
     33 O          25.6642  -25.5252  -41.4059 O.2       4 UNK        -0.5039 
     34 N          23.6814  -24.4755  -41.0382 N.am      5 UNK        -0.4663 
     35 CA         23.4156  -24.7890  -39.6267 C.3       5 UNK         0.0242 
     36 CB         24.5631  -24.3421  -38.6981 C.3       5 UNK        -0.1982 
     37 C          23.0137  -26.2512  -39.3712 C.2       5 UNK         0.5017 
     38 O          21.9780  -26.4735  -38.7422 O.2       5 UNK        -0.5012 
     39 N          23.8077  -27.2108  -39.8589 N.am      6 UNK        -0.4439 
     40 CA         23.5187  -28.6419  -39.8036 C.3       6 UNK         0.0297 
     41 CB         23.7250  -29.1906  -38.3777 C.3       6 UNK        -0.2006 
     42 C          24.4071  -29.3931  -40.7990 C.2       6 UNK         0.4892 
     43 O          25.5690  -29.0217  -40.9784 O.2       6 UNK        -0.5089 
     44 N          23.8637  -30.4749  -41.3673 N.am      7 UNK        -0.4243 
     45 CA         24.5640  -31.4245  -42.2295 C.3       7 UNK         0.0196 
     46 CB         24.7597  -30.8520  -43.6478 C.3       7 UNK        -0.2007 
     47 C          23.7544  -32.7246  -42.2262 C.2       7 UNK         0.5020 
     48 O          22.9628  -32.9580  -43.1411 O.2       7 UNK        -0.5147 
     49 N          23.9090  -33.5091  -41.1500 N.am      8 UNK        -0.4734 
     50 CA         23.2184  -34.7692  -40.8181 C.3       8 UNK         0.0238 
     51 CB         23.4462  -35.8513  -41.8927 C.3       8 UNK        -0.1912 
     52 C          21.7207  -34.6054  -40.4969 C.2       8 UNK         0.5038 
     53 O          21.2670  -35.1293  -39.4790 O.2       8 UNK        -0.5046 
     54 N          21.0000  -33.8631  -41.3450 N.am      9 UNK        -0.4200 
     55 CA         19.6006  -33.4343  -41.1814 C.3       9 UNK         0.0839 
     56 C          18.5490  -34.5821  -41.2489 C.2       9 UNK         0.5513 
     57 N          18.8810  -35.7472  -41.7923 N.am      9 UNK        -0.7519 
     58 O          17.4066  -34.4110  -40.8307 O.2       9 UNK        -0.4960 
     59 C59        19.3959  -32.4975  -39.9536 C.3       10 UNK        -0.0876 
     60 S60        20.5697  -31.0956  -39.9204 S.3       10 UNK        -0.2414 
     61 C61        19.5466  -29.7343  -40.5654 C.3       10 UNK         0.0169 
     62 H62        18.1094  -23.7475  -47.7344 H         1 UNK         0.0903 
     63 H63        18.1938  -25.1009  -48.8648 H         1 UNK         0.0903 
     64 H64        16.6307  -24.5646  -48.2454 H         1 UNK         0.0903 
     65 H65        15.8324  -25.8918  -46.6492 H         1 UNK         0.3096 
     66 H66        17.2977  -27.9491  -45.3864 H         1 UNK         0.1121 
     67 H67        14.9324  -28.2331  -45.8346 H         1 UNK         0.0849 
     68 H68        14.5140  -26.8357  -44.8880 H         1 UNK         0.0849 
     69 H69        15.3288  -31.0766  -43.3215 H         1 UNK         0.0865 
     70 H70        15.5908  -30.5121  -44.9511 H         1 UNK         0.0865 
     71 H71        16.9876  -29.8912  -41.4954 H         1 UNK         0.1346 
     72 H72        21.0635  -30.1192  -42.8005 H         1 UNK         0.1412 
     73 H73        17.8774  -30.5817  -45.6326 H         1 UNK         0.1426 
     74 H74        20.1696  -31.2808  -46.1903 H         1 UNK         0.0716 
     75 H75        21.4849  -31.0829  -45.0669 H         1 UNK         0.0716 
     76 H76        23.3249  -28.7291  -45.7525 H         1 UNK         0.0695 
     77 H77        22.3927  -28.9499  -44.2912 H         1 UNK         0.0695 
     78 H78        22.3282  -26.4283  -46.0024 H         1 UNK         0.0983 
     79 H79        20.4167  -26.0820  -44.9298 H         1 UNK         0.3095 
     80 H80        19.1996  -26.7396  -41.6313 H         1 UNK         0.0454 
     81 H81        18.4550  -24.4039  -41.9412 H         1 UNK         0.0851 
     82 H82        19.4580  -24.2117  -43.3787 H         1 UNK         0.0851 
     83 H83        20.1950  -24.3772  -41.7892 H         1 UNK         0.0851 
     84 H84        18.9150  -27.4830  -44.1848 H         1 UNK         0.2976 
     85 H85        22.8166  -24.5355  -44.2579 H         1 UNK         0.3116 
     86 H86        24.3441  -23.2979  -43.2267 H         1 UNK         0.0646 
     87 H87        26.4672  -25.3669  -44.0019 H         1 UNK         0.0847 
     88 H88        25.9701  -23.9887  -44.9818 H         1 UNK         0.0847 
     89 H89        26.7545  -23.7352  -43.4308 H         1 UNK         0.0847 
     90 H90        22.9535  -23.9379  -41.4879 H         1 UNK         0.3040 
     91 H91        22.5448  -24.1862  -39.3619 H         1 UNK         0.1015 
     92 H92        24.2846  -24.4717  -37.6514 H         1 UNK         0.0786 
     93 H93        24.8023  -23.2884  -38.8415 H         1 UNK         0.0786 
     94 H94        25.4742  -24.9186  -38.8599 H         1 UNK         0.0786 
     95 H95        24.6248  -26.9435  -40.4045 H         1 UNK         0.3172 
     96 H96        22.4786  -28.7861  -40.0981 H         1 UNK         0.0595 
     97 H97        23.5409  -30.2652  -38.3422 H         1 UNK         0.0839 
     98 H98        23.0424  -28.7283  -37.6648 H         1 UNK         0.0839 
     99 H99        24.7434  -29.0205  -38.0266 H         1 UNK         0.0839 
    100 H100       22.9116  -30.7233  -41.1292 H         1 UNK         0.2998 
    101 H101       25.5480  -31.6323  -41.8036 H         1 UNK         0.0822 
    102 H102       25.3458  -31.5368  -44.2615 H         1 UNK         0.0787 
    103 H103       23.8099  -30.6998  -44.1566 H         1 UNK         0.0787 
    104 H104       25.2874  -29.8982  -43.6310 H         1 UNK         0.0787 
    105 H105       24.5501  -33.1861  -40.4373 H         1 UNK         0.3055 
    106 H106       23.6881  -35.1263  -39.8996 H         1 UNK         0.1106 
    107 H107       24.5091  -36.0190  -42.0663 H         1 UNK         0.0828 
    108 H108       23.0157  -36.8038  -41.5806 H         1 UNK         0.0828 
    109 H109       22.9887  -35.5891  -42.8469 H         1 UNK         0.0828 
    110 H110       21.4887  -33.4914  -42.1555 H         1 UNK         0.2931 
    111 H111       19.3927  -32.8392  -42.0704 H         1 UNK         0.0412 
    112 H112       18.1951  -36.4842  -41.8424 H         1 UNK         0.3472 
    113 H113       19.8121  -35.8961  -42.1469 H         1 UNK         0.3472 
    114 H114       19.5126  -33.0598  -39.0259 H         1 UNK         0.0970 
    115 H115       18.3777  -32.1051  -39.9372 H         1 UNK         0.0970 
    116 H116       18.6988  -29.5821  -39.8959 H         1 UNK         0.0612 
    117 H117       20.1270  -28.8123  -40.5353 H         1 UNK         0.0612 
@<TRIPOS>BOND
     1    1    2 1    
     2    1   62 1    
     3    1   63 1    
     4    1   64 1    
     5    2    3 2    
     6    2    4 am   BACKBONE|DICT|INTERRES
     7    4    5 1    
     8    4   65 1    
     9    5    6 1    
    10    5   25 1    
    11    5   66 1    
    12    6    7 1    
    13    6   67 1    
    14    6   68 1    
    15    7    8 1    
    16    8    9 1    
    17    8   69 1    
    18    8   70 1    
    19    9   10 ar   
    20    9   14 ar   
    21   10   11 ar   
    22   10   71 1    
    23   11   12 ar   
    24   11   61 1    
    25   12   13 ar   
    26   12   72 1    
    27   13   14 ar   
    28   13   15 1    
    29   14   73 1    
    30   15   16 1    
    31   15   74 1    
    32   15   75 1    
    33   16   17 1    
    34   17   18 1    
    35   17   76 1    
    36   17   77 1    
    37   18   19 1    
    38   18   27 1    
    39   18   78 1    
    40   19   20 am   BACKBONE|DICT|INTERRES
    41   19   79 1    
    42   20   21 2    
    43   20   22 1    
    44   22   23 1    
    45   22   24 1    
    46   22   80 1    
    47   23   81 1    
    48   23   82 1    
    49   23   83 1    
    50   24   25 am   BACKBONE|DICT|INTERRES
    51   24   84 1    
    52   25   26 2    
    53   27   28 2    
    54   27   29 am   BACKBONE|DICT|INTERRES
    55   29   30 1    
    56   29   85 1    
    57   30   31 1    
    58   30   32 1    
    59   30   86 1    
    60   31   87 1    
    61   31   88 1    
    62   31   89 1    
    63   32   33 2    
    64   32   34 am   BACKBONE|DICT|INTERRES
    65   34   35 1    
    66   34   90 1    
    67   35   36 1    
    68   35   37 1    
    69   35   91 1    
    70   36   92 1    
    71   36   93 1    
    72   36   94 1    
    73   37   38 2    
    74   37   39 am   BACKBONE|DICT|INTERRES
    75   39   40 1    
    76   39   95 1    
    77   40   41 1    
    78   40   42 1    
    79   40   96 1    
    80   41   97 1    
    81   41   98 1    
    82   41   99 1    
    83   42   43 2    
    84   42   44 am   BACKBONE|DICT|INTERRES
    85   44   45 1    
    86   44  100 1    
    87   45   46 1    
    88   45   47 1    
    89   45  101 1    
    90   46  102 1    
    91   46  103 1    
    92   46  104 1    
    93   47   48 2    
    94   47   49 am   BACKBONE|DICT|INTERRES
    95   49   50 1    
    96   49  105 1    
    97   50   51 1    
    98   50   52 1    
    99   50  106 1    
   100   51  107 1    
   101   51  108 1    
   102   51  109 1    
   103   52   53 2    
   104   52   54 am   BACKBONE|DICT|INTERRES
   105   54   55 1    
   106   54  110 1    
   107   55   56 1    
   108   55   59 1    
   109   55  111 1    
   110   56   57 am   BACKBONE|DICT|INTERRES
   111   56   58 2    
   112   57  112 1    
   113   57  113 1    
   114   59   60 1    
   115   59  114 1    
   116   59  115 1    
   117   60   61 1    
   118   61  116 1    
   119   61  117 1    
@<TRIPOS>SUBSTRUCTURE
     1 UNK         1 GROUP             0       ****    0 ROOT    
