@<TRIPOS>MOLECULE
3R8
117   119    1
SMALL
USER_CHARGES


@<TRIPOS>ATOM
      1 CA         17.5540  -27.9532  -41.9314 C.3       0 UNK        -0.2013 
      2 C          17.4649  -26.8853  -43.0081 C.2       0 UNK         0.4866 
      3 O          17.6410  -25.7036  -42.7111 O.2       0 UNK        -0.5176 
      4 N          17.2050  -27.2840  -44.2603 N.am      1 UNK        -0.4884 
      5 CA         17.0070  -26.3964  -45.4163 C.3       1 UNK         0.0853 
      6 C6         16.1719  -27.0731  -46.5376 C.3       10 UNK        -0.0849 
      7 S7         14.6382  -27.8523  -45.9183 S.3       10 UNK        -0.2776 
      8 C8         14.9037  -29.6084  -46.3367 C.3       10 UNK         0.0316 
      9 C9         16.0659  -30.2342  -45.5730 C.ar      10 UNK        -0.0863 
     10 C10        15.8842  -30.7102  -44.2705 C.ar      10 UNK        -0.1009 
     11 C11        16.9301  -31.3312  -43.5766 C.ar      10 UNK        -0.0712 
     12 C12        18.1751  -31.4619  -44.2080 C.ar      10 UNK        -0.0894 
     13 C13        18.3741  -30.9785  -45.5046 C.ar      10 UNK        -0.0745 
     14 C14        17.3145  -30.3756  -46.1845 C.ar      10 UNK        -0.0972 
     15 C15        19.7297  -31.1233  -46.1820 C.3       10 UNK         0.0209 
     16 S16        20.7017  -29.5849  -46.1105 S.3       10 UNK        -0.2568 
     17 C17        20.9845  -29.4111  -44.3178 C.3       10 UNK        -0.0983 
     18 CA         21.6686  -28.0770  -43.9335 C.3       3 UNK         0.0876 
     19 N          20.9321  -26.9241  -44.4627 N.am      3 UNK        -0.4424 
     20 C          21.4160  -25.6903  -44.6565 C.2       2 UNK         0.4918 
     21 O          22.5773  -25.3729  -44.4016 O.2       2 UNK        -0.4875 
     22 CA         20.4289  -24.6109  -45.1493 C.3       2 UNK         0.0481 
     23 CB         20.8381  -24.0409  -46.5223 C.3       2 UNK        -0.1831 
     24 N          19.0222  -25.0450  -45.1085 N.am      2 UNK        -0.4498 
     25 C          18.3708  -25.8832  -45.9291 C.2       1 UNK         0.5027 
     26 O          18.8409  -26.3199  -46.9794 O.2       1 UNK        -0.4969 
     27 C          21.8511  -28.0200  -42.3995 C.2       3 UNK         0.5005 
     28 O          22.5280  -28.8894  -41.8449 O.2       3 UNK        -0.5279 
     29 N          21.2204  -27.0284  -41.7482 N.am      4 UNK        -0.4463 
     30 CA         21.1593  -26.8131  -40.2994 C.3       4 UNK         0.0283 
     31 CB         20.1920  -25.6545  -40.0064 C.3       4 UNK        -0.1875 
     32 C          22.5151  -26.5502  -39.6234 C.2       4 UNK         0.4949 
     33 O          22.6221  -26.7179  -38.4091 O.2       4 UNK        -0.5039 
     34 N          23.5364  -26.1705  -40.4023 N.am      5 UNK        -0.4663 
     35 CA         24.9175  -25.9520  -39.9579 C.3       5 UNK         0.0242 
     36 CB         25.6103  -25.0109  -40.9616 C.3       5 UNK        -0.1982 
     37 C          25.6993  -27.2691  -39.7472 C.2       5 UNK         0.5017 
     38 O          26.8813  -27.3365  -40.0881 O.2       5 UNK        -0.5012 
     39 N          25.0228  -28.2955  -39.2093 N.am      6 UNK        -0.4439 
     40 CA         25.5000  -29.6578  -38.9448 C.3       6 UNK         0.0297 
     41 CB         26.5851  -29.6532  -37.8467 C.3       6 UNK        -0.2006 
     42 C          25.9379  -30.4251  -40.2095 C.2       6 UNK         0.4892 
     43 O          26.7570  -31.3405  -40.1080 O.2       6 UNK        -0.5089 
     44 N          25.3879  -30.0563  -41.3762 N.am      7 UNK        -0.4243 
     45 CA         25.6855  -30.7018  -42.6580 C.3       7 UNK         0.0196 
     46 CB         25.3974  -29.7235  -43.8059 C.3       7 UNK        -0.2007 
     47 C          24.8884  -32.0016  -42.8448 C.2       7 UNK         0.5020 
     48 O          25.3762  -32.9205  -43.5030 O.2       7 UNK        -0.5147 
     49 N          23.6901  -32.0576  -42.2520 N.am      8 UNK        -0.4734 
     50 CA         22.8136  -33.2307  -42.2281 C.3       8 UNK         0.0238 
     51 CB         22.1388  -33.4511  -43.5954 C.3       8 UNK        -0.1912 
     52 C          21.7569  -33.1087  -41.1249 C.2       8 UNK         0.5038 
     53 O          21.4339  -34.1161  -40.4947 O.2       8 UNK        -0.5046 
     54 N          21.2488  -31.8885  -40.9132 N.am      9 UNK        -0.4200 
     55 CA         20.2435  -31.5456  -39.8991 C.3       9 UNK         0.0839 
     56 C          20.7915  -30.4631  -38.9274 C.2       9 UNK         0.5513 
     57 N          19.9788  -29.9870  -37.9942 N.am      9 UNK        -0.7519 
     58 O          21.9534  -30.0661  -38.9841 O.2       9 UNK        -0.4960 
     59 C59        18.8947  -31.1565  -40.5712 C.3       10 UNK        -0.0876 
     60 S60        18.0567  -32.6146  -41.2806 S.3       10 UNK        -0.2414 
     61 C61        16.6471  -31.8587  -42.1657 C.3       10 UNK         0.0169 
     62 H62        18.5710  -28.0248  -41.5510 H         1 UNK         0.0903 
     63 H63        16.8960  -27.7028  -41.0998 H         1 UNK         0.0903 
     64 H64        17.2597  -28.9283  -42.3100 H         1 UNK         0.0903 
     65 H65        17.0602  -28.2671  -44.4531 H         1 UNK         0.3096 
     66 H66        16.4411  -25.5239  -45.0806 H         1 UNK         0.1121 
     67 H67        16.7610  -27.8165  -47.0737 H         1 UNK         0.0849 
     68 H68        15.8913  -26.3310  -47.2871 H         1 UNK         0.0849 
     69 H69        13.9889  -30.1614  -46.1180 H         1 UNK         0.0865 
     70 H70        15.0576  -29.7029  -47.4130 H         1 UNK         0.0865 
     71 H71        14.9154  -30.6097  -43.7993 H         1 UNK         0.1346 
     72 H72        19.0009  -31.9405  -43.7026 H         1 UNK         0.1412 
     73 H73        17.4673  -30.0220  -47.1952 H         1 UNK         0.1426 
     74 H74        19.5848  -31.3958  -47.2284 H         1 UNK         0.0716 
     75 H75        20.3009  -31.9381  -45.7375 H         1 UNK         0.0716 
     76 H76        20.0268  -29.4955  -43.8028 H         1 UNK         0.0695 
     77 H77        21.5914  -30.2577  -43.9934 H         1 UNK         0.0695 
     78 H78        22.6651  -28.0591  -44.3769 H         1 UNK         0.0983 
     79 H79        19.9851  -27.1082  -44.7584 H         1 UNK         0.3095 
     80 H80        20.4955  -23.7941  -44.4292 H         1 UNK         0.0454 
     81 H81        21.8147  -23.5590  -46.4634 H         1 UNK         0.0851 
     82 H82        20.9131  -24.8168  -47.2844 H         1 UNK         0.0851 
     83 H83        20.1279  -23.2915  -46.8709 H         1 UNK         0.0851 
     84 H84        18.5437  -24.8372  -44.2350 H         1 UNK         0.2976 
     85 H85        20.7059  -26.3678  -42.3115 H         1 UNK         0.3116 
     86 H86        20.7468  -27.7177  -39.8529 H         1 UNK         0.0646 
     87 H87        20.1057  -25.4794  -38.9330 H         1 UNK         0.0847 
     88 H88        19.1883  -25.8646  -40.3746 H         1 UNK         0.0847 
     89 H89        20.5285  -24.7220  -40.4612 H         1 UNK         0.0847 
     90 H90        23.3627  -26.0799  -41.3930 H         1 UNK         0.3040 
     91 H91        24.8942  -25.4465  -38.9898 H         1 UNK         0.1015 
     92 H92        25.0612  -24.0757  -41.0735 H         1 UNK         0.0786 
     93 H93        25.6986  -25.4689  -41.9477 H         1 UNK         0.0786 
     94 H94        26.6167  -24.7522  -40.6293 H         1 UNK         0.0786 
     95 H95        24.0543  -28.1207  -38.9592 H         1 UNK         0.3172 
     96 H96        24.6412  -30.2025  -38.5511 H         1 UNK         0.0595 
     97 H97        26.2483  -29.1201  -36.9577 H         1 UNK         0.0839 
     98 H98        27.5074  -29.1843  -38.1909 H         1 UNK         0.0839 
     99 H99        26.8342  -30.6688  -37.5367 H         1 UNK         0.0839 
    100 H100       24.6814  -29.3299  -41.3756 H         1 UNK         0.2998 
    101 H101       26.7484  -30.9523  -42.6881 H         1 UNK         0.0822 
    102 H102       25.7092  -30.1456  -44.7622 H         1 UNK         0.0787 
    103 H103       24.3347  -29.5033  -43.8819 H         1 UNK         0.0787 
    104 H104       25.9320  -28.7825  -43.6745 H         1 UNK         0.0787 
    105 H105       23.4102  -31.2628  -41.6928 H         1 UNK         0.3055 
    106 H106       23.4236  -34.1067  -41.9949 H         1 UNK         0.1106 
    107 H107       22.8697  -33.6206  -44.3858 H         1 UNK         0.0828 
    108 H108       21.4845  -34.3236  -43.5705 H         1 UNK         0.0828 
    109 H109       21.5284  -32.5964  -43.8800 H         1 UNK         0.0828 
    110 H110       21.6036  -31.0998  -41.4348 H         1 UNK         0.2931 
    111 H111       20.0650  -32.4120  -39.2596 H         1 UNK         0.0412 
    112 H112       20.3347  -29.2963  -37.3520 H         1 UNK         0.3472 
    113 H113       19.0349  -30.3246  -37.8924 H         1 UNK         0.3472 
    114 H114       19.0606  -30.4177  -41.3556 H         1 UNK         0.0970 
    115 H115       18.2040  -30.7027  -39.8594 H         1 UNK         0.0970 
    116 H116       15.8673  -32.6175  -42.2434 H         1 UNK         0.0612 
    117 H117       16.2320  -31.0583  -41.5518 H         1 UNK         0.0612 
@<TRIPOS>BOND
     1    1    2 1    
     2    1   62 1    
     3    1   63 1    
     4    1   64 1    
     5    2    3 2    
     6    2    4 am   BACKBONE|DICT|INTERRES
     7    4    5 1    
     8    4   65 1    
     9    5    6 1    
    10    5   25 1    
    11    5   66 1    
    12    6    7 1    
    13    6   67 1    
    14    6   68 1    
    15    7    8 1    
    16    8    9 1    
    17    8   69 1    
    18    8   70 1    
    19    9   10 ar   
    20    9   14 ar   
    21   10   11 ar   
    22   10   71 1    
    23   11   12 ar   
    24   11   61 1    
    25   12   13 ar   
    26   12   72 1    
    27   13   14 ar   
    28   13   15 1    
    29   14   73 1    
    30   15   16 1    
    31   15   74 1    
    32   15   75 1    
    33   16   17 1    
    34   17   18 1    
    35   17   76 1    
    36   17   77 1    
    37   18   19 1    
    38   18   27 1    
    39   18   78 1    
    40   19   20 am   BACKBONE|DICT|INTERRES
    41   19   79 1    
    42   20   21 2    
    43   20   22 1    
    44   22   23 1    
    45   22   24 1    
    46   22   80 1    
    47   23   81 1    
    48   23   82 1    
    49   23   83 1    
    50   24   25 am   BACKBONE|DICT|INTERRES
    51   24   84 1    
    52   25   26 2    
    53   27   28 2    
    54   27   29 am   BACKBONE|DICT|INTERRES
    55   29   30 1    
    56   29   85 1    
    57   30   31 1    
    58   30   32 1    
    59   30   86 1    
    60   31   87 1    
    61   31   88 1    
    62   31   89 1    
    63   32   33 2    
    64   32   34 am   BACKBONE|DICT|INTERRES
    65   34   35 1    
    66   34   90 1    
    67   35   36 1    
    68   35   37 1    
    69   35   91 1    
    70   36   92 1    
    71   36   93 1    
    72   36   94 1    
    73   37   38 2    
    74   37   39 am   BACKBONE|DICT|INTERRES
    75   39   40 1    
    76   39   95 1    
    77   40   41 1    
    78   40   42 1    
    79   40   96 1    
    80   41   97 1    
    81   41   98 1    
    82   41   99 1    
    83   42   43 2    
    84   42   44 am   BACKBONE|DICT|INTERRES
    85   44   45 1    
    86   44  100 1    
    87   45   46 1    
    88   45   47 1    
    89   45  101 1    
    90   46  102 1    
    91   46  103 1    
    92   46  104 1    
    93   47   48 2    
    94   47   49 am   BACKBONE|DICT|INTERRES
    95   49   50 1    
    96   49  105 1    
    97   50   51 1    
    98   50   52 1    
    99   50  106 1    
   100   51  107 1    
   101   51  108 1    
   102   51  109 1    
   103   52   53 2    
   104   52   54 am   BACKBONE|DICT|INTERRES
   105   54   55 1    
   106   54  110 1    
   107   55   56 1    
   108   55   59 1    
   109   55  111 1    
   110   56   57 am   BACKBONE|DICT|INTERRES
   111   56   58 2    
   112   57  112 1    
   113   57  113 1    
   114   59   60 1    
   115   59  114 1    
   116   59  115 1    
   117   60   61 1    
   118   61  116 1    
   119   61  117 1    
@<TRIPOS>SUBSTRUCTURE
     1 UNK         1 GROUP             0       ****    0 ROOT    
