@<TRIPOS>MOLECULE
3R8
117   119    1
SMALL
USER_CHARGES


@<TRIPOS>ATOM
      1 CA         15.8365  -26.6348  -48.9956 C.3       0 UNK        -0.2013 
      2 C          16.7516  -26.7580  -47.7862 C.2       0 UNK         0.4866 
      3 O          16.2657  -26.7122  -46.6560 O.2       0 UNK        -0.5176 
      4 N          18.0607  -26.9248  -48.0300 N.am      1 UNK        -0.4884 
      5 CA         19.1576  -27.0386  -47.0528 C.3       1 UNK         0.0853 
      6 C6         18.9658  -28.1808  -46.0125 C.3       10 UNK        -0.0849 
      7 S7         18.6919  -29.8357  -46.7242 S.3       10 UNK        -0.2776 
      8 C8         17.0048  -30.2146  -46.1431 C.3       10 UNK         0.0316 
      9 C9         16.8900  -30.2271  -44.6220 C.ar      10 UNK        -0.0863 
     10 C10        17.3994  -31.2997  -43.8846 C.ar      10 UNK        -0.1009 
     11 C11        17.2506  -31.3431  -42.4944 C.ar      10 UNK        -0.0712 
     12 C12        16.5884  -30.2965  -41.8431 C.ar      10 UNK        -0.0894 
     13 C13        16.0928  -29.2062  -42.5656 C.ar      10 UNK        -0.0745 
     14 C14        16.2418  -29.1816  -43.9551 C.ar      10 UNK        -0.0972 
     15 C15        15.3470  -28.0846  -41.8529 C.3       10 UNK         0.0209 
     16 S16        16.3865  -27.1972  -40.6473 S.3       10 UNK        -0.2568 
     17 C17        17.4555  -26.1617  -41.7079 C.3       10 UNK        -0.0983 
     18 CA         18.8952  -26.7267  -41.8468 C.3       3 UNK         0.0876 
     19 N          19.5956  -26.2103  -43.0302 N.am      3 UNK        -0.4424 
     20 C          20.0245  -24.9528  -43.2378 C.2       2 UNK         0.4918 
     21 O          19.8251  -24.0164  -42.4647 O.2       2 UNK        -0.4875 
     22 CA         20.8373  -24.6998  -44.5253 C.3       2 UNK         0.0481 
     23 CB         22.3424  -24.7035  -44.2082 C.3       2 UNK        -0.1831 
     24 N          20.5587  -25.6971  -45.5640 N.am      2 UNK        -0.4498 
     25 C          19.4452  -25.7107  -46.3120 C.2       1 UNK         0.5027 
     26 O          18.6653  -24.7573  -46.3761 O.2       1 UNK        -0.4969 
     27 C          19.7776  -26.5871  -40.5821 C.2       3 UNK         0.5005 
     28 O          19.3385  -26.0724  -39.5515 O.2       3 UNK        -0.5279 
     29 N          21.0336  -27.0319  -40.7109 N.am      4 UNK        -0.4463 
     30 CA         22.0438  -27.0600  -39.6604 C.3       4 UNK         0.0283 
     31 CB         23.1352  -26.0254  -39.9768 C.3       4 UNK        -0.1875 
     32 C          22.6208  -28.4760  -39.6150 C.2       4 UNK         0.4949 
     33 O          22.8957  -29.0499  -40.6746 O.2       4 UNK        -0.5039 
     34 N          22.7648  -29.0176  -38.3998 N.am      5 UNK        -0.4663 
     35 CA         23.2367  -30.3779  -38.1329 C.3       5 UNK         0.0242 
     36 CB         23.1229  -30.6695  -36.6282 C.3       5 UNK        -0.1982 
     37 C          24.6778  -30.5945  -38.6163 C.2       5 UNK         0.5017 
     38 O          25.5378  -29.7530  -38.3478 O.2       5 UNK        -0.5012 
     39 N          24.9022  -31.7003  -39.3375 N.am      6 UNK        -0.4439 
     40 CA         26.1485  -32.1566  -39.9714 C.3       6 UNK         0.0297 
     41 CB         27.2822  -32.3399  -38.9434 C.3       6 UNK        -0.2006 
     42 C          26.6088  -31.2970  -41.1637 C.2       6 UNK         0.4892 
     43 O          27.1438  -31.8505  -42.1246 O.2       6 UNK        -0.5089 
     44 N          26.3817  -29.9790  -41.0993 N.am      7 UNK        -0.4243 
     45 CA         26.6528  -29.0140  -42.1646 C.3       7 UNK         0.0196 
     46 CB         26.4970  -27.5911  -41.6075 C.3       7 UNK        -0.2007 
     47 C          25.7565  -29.2151  -43.3978 C.2       7 UNK         0.5020 
     48 O          26.2278  -29.0163  -44.5180 O.2       7 UNK        -0.5147 
     49 N          24.4973  -29.6168  -43.1789 N.am      8 UNK        -0.4734 
     50 CA         23.5474  -29.9472  -44.2428 C.3       8 UNK         0.0238 
     51 CB         22.8106  -28.6817  -44.7159 C.3       8 UNK        -0.1912 
     52 C          22.5579  -31.0356  -43.8095 C.2       8 UNK         0.5038 
     53 O          22.3144  -31.9641  -44.5804 O.2       8 UNK        -0.5046 
     54 N          22.0021  -30.9039  -42.5989 N.am      9 UNK        -0.4200 
     55 CA         21.0480  -31.8510  -42.0140 C.3       9 UNK         0.0839 
     56 C          21.7992  -33.0576  -41.3928 C.2       9 UNK         0.5513 
     57 N          21.4865  -34.2759  -41.8107 N.am      9 UNK        -0.7519 
     58 O          22.6475  -32.8953  -40.5186 O.2       9 UNK        -0.4960 
     59 C59        20.1307  -31.1151  -41.0025 C.3       10 UNK        -0.0876 
     60 S60        18.7945  -32.1224  -40.2730 S.3       10 UNK        -0.2414 
     61 C61        17.7612  -32.5502  -41.7147 C.3       10 UNK         0.0169 
     62 H62        15.0873  -27.4260  -48.9802 H         1 UNK         0.0903 
     63 H63        15.3197  -25.6756  -48.9775 H         1 UNK         0.0903 
     64 H64        16.3855  -26.7065  -49.9344 H         1 UNK         0.0903 
     65 H65        18.3645  -26.9366  -48.9939 H         1 UNK         0.3096 
     66 H66        20.0498  -27.2639  -47.6399 H         1 UNK         0.1121 
     67 H67        19.8456  -28.2826  -45.3785 H         1 UNK         0.0849 
     68 H68        18.1535  -27.9262  -45.3339 H         1 UNK         0.0849 
     69 H69        16.3059  -29.4980  -46.5758 H         1 UNK         0.0865 
     70 H70        16.7111  -31.1903  -46.5328 H         1 UNK         0.0865 
     71 H71        17.8968  -32.1097  -44.4009 H         1 UNK         0.1346 
     72 H72        16.4559  -30.3307  -40.7702 H         1 UNK         0.1412 
     73 H73        15.8416  -28.3516  -44.5225 H         1 UNK         0.1426 
     74 H74        14.4966  -28.5166  -41.3236 H         1 UNK         0.0716 
     75 H75        14.9290  -27.3714  -42.5652 H         1 UNK         0.0716 
     76 H76        17.4724  -25.1456  -41.3100 H         1 UNK         0.0695 
     77 H77        16.9911  -26.0856  -42.6924 H         1 UNK         0.0695 
     78 H78        18.7981  -27.8004  -42.0191 H         1 UNK         0.0983 
     79 H79        19.8067  -26.8934  -43.7381 H         1 UNK         0.3095 
     80 H80        20.5719  -23.7096  -44.9020 H         1 UNK         0.0454 
     81 H81        22.6746  -25.6600  -43.8035 H         1 UNK         0.0851 
     82 H82        22.5848  -23.9392  -43.4684 H         1 UNK         0.0851 
     83 H83        22.9365  -24.4893  -45.0968 H         1 UNK         0.0851 
     84 H84        21.2082  -26.4664  -45.6349 H         1 UNK         0.2976 
     85 H85        21.3123  -27.4774  -41.5728 H         1 UNK         0.3116 
     86 H86        21.6015  -26.8256  -38.6896 H         1 UNK         0.0646 
     87 H87        23.5501  -26.1683  -40.9748 H         1 UNK         0.0847 
     88 H88        23.9578  -26.0881  -39.2631 H         1 UNK         0.0847 
     89 H89        22.7382  -25.0113  -39.9279 H         1 UNK         0.0847 
     90 H90        22.5418  -28.4563  -37.5904 H         1 UNK         0.3040 
     91 H91        22.5757  -31.0657  -38.6619 H         1 UNK         0.1015 
     92 H92        22.0939  -30.5743  -36.2808 H         1 UNK         0.0786 
     93 H93        23.7424  -29.9928  -36.0379 H         1 UNK         0.0786 
     94 H94        23.4462  -31.6869  -36.4031 H         1 UNK         0.0786 
     95 H95        24.0861  -32.2600  -39.5870 H         1 UNK         0.3172 
     96 H96        25.9155  -33.1426  -40.3767 H         1 UNK         0.0595 
     97 H97        27.6054  -31.3911  -38.5144 H         1 UNK         0.0839 
     98 H98        28.1568  -32.7954  -39.4097 H         1 UNK         0.0839 
     99 H99        26.9751  -32.9916  -38.1255 H         1 UNK         0.0839 
    100 H100       25.9830  -29.6209  -40.2369 H         1 UNK         0.2998 
    101 H101       27.6887  -29.1475  -42.4838 H         1 UNK         0.0822 
    102 H102       27.2078  -27.4004  -40.8032 H         1 UNK         0.0787 
    103 H103       26.6739  -26.8435  -42.3820 H         1 UNK         0.0787 
    104 H104       25.4948  -27.4265  -41.2135 H         1 UNK         0.0787 
    105 H105       24.1832  -29.7314  -42.2219 H         1 UNK         0.3055 
    106 H106       24.1005  -30.3563  -45.0921 H         1 UNK         0.1106 
    107 H107       22.2317  -28.2290  -43.9111 H         1 UNK         0.0828 
    108 H108       23.5099  -27.9339  -45.0904 H         1 UNK         0.0828 
    109 H109       22.1271  -28.9208  -45.5312 H         1 UNK         0.0828 
    110 H110       22.3019  -30.1503  -41.9864 H         1 UNK         0.2931 
    111 H111       20.4113  -32.2157  -42.8221 H         1 UNK         0.0412 
    112 H112       20.7968  -34.4183  -42.5315 H         1 UNK         0.3472 
    113 H113       21.9602  -35.0683  -41.4063 H         1 UNK         0.3472 
    114 H114       20.7217  -30.7158  -40.1785 H         1 UNK         0.0970 
    115 H115       19.6728  -30.2491  -41.4822 H         1 UNK         0.0970 
    116 H116       16.9012  -33.1210  -41.3624 H         1 UNK         0.0612 
    117 H117       18.3239  -33.2234  -42.3624 H         1 UNK         0.0612 
@<TRIPOS>BOND
     1    1    2 1    
     2    1   62 1    
     3    1   63 1    
     4    1   64 1    
     5    2    3 2    
     6    2    4 am   BACKBONE|DICT|INTERRES
     7    4    5 1    
     8    4   65 1    
     9    5    6 1    
    10    5   25 1    
    11    5   66 1    
    12    6    7 1    
    13    6   67 1    
    14    6   68 1    
    15    7    8 1    
    16    8    9 1    
    17    8   69 1    
    18    8   70 1    
    19    9   10 ar   
    20    9   14 ar   
    21   10   11 ar   
    22   10   71 1    
    23   11   12 ar   
    24   11   61 1    
    25   12   13 ar   
    26   12   72 1    
    27   13   14 ar   
    28   13   15 1    
    29   14   73 1    
    30   15   16 1    
    31   15   74 1    
    32   15   75 1    
    33   16   17 1    
    34   17   18 1    
    35   17   76 1    
    36   17   77 1    
    37   18   19 1    
    38   18   27 1    
    39   18   78 1    
    40   19   20 am   BACKBONE|DICT|INTERRES
    41   19   79 1    
    42   20   21 2    
    43   20   22 1    
    44   22   23 1    
    45   22   24 1    
    46   22   80 1    
    47   23   81 1    
    48   23   82 1    
    49   23   83 1    
    50   24   25 am   BACKBONE|DICT|INTERRES
    51   24   84 1    
    52   25   26 2    
    53   27   28 2    
    54   27   29 am   BACKBONE|DICT|INTERRES
    55   29   30 1    
    56   29   85 1    
    57   30   31 1    
    58   30   32 1    
    59   30   86 1    
    60   31   87 1    
    61   31   88 1    
    62   31   89 1    
    63   32   33 2    
    64   32   34 am   BACKBONE|DICT|INTERRES
    65   34   35 1    
    66   34   90 1    
    67   35   36 1    
    68   35   37 1    
    69   35   91 1    
    70   36   92 1    
    71   36   93 1    
    72   36   94 1    
    73   37   38 2    
    74   37   39 am   BACKBONE|DICT|INTERRES
    75   39   40 1    
    76   39   95 1    
    77   40   41 1    
    78   40   42 1    
    79   40   96 1    
    80   41   97 1    
    81   41   98 1    
    82   41   99 1    
    83   42   43 2    
    84   42   44 am   BACKBONE|DICT|INTERRES
    85   44   45 1    
    86   44  100 1    
    87   45   46 1    
    88   45   47 1    
    89   45  101 1    
    90   46  102 1    
    91   46  103 1    
    92   46  104 1    
    93   47   48 2    
    94   47   49 am   BACKBONE|DICT|INTERRES
    95   49   50 1    
    96   49  105 1    
    97   50   51 1    
    98   50   52 1    
    99   50  106 1    
   100   51  107 1    
   101   51  108 1    
   102   51  109 1    
   103   52   53 2    
   104   52   54 am   BACKBONE|DICT|INTERRES
   105   54   55 1    
   106   54  110 1    
   107   55   56 1    
   108   55   59 1    
   109   55  111 1    
   110   56   57 am   BACKBONE|DICT|INTERRES
   111   56   58 2    
   112   57  112 1    
   113   57  113 1    
   114   59   60 1    
   115   59  114 1    
   116   59  115 1    
   117   60   61 1    
   118   61  116 1    
   119   61  117 1    
@<TRIPOS>SUBSTRUCTURE
     1 UNK         1 GROUP             0       ****    0 ROOT    
