@<TRIPOS>MOLECULE
3R8
117   119    1
SMALL
USER_CHARGES


@<TRIPOS>ATOM
      1 CA         17.4383  -23.5768  -40.7278 C.3       0 UNK        -0.2013 
      2 C          17.7754  -24.6018  -41.7995 C.2       0 UNK         0.4866 
      3 O          17.4528  -24.3965  -42.9707 O.2       0 UNK        -0.5176 
      4 N          18.4320  -25.7040  -41.4155 N.am      1 UNK        -0.4884 
      5 CA         18.8491  -26.8032  -42.2965 C.3       1 UNK         0.0853 
      6 C6         18.9650  -28.1360  -41.5105 C.3       10 UNK        -0.0849 
      7 S7         17.2935  -28.7708  -41.1261 S.3       10 UNK        -0.2776 
      8 C8         17.2904  -30.5082  -41.7104 C.3       10 UNK         0.0316 
      9 C9         17.9319  -30.7726  -43.0740 C.ar      10 UNK        -0.0863 
     10 C10        18.5422  -32.0084  -43.2973 C.ar      10 UNK        -0.1009 
     11 C11        19.1872  -32.2887  -44.5058 C.ar      10 UNK        -0.0712 
     12 C12        19.2014  -31.3134  -45.5079 C.ar      10 UNK        -0.0894 
     13 C13        18.5896  -30.0680  -45.3104 C.ar      10 UNK        -0.0745 
     14 C14        17.9268  -29.8258  -44.1037 C.ar      10 UNK        -0.0972 
     15 C15        18.6090  -28.9545  -46.3611 C.3       10 UNK         0.0209 
     16 S16        19.8956  -29.0757  -47.6566 S.3       10 UNK        -0.2568 
     17 C17        21.4585  -29.1280  -46.7137 C.3       10 UNK        -0.0983 
     18 CA         22.2105  -27.7755  -46.7083 C.3       3 UNK         0.0876 
     19 N          21.4869  -26.7703  -45.9153 N.am      3 UNK        -0.4424 
     20 C          21.8842  -25.5208  -45.6353 C.2       2 UNK         0.4918 
     21 O          22.9294  -25.0229  -46.0542 O.2       2 UNK        -0.4875 
     22 CA         21.0033  -24.6802  -44.6940 C.3       2 UNK         0.0481 
     23 CB         20.3309  -23.5407  -45.4761 C.3       2 UNK        -0.1831 
     24 N          19.9730  -25.3974  -43.9361 N.am      2 UNK        -0.4498 
     25 C          20.1211  -26.4236  -43.0860 C.2       1 UNK         0.5027 
     26 O          21.1760  -27.0410  -42.9178 O.2       1 UNK        -0.4969 
     27 C          23.6720  -27.9894  -46.2501 C.2       3 UNK         0.5005 
     28 O          24.5344  -28.2625  -47.0868 O.2       3 UNK        -0.5279 
     29 N          23.9268  -27.8260  -44.9463 N.am      4 UNK        -0.4463 
     30 CA         25.2577  -27.7728  -44.3465 C.3       4 UNK         0.0283 
     31 CB         25.7443  -29.1898  -43.9860 C.3       4 UNK        -0.1875 
     32 C          25.2122  -26.8136  -43.1496 C.2       4 UNK         0.4949 
     33 O          25.6307  -27.1793  -42.0505 O.2       4 UNK        -0.5039 
     34 N          24.6366  -25.6207  -43.3740 N.am      5 UNK        -0.4663 
     35 CA         24.3365  -24.5386  -42.4183 C.3       5 UNK         0.0242 
     36 CB         25.6155  -23.9938  -41.7528 C.3       5 UNK        -0.1982 
     37 C          23.2704  -24.9028  -41.3663 C.2       5 UNK         0.5017 
     38 O          22.3229  -24.1406  -41.1748 O.2       5 UNK        -0.5012 
     39 N          23.4318  -26.0655  -40.7329 N.am      6 UNK        -0.4439 
     40 CA         22.4966  -26.7040  -39.8173 C.3       6 UNK         0.0297 
     41 CB         22.6547  -26.1246  -38.3980 C.3       6 UNK        -0.2006 
     42 C          22.7639  -28.2122  -39.8962 C.2       6 UNK         0.4892 
     43 O          23.3409  -28.7810  -38.9686 O.2       6 UNK        -0.5089 
     44 N          22.4034  -28.8085  -41.0436 N.am      7 UNK        -0.4243 
     45 CA         22.6889  -30.2025  -41.4079 C.3       7 UNK         0.0196 
     46 CB         22.1698  -30.4891  -42.8276 C.3       7 UNK        -0.2007 
     47 C          22.1470  -31.2413  -40.4122 C.2       7 UNK         0.5020 
     48 O          22.8789  -32.1630  -40.0513 O.2       7 UNK        -0.5147 
     49 N          20.8910  -31.0506  -39.9763 N.am      8 UNK        -0.4734 
     50 CA         20.1932  -31.8076  -38.9245 C.3       8 UNK         0.0238 
     51 CB         20.7693  -31.4296  -37.5430 C.3       8 UNK        -0.1912 
     52 C          20.1558  -33.3354  -39.1540 C.2       8 UNK         0.5038 
     53 O          20.2861  -34.1000  -38.1957 O.2       8 UNK        -0.5046 
     54 N          19.9982  -33.7427  -40.4214 N.am      9 UNK        -0.4200 
     55 CA         19.9620  -35.1390  -40.8879 C.3       9 UNK         0.0839 
     56 C          18.8943  -36.0096  -40.1682 C.2       9 UNK         0.5513 
     57 N          19.2182  -37.2556  -39.8511 N.am      9 UNK        -0.7519 
     58 O          17.7640  -35.5795  -39.9466 O.2       9 UNK        -0.4960 
     59 C59        19.7616  -35.2370  -42.4246 C.3       10 UNK        -0.0876 
     60 S60        20.9229  -34.2102  -43.3935 S.3       10 UNK        -0.2414 
     61 C61        19.8527  -33.6403  -44.7600 C.3       10 UNK         0.0169 
     62 H62        17.7807  -23.8894  -39.7416 H         1 UNK         0.0903 
     63 H63        17.9072  -22.6216  -40.9627 H         1 UNK         0.0903 
     64 H64        16.3603  -23.4251  -40.6804 H         1 UNK         0.0903 
     65 H65        18.6789  -25.8103  -40.4420 H         1 UNK         0.3096 
     66 H66        18.0742  -26.9333  -43.0544 H         1 UNK         0.1121 
     67 H67        19.5179  -28.8832  -42.0770 H         1 UNK         0.0849 
     68 H68        19.5157  -27.9961  -40.5796 H         1 UNK         0.0849 
     69 H69        17.7865  -31.1106  -40.9490 H         1 UNK         0.0865 
     70 H70        16.2576  -30.8573  -41.7431 H         1 UNK         0.0865 
     71 H71        18.5097  -32.7540  -42.5198 H         1 UNK         0.1346 
     72 H72        19.6949  -31.5308  -46.4443 H         1 UNK         0.1412 
     73 H73        17.4187  -28.8844  -43.9593 H         1 UNK         0.1426 
     74 H74        18.7179  -27.9886  -45.8664 H         1 UNK         0.0716 
     75 H75        17.6359  -28.9354  -46.8533 H         1 UNK         0.0716 
     76 H76        21.2767  -29.4654  -45.6925 H         1 UNK         0.0695 
     77 H77        22.0685  -29.9050  -47.1794 H         1 UNK         0.0695 
     78 H78        22.2601  -27.3987  -47.7320 H         1 UNK         0.0983 
     79 H79        20.6185  -27.0795  -45.5089 H         1 UNK         0.3095 
     80 H80        21.6722  -24.2302  -43.9599 H         1 UNK         0.0454 
     81 H81        21.0671  -22.9467  -46.0198 H         1 UNK         0.0851 
     82 H82        19.6155  -23.9212  -46.2062 H         1 UNK         0.0851 
     83 H83        19.8004  -22.8601  -44.8098 H         1 UNK         0.0851 
     84 H84        19.0542  -24.9617  -43.9339 H         1 UNK         0.2976 
     85 H85        23.1549  -27.5919  -44.3333 H         1 UNK         0.3116 
     86 H86        25.9604  -27.3399  -45.0618 H         1 UNK         0.0646 
     87 H87        26.7476  -29.1609  -43.5594 H         1 UNK         0.0847 
     88 H88        25.7859  -29.8316  -44.8660 H         1 UNK         0.0847 
     89 H89        25.0931  -29.6662  -43.2551 H         1 UNK         0.0847 
     90 H90        24.3201  -25.4411  -44.3205 H         1 UNK         0.3040 
     91 H91        23.9155  -23.7279  -43.0155 H         1 UNK         0.1015 
     92 H92        26.0973  -24.7356  -41.1154 H         1 UNK         0.0786 
     93 H93        25.3881  -23.1304  -41.1261 H         1 UNK         0.0786 
     94 H94        26.3422  -23.6703  -42.4980 H         1 UNK         0.0786 
     95 H95        24.2471  -26.6196  -40.9953 H         1 UNK         0.3172 
     96 H96        21.4751  -26.5233  -40.1566 H         1 UNK         0.0595 
     97 H97        21.9894  -26.6282  -37.6957 H         1 UNK         0.0839 
     98 H98        22.4091  -25.0629  -38.3735 H         1 UNK         0.0839 
     99 H99        23.6734  -26.2405  -38.0261 H         1 UNK         0.0839 
    100 H100       21.9720  -28.2274  -41.7594 H         1 UNK         0.2998 
    101 H101       23.7752  -30.3080  -41.4154 H         1 UNK         0.0822 
    102 H102       21.0859  -30.4033  -42.8955 H         1 UNK         0.0787 
    103 H103       22.6027  -29.8075  -43.5566 H         1 UNK         0.0787 
    104 H104       22.4325  -31.5004  -43.1402 H         1 UNK         0.0787 
    105 H105       20.3895  -30.2593  -40.3511 H         1 UNK         0.3055 
    106 H106       19.1527  -31.4804  -38.9408 H         1 UNK         0.1106 
    107 H107       21.8002  -31.7678  -37.4315 H         1 UNK         0.0828 
    108 H108       20.7547  -30.3507  -37.3884 H         1 UNK         0.0828 
    109 H109       20.1888  -31.8787  -36.7362 H         1 UNK         0.0828 
    110 H110       19.9703  -33.0406  -41.1437 H         1 UNK         0.2931 
    111 H111       20.9450  -35.5538  -40.6558 H         1 UNK         0.0412 
    112 H112       18.5322  -37.8415  -39.4003 H         1 UNK         0.3472 
    113 H113       20.1397  -37.6194  -40.0403 H         1 UNK         0.3472 
    114 H114       18.7350  -34.9800  -42.6905 H         1 UNK         0.0970 
    115 H115       19.8944  -36.2707  -42.7497 H         1 UNK         0.0970 
    116 H116       19.0869  -34.3865  -44.9749 H         1 UNK         0.0612 
    117 H117       20.4758  -33.5840  -45.6539 H         1 UNK         0.0612 
@<TRIPOS>BOND
     1    1    2 1    
     2    1   62 1    
     3    1   63 1    
     4    1   64 1    
     5    2    3 2    
     6    2    4 am   BACKBONE|DICT|INTERRES
     7    4    5 1    
     8    4   65 1    
     9    5    6 1    
    10    5   25 1    
    11    5   66 1    
    12    6    7 1    
    13    6   67 1    
    14    6   68 1    
    15    7    8 1    
    16    8    9 1    
    17    8   69 1    
    18    8   70 1    
    19    9   10 ar   
    20    9   14 ar   
    21   10   11 ar   
    22   10   71 1    
    23   11   12 ar   
    24   11   61 1    
    25   12   13 ar   
    26   12   72 1    
    27   13   14 ar   
    28   13   15 1    
    29   14   73 1    
    30   15   16 1    
    31   15   74 1    
    32   15   75 1    
    33   16   17 1    
    34   17   18 1    
    35   17   76 1    
    36   17   77 1    
    37   18   19 1    
    38   18   27 1    
    39   18   78 1    
    40   19   20 am   BACKBONE|DICT|INTERRES
    41   19   79 1    
    42   20   21 2    
    43   20   22 1    
    44   22   23 1    
    45   22   24 1    
    46   22   80 1    
    47   23   81 1    
    48   23   82 1    
    49   23   83 1    
    50   24   25 am   BACKBONE|DICT|INTERRES
    51   24   84 1    
    52   25   26 2    
    53   27   28 2    
    54   27   29 am   BACKBONE|DICT|INTERRES
    55   29   30 1    
    56   29   85 1    
    57   30   31 1    
    58   30   32 1    
    59   30   86 1    
    60   31   87 1    
    61   31   88 1    
    62   31   89 1    
    63   32   33 2    
    64   32   34 am   BACKBONE|DICT|INTERRES
    65   34   35 1    
    66   34   90 1    
    67   35   36 1    
    68   35   37 1    
    69   35   91 1    
    70   36   92 1    
    71   36   93 1    
    72   36   94 1    
    73   37   38 2    
    74   37   39 am   BACKBONE|DICT|INTERRES
    75   39   40 1    
    76   39   95 1    
    77   40   41 1    
    78   40   42 1    
    79   40   96 1    
    80   41   97 1    
    81   41   98 1    
    82   41   99 1    
    83   42   43 2    
    84   42   44 am   BACKBONE|DICT|INTERRES
    85   44   45 1    
    86   44  100 1    
    87   45   46 1    
    88   45   47 1    
    89   45  101 1    
    90   46  102 1    
    91   46  103 1    
    92   46  104 1    
    93   47   48 2    
    94   47   49 am   BACKBONE|DICT|INTERRES
    95   49   50 1    
    96   49  105 1    
    97   50   51 1    
    98   50   52 1    
    99   50  106 1    
   100   51  107 1    
   101   51  108 1    
   102   51  109 1    
   103   52   53 2    
   104   52   54 am   BACKBONE|DICT|INTERRES
   105   54   55 1    
   106   54  110 1    
   107   55   56 1    
   108   55   59 1    
   109   55  111 1    
   110   56   57 am   BACKBONE|DICT|INTERRES
   111   56   58 2    
   112   57  112 1    
   113   57  113 1    
   114   59   60 1    
   115   59  114 1    
   116   59  115 1    
   117   60   61 1    
   118   61  116 1    
   119   61  117 1    
@<TRIPOS>SUBSTRUCTURE
     1 UNK         1 GROUP             0       ****    0 ROOT    
