@<TRIPOS>MOLECULE
3R8
117   119    1
SMALL
USER_CHARGES


@<TRIPOS>ATOM
      1 CA         17.0156  -28.2756  -41.9833 C.3       0 UNK        -0.2013 
      2 C          17.3882  -27.5569  -43.2711 C.2       0 UNK         0.4866 
      3 O          18.5656  -27.5334  -43.6360 O.2       0 UNK        -0.5176 
      4 N          16.3938  -26.9607  -43.9507 N.am      1 UNK        -0.4884 
      5 CA         16.5329  -26.1604  -45.1777 C.3       1 UNK         0.0853 
      6 C6         16.9498  -27.0155  -46.4111 C.3       10 UNK        -0.0849 
      7 S7         15.6638  -28.1579  -47.0301 S.3       10 UNK        -0.2776 
      8 C8         15.7490  -29.6315  -45.9453 C.3       10 UNK         0.0316 
      9 C9         17.1301  -30.2502  -45.7205 C.ar      10 UNK        -0.0863 
     10 C10        17.3401  -30.9839  -44.5480 C.ar      10 UNK        -0.1009 
     11 C11        18.5942  -31.5239  -44.2540 C.ar      10 UNK        -0.0712 
     12 C12        19.6470  -31.3358  -45.1500 C.ar      10 UNK        -0.0894 
     13 C13        19.4606  -30.5951  -46.3194 C.ar      10 UNK        -0.0745 
     14 C14        18.1912  -30.0947  -46.6230 C.ar      10 UNK        -0.0972 
     15 C15        20.6498  -30.2784  -47.2152 C.3       10 UNK         0.0209 
     16 S16        21.2276  -28.5579  -46.9969 S.3       10 UNK        -0.2568 
     17 C17        21.6354  -28.5034  -45.2157 C.3       10 UNK        -0.0983 
     18 CA         21.9234  -27.0725  -44.6921 C.3       3 UNK         0.0876 
     19 N          20.8328  -26.1374  -44.9700 N.am      3 UNK        -0.4424 
     20 C          20.9797  -24.8142  -45.1356 C.2       2 UNK         0.4918 
     21 O          22.0691  -24.2420  -45.0882 O.2       2 UNK        -0.4875 
     22 CA         19.7117  -23.9836  -45.4237 C.3       2 UNK         0.0481 
     23 CB         19.9136  -23.0587  -46.6373 C.3       2 UNK        -0.1831 
     24 N          18.5634  -24.8536  -45.6788 N.am      2 UNK        -0.4498 
     25 C          17.4777  -24.9638  -44.9031 C.2       1 UNK         0.5027 
     26 O          17.2215  -24.1983  -43.9707 O.2       1 UNK        -0.4969 
     27 C          22.1870  -27.0852  -43.1774 C.2       3 UNK         0.5005 
     28 O          23.2999  -26.7767  -42.7469 O.2       3 UNK        -0.5279 
     29 N          21.1353  -27.4084  -42.4063 N.am      4 UNK        -0.4463 
     30 CA         21.0649  -27.4459  -40.9437 C.3       4 UNK         0.0283 
     31 CB         20.8224  -26.0194  -40.4053 C.3       4 UNK        -0.1875 
     32 C          22.2695  -28.1664  -40.3075 C.2       4 UNK         0.4949 
     33 O          22.4334  -29.3693  -40.5159 O.2       4 UNK        -0.5039 
     34 N          23.1110  -27.4205  -39.5791 N.am      5 UNK        -0.4663 
     35 CA         24.3099  -27.9060  -38.8929 C.3       5 UNK         0.0242 
     36 CB         24.9286  -26.7536  -38.0861 C.3       5 UNK        -0.1982 
     37 C          25.3664  -28.5435  -39.8131 C.2       5 UNK         0.5017 
     38 O          26.1136  -29.3997  -39.3404 O.2       5 UNK        -0.5012 
     39 N          25.3978  -28.1642  -41.1011 N.am      6 UNK        -0.4439 
     40 CA         26.2965  -28.7528  -42.1019 C.3       6 UNK         0.0297 
     41 CB         26.3417  -27.8630  -43.3545 C.3       6 UNK        -0.2006 
     42 C          25.9150  -30.1957  -42.4815 C.2       6 UNK         0.4892 
     43 O          26.7871  -30.9494  -42.9147 O.2       6 UNK        -0.5089 
     44 N          24.6369  -30.5545  -42.3014 N.am      7 UNK        -0.4243 
     45 CA         24.0984  -31.8999  -42.5114 C.3       7 UNK         0.0196 
     46 CB         22.8646  -31.7871  -43.4189 C.3       7 UNK        -0.2007 
     47 C          23.7471  -32.5967  -41.1830 C.2       7 UNK         0.5020 
     48 O          23.2365  -33.7167  -41.2141 O.2       7 UNK        -0.5147 
     49 N          24.0193  -31.9307  -40.0495 N.am      8 UNK        -0.4734 
     50 CA         23.6957  -32.3261  -38.6738 C.3       8 UNK         0.0238 
     51 CB         24.5349  -33.5493  -38.2462 C.3       8 UNK        -0.1912 
     52 C          22.1821  -32.5175  -38.4421 C.2       8 UNK         0.5038 
     53 O          21.7820  -33.4709  -37.7701 O.2       8 UNK        -0.5046 
     54 N          21.3729  -31.6102  -39.0012 N.am      9 UNK        -0.4200 
     55 CA         19.9078  -31.5992  -38.9012 C.3       9 UNK         0.0839 
     56 C          19.3631  -30.2124  -38.4538 C.2       9 UNK         0.5513 
     57 N          18.0501  -30.0221  -38.4519 N.am      9 UNK        -0.7519 
     58 O          20.1093  -29.3138  -38.0706 O.2       9 UNK        -0.4960 
     59 C59        19.2486  -32.1768  -40.1852 C.3       10 UNK        -0.0876 
     60 S60        19.4810  -31.1514  -41.6759 S.3       10 UNK        -0.2414 
     61 C61        18.8215  -32.2693  -42.9491 C.3       10 UNK         0.0169 
     62 H62        17.6609  -27.9474  -41.1691 H         1 UNK         0.0903 
     63 H63        15.9823  -28.0868  -41.6939 H         1 UNK         0.0903 
     64 H64        17.1440  -29.3498  -42.1036 H         1 UNK         0.0903 
     65 H65        15.4578  -26.9924  -43.5717 H         1 UNK         0.3096 
     66 H66        15.5554  -25.7221  -45.3856 H         1 UNK         0.1121 
     67 H67        17.8770  -27.5506  -46.2125 H         1 UNK         0.0849 
     68 H68        17.1595  -26.3675  -47.2639 H         1 UNK         0.0849 
     69 H69        15.3110  -29.3592  -44.9842 H         1 UNK         0.0865 
     70 H70        15.0973  -30.3990  -46.3642 H         1 UNK         0.0865 
     71 H71        16.5297  -31.1135  -43.8437 H         1 UNK         0.1346 
     72 H72        20.6241  -31.7279  -44.9142 H         1 UNK         0.1412 
     73 H73        18.0536  -29.5305  -47.5345 H         1 UNK         0.1426 
     74 H74        21.4775  -30.9609  -47.0155 H         1 UNK         0.0716 
     75 H75        20.3710  -30.4304  -48.2588 H         1 UNK         0.0716 
     76 H76        20.8057  -28.9396  -44.6589 H         1 UNK         0.0695 
     77 H77        22.4977  -29.1493  -45.0438 H         1 UNK         0.0695 
     78 H78        22.8309  -26.7151  -45.1844 H         1 UNK         0.0983 
     79 H79        19.8996  -26.5269  -44.9072 H         1 UNK         0.3095 
     80 H80        19.5355  -23.3619  -44.5440 H         1 UNK         0.0454 
     81 H81        20.1503  -23.6226  -47.5403 H         1 UNK         0.0851 
     82 H82        19.0204  -22.4664  -46.8360 H         1 UNK         0.0851 
     83 H83        20.7315  -22.3576  -46.4663 H         1 UNK         0.0851 
     84 H84        18.6811  -25.5158  -46.4328 H         1 UNK         0.2976 
     85 H85        20.2584  -27.6235  -42.8794 H         1 UNK         0.3116 
     86 H86        20.1899  -28.0479  -40.6949 H         1 UNK         0.0646 
     87 H87        21.6276  -25.3348  -40.6748 H         1 UNK         0.0847 
     88 H88        19.8969  -25.6071  -40.8078 H         1 UNK         0.0847 
     89 H89        20.7226  -26.0173  -39.3188 H         1 UNK         0.0847 
     90 H90        22.9111  -26.4348  -39.4919 H         1 UNK         0.3040 
     91 H91        23.9887  -28.6800  -38.1924 H         1 UNK         0.1015 
     92 H92        25.2405  -25.9312  -38.7313 H         1 UNK         0.0786 
     93 H93        25.8099  -27.0895  -37.5373 H         1 UNK         0.0786 
     94 H94        24.2252  -26.3588  -37.3525 H         1 UNK         0.0786 
     95 H95        24.7115  -27.4941  -41.4387 H         1 UNK         0.3172 
     96 H96        27.3013  -28.7794  -41.6746 H         1 UNK         0.0595 
     97 H97        27.1006  -28.2178  -44.0531 H         1 UNK         0.0839 
     98 H98        26.5888  -26.8312  -43.1044 H         1 UNK         0.0839 
     99 H99        25.3908  -27.8627  -43.8875 H         1 UNK         0.0839 
    100 H100       23.9884  -29.8769  -41.9150 H         1 UNK         0.2998 
    101 H101       24.8320  -32.5344  -43.0127 H         1 UNK         0.0822 
    102 H102       22.3852  -32.7567  -43.5595 H         1 UNK         0.0787 
    103 H103       22.1216  -31.1091  -42.9979 H         1 UNK         0.0787 
    104 H104       23.1376  -31.4163  -44.4066 H         1 UNK         0.0787 
    105 H105       24.4469  -31.0203  -40.1459 H         1 UNK         0.3055 
    106 H106       23.9903  -31.4894  -38.0381 H         1 UNK         0.1106 
    107 H107       25.5996  -33.3723  -38.3983 H         1 UNK         0.0828 
    108 H108       24.3930  -33.7705  -37.1877 H         1 UNK         0.0828 
    109 H109       24.2601  -34.4449  -38.8042 H         1 UNK         0.0828 
    110 H110       21.7735  -30.8385  -39.5303 H         1 UNK         0.2931 
    111 H111       19.6215  -32.2584  -38.0800 H         1 UNK         0.0412 
    112 H112       17.6881  -29.1332  -38.1449 H         1 UNK         0.3472 
    113 H113       17.4143  -30.7468  -38.7438 H         1 UNK         0.3472 
    114 H114       19.6571  -33.1691  -40.3837 H         1 UNK         0.0970 
    115 H115       18.1794  -32.3277  -40.0312 H         1 UNK         0.0970 
    116 H116       19.5181  -33.0952  -43.1010 H         1 UNK         0.0612 
    117 H117       17.8854  -32.7086  -42.6012 H         1 UNK         0.0612 
@<TRIPOS>BOND
     1    1    2 1    
     2    1   62 1    
     3    1   63 1    
     4    1   64 1    
     5    2    3 2    
     6    2    4 am   BACKBONE|DICT|INTERRES
     7    4    5 1    
     8    4   65 1    
     9    5    6 1    
    10    5   25 1    
    11    5   66 1    
    12    6    7 1    
    13    6   67 1    
    14    6   68 1    
    15    7    8 1    
    16    8    9 1    
    17    8   69 1    
    18    8   70 1    
    19    9   10 ar   
    20    9   14 ar   
    21   10   11 ar   
    22   10   71 1    
    23   11   12 ar   
    24   11   61 1    
    25   12   13 ar   
    26   12   72 1    
    27   13   14 ar   
    28   13   15 1    
    29   14   73 1    
    30   15   16 1    
    31   15   74 1    
    32   15   75 1    
    33   16   17 1    
    34   17   18 1    
    35   17   76 1    
    36   17   77 1    
    37   18   19 1    
    38   18   27 1    
    39   18   78 1    
    40   19   20 am   BACKBONE|DICT|INTERRES
    41   19   79 1    
    42   20   21 2    
    43   20   22 1    
    44   22   23 1    
    45   22   24 1    
    46   22   80 1    
    47   23   81 1    
    48   23   82 1    
    49   23   83 1    
    50   24   25 am   BACKBONE|DICT|INTERRES
    51   24   84 1    
    52   25   26 2    
    53   27   28 2    
    54   27   29 am   BACKBONE|DICT|INTERRES
    55   29   30 1    
    56   29   85 1    
    57   30   31 1    
    58   30   32 1    
    59   30   86 1    
    60   31   87 1    
    61   31   88 1    
    62   31   89 1    
    63   32   33 2    
    64   32   34 am   BACKBONE|DICT|INTERRES
    65   34   35 1    
    66   34   90 1    
    67   35   36 1    
    68   35   37 1    
    69   35   91 1    
    70   36   92 1    
    71   36   93 1    
    72   36   94 1    
    73   37   38 2    
    74   37   39 am   BACKBONE|DICT|INTERRES
    75   39   40 1    
    76   39   95 1    
    77   40   41 1    
    78   40   42 1    
    79   40   96 1    
    80   41   97 1    
    81   41   98 1    
    82   41   99 1    
    83   42   43 2    
    84   42   44 am   BACKBONE|DICT|INTERRES
    85   44   45 1    
    86   44  100 1    
    87   45   46 1    
    88   45   47 1    
    89   45  101 1    
    90   46  102 1    
    91   46  103 1    
    92   46  104 1    
    93   47   48 2    
    94   47   49 am   BACKBONE|DICT|INTERRES
    95   49   50 1    
    96   49  105 1    
    97   50   51 1    
    98   50   52 1    
    99   50  106 1    
   100   51  107 1    
   101   51  108 1    
   102   51  109 1    
   103   52   53 2    
   104   52   54 am   BACKBONE|DICT|INTERRES
   105   54   55 1    
   106   54  110 1    
   107   55   56 1    
   108   55   59 1    
   109   55  111 1    
   110   56   57 am   BACKBONE|DICT|INTERRES
   111   56   58 2    
   112   57  112 1    
   113   57  113 1    
   114   59   60 1    
   115   59  114 1    
   116   59  115 1    
   117   60   61 1    
   118   61  116 1    
   119   61  117 1    
@<TRIPOS>SUBSTRUCTURE
     1 UNK         1 GROUP             0       ****    0 ROOT    
