@<TRIPOS>MOLECULE
3R8
117   119    1
SMALL
USER_CHARGES


@<TRIPOS>ATOM
      1 CA         21.6698  -23.8375  -46.8276 C.3       0 UNK        -0.2013 
      2 C          20.2496  -24.2676  -47.1892 C.2       0 UNK         0.4866 
      3 O          19.5142  -23.4759  -47.7751 O.2       0 UNK        -0.5176 
      4 N          19.8125  -25.4976  -46.8788 N.am      1 UNK        -0.4884 
      5 CA         20.5378  -26.5510  -46.1539 C.3       1 UNK         0.0853 
      6 C6         19.7547  -27.8856  -46.1471 C.3       10 UNK        -0.0849 
      7 S7         19.4685  -28.5928  -47.8034 S.3       10 UNK        -0.2776 
      8 C8         17.7974  -29.3149  -47.6243 C.3       10 UNK         0.0316 
      9 C9         17.6301  -30.1004  -46.3271 C.ar      10 UNK        -0.0863 
     10 C10        18.3893  -31.2504  -46.0916 C.ar      10 UNK        -0.1009 
     11 C11        18.2848  -31.9308  -44.8749 C.ar      10 UNK        -0.0712 
     12 C12        17.4018  -31.4669  -43.8951 C.ar      10 UNK        -0.0894 
     13 C13        16.6248  -30.3284  -44.1255 C.ar      10 UNK        -0.0745 
     14 C14        16.7385  -29.6543  -45.3454 C.ar      10 UNK        -0.0972 
     15 C15        15.6587  -29.8234  -43.0634 C.3       10 UNK         0.0209 
     16 S16        16.2274  -28.2639  -42.3142 S.3       10 UNK        -0.2568 
     17 C17        17.4858  -28.8306  -41.1182 C.3       10 UNK        -0.0983 
     18 CA         18.9291  -28.8356  -41.6973 C.3       3 UNK         0.0876 
     19 N          19.3148  -27.5566  -42.2983 N.am      3 UNK        -0.4424 
     20 C          19.6032  -26.3965  -41.6915 C.2       2 UNK         0.4918 
     21 O          19.6494  -26.2525  -40.4681 O.2       2 UNK        -0.4875 
     22 CA         19.8106  -25.1677  -42.6096 C.3       2 UNK         0.0481 
     23 CB         20.9912  -24.2828  -42.1635 C.3       2 UNK        -0.1831 
     24 N          19.8813  -25.4865  -44.0459 N.am      2 UNK        -0.4498 
     25 C          20.8399  -26.1710  -44.6918 C.2       1 UNK         0.5027 
     26 O          21.8939  -26.5436  -44.1842 O.2       1 UNK        -0.4969 
     27 C          19.9918  -29.3433  -40.7011 C.2       3 UNK         0.5005 
     28 O          21.0002  -29.9022  -41.1327 O.2       3 UNK        -0.5279 
     29 N          19.7503  -29.1540  -39.3954 N.am      4 UNK        -0.4463 
     30 CA         20.6334  -29.5701  -38.3033 C.3       4 UNK         0.0283 
     31 CB         19.8532  -29.5228  -36.9800 C.3       4 UNK        -0.1875 
     32 C          21.9243  -28.7380  -38.1963 C.2       4 UNK         0.4949 
     33 O          22.8920  -29.2180  -37.6057 O.2       4 UNK        -0.5039 
     34 N          21.9290  -27.5282  -38.7669 N.am      5 UNK        -0.4663 
     35 CA         23.1178  -26.6959  -38.9442 C.3       5 UNK         0.0242 
     36 CB         22.7499  -25.2401  -38.6151 C.3       5 UNK        -0.1982 
     37 C          23.5989  -26.8137  -40.3974 C.2       5 UNK         0.5017 
     38 O          22.8091  -27.1865  -41.2639 O.2       5 UNK        -0.5012 
     39 N          24.8715  -26.4677  -40.6389 N.am      6 UNK        -0.4439 
     40 CA         25.5713  -26.4339  -41.9328 C.3       6 UNK         0.0297 
     41 CB         25.0194  -25.3198  -42.8446 C.3       6 UNK        -0.2006 
     42 C          25.6342  -27.7974  -42.6482 C.2       6 UNK         0.4892 
     43 O          26.7005  -28.4135  -42.6612 O.2       6 UNK        -0.5089 
     44 N          24.5068  -28.2460  -43.2188 N.am      7 UNK        -0.4243 
     45 CA         24.3405  -29.5697  -43.8254 C.3       7 UNK         0.0196 
     46 CB         22.9981  -29.6276  -44.5708 C.3       7 UNK        -0.2007 
     47 C          24.4370  -30.7090  -42.7950 C.2       7 UNK         0.5020 
     48 O          24.9930  -31.7595  -43.1164 O.2       7 UNK        -0.5147 
     49 N          23.9267  -30.4585  -41.5790 N.am      8 UNK        -0.4734 
     50 CA         23.9389  -31.3371  -40.4033 C.3       8 UNK         0.0238 
     51 CB         25.3757  -31.4986  -39.8638 C.3       8 UNK        -0.1912 
     52 C          23.2298  -32.6793  -40.6593 C.2       8 UNK         0.5038 
     53 O          23.8387  -33.7414  -40.5095 O.2       8 UNK        -0.5046 
     54 N          21.9573  -32.5993  -41.0575 N.am      9 UNK        -0.4200 
     55 CA         21.1162  -33.7395  -41.4402 C.3       9 UNK         0.0839 
     56 C          19.6468  -33.5753  -40.9672 C.2       9 UNK         0.5513 
     57 N          18.8555  -34.6375  -41.0363 N.am      9 UNK        -0.7519 
     58 O          19.2090  -32.5095  -40.5419 O.2       9 UNK        -0.4960 
     59 C59        21.2450  -34.0581  -42.9562 C.3       10 UNK        -0.0876 
     60 S60        20.7951  -32.6544  -44.0355 S.3       10 UNK        -0.2414 
     61 C61        19.1434  -33.1534  -44.6061 C.3       10 UNK         0.0169 
     62 H62        21.7274  -23.5483  -45.7786 H         1 UNK         0.0903 
     63 H63        22.3963  -24.6265  -47.0161 H         1 UNK         0.0903 
     64 H64        21.9664  -22.9759  -47.4255 H         1 UNK         0.0903 
     65 H65        18.8835  -25.7562  -47.1800 H         1 UNK         0.3096 
     66 H66        21.4923  -26.7236  -46.6552 H         1 UNK         0.1121 
     67 H67        20.2824  -28.6465  -45.5670 H         1 UNK         0.0849 
     68 H68        18.7930  -27.7401  -45.6525 H         1 UNK         0.0849 
     69 H69        17.0612  -28.5119  -47.6861 H         1 UNK         0.0865 
     70 H70        17.6011  -29.9729  -48.4719 H         1 UNK         0.0865 
     71 H71        19.0871  -31.5959  -46.8423 H         1 UNK         0.1346 
     72 H72        17.3295  -31.9870  -42.9491 H         1 UNK         0.1412 
     73 H73        16.1456  -28.7660  -45.5168 H         1 UNK         0.1426 
     74 H74        14.6852  -29.6527  -43.5252 H         1 UNK         0.0716 
     75 H75        15.4976  -30.5720  -42.2861 H         1 UNK         0.0716 
     76 H76        17.4161  -28.1627  -40.2583 H         1 UNK         0.0695 
     77 H77        17.2153  -29.8253  -40.7585 H         1 UNK         0.0695 
     78 H78        18.9447  -29.5553  -42.5166 H         1 UNK         0.0983 
     79 H79        19.3272  -27.5526  -43.3045 H         1 UNK         0.3095 
     80 H80        18.9059  -24.5690  -42.4958 H         1 UNK         0.0454 
     81 H81        20.8250  -23.8918  -41.1597 H         1 UNK         0.0851 
     82 H82        21.9275  -24.8370  -42.1426 H         1 UNK         0.0851 
     83 H83        21.1211  -23.4272  -42.8255 H         1 UNK         0.0851 
     84 H84        19.0674  -25.2193  -44.5837 H         1 UNK         0.2976 
     85 H85        18.9166  -28.6478  -39.1345 H         1 UNK         0.3116 
     86 H86        20.9271  -30.6058  -38.4880 H         1 UNK         0.0646 
     87 H87        20.4742  -29.8605  -36.1490 H         1 UNK         0.0847 
     88 H88        18.9778  -30.1717  -37.0112 H         1 UNK         0.0847 
     89 H89        19.5170  -28.5122  -36.7447 H         1 UNK         0.0847 
     90 H90        21.1172  -27.2466  -39.3078 H         1 UNK         0.3040 
     91 H91        23.9209  -27.0205  -38.2788 H         1 UNK         0.1015 
     92 H92        22.4203  -25.1416  -37.5807 H         1 UNK         0.0786 
     93 H93        21.9473  -24.8739  -39.2557 H         1 UNK         0.0786 
     94 H94        23.6045  -24.5754  -38.7475 H         1 UNK         0.0786 
     95 H95        25.4396  -26.1994  -39.8468 H         1 UNK         0.3172 
     96 H96        26.6025  -26.1642  -41.6986 H         1 UNK         0.0595 
     97 H97        23.9715  -25.4724  -43.0944 H         1 UNK         0.0839 
     98 H98        25.5717  -25.2755  -43.7841 H         1 UNK         0.0839 
     99 H99        25.1071  -24.3422  -42.3708 H         1 UNK         0.0839 
    100 H100       23.6636  -27.6921  -43.0883 H         1 UNK         0.2998 
    101 H101       25.1435  -29.7086  -44.5522 H         1 UNK         0.0822 
    102 H102       22.9449  -28.8687  -45.3513 H         1 UNK         0.0787 
    103 H103       22.8601  -30.5968  -45.0514 H         1 UNK         0.0787 
    104 H104       22.1559  -29.4751  -43.8934 H         1 UNK         0.0787 
    105 H105       23.4099  -29.5931  -41.4680 H         1 UNK         0.3055 
    106 H106       23.3560  -30.8329  -39.6345 H         1 UNK         0.1106 
    107 H107       25.3815  -32.0769  -38.9392 H         1 UNK         0.0828 
    108 H108       26.0217  -32.0145  -40.5748 H         1 UNK         0.0828 
    109 H109       25.8254  -30.5305  -39.6430 H         1 UNK         0.0828 
    110 H110       21.5171  -31.6832  -41.1406 H         1 UNK         0.2931 
    111 H111       21.4801  -34.6119  -40.8937 H         1 UNK         0.0412 
    112 H112       17.8992  -34.5527  -40.7294 H         1 UNK         0.3472 
    113 H113       19.1973  -35.5269  -41.3653 H         1 UNK         0.3472 
    114 H114       20.6628  -34.9411  -43.2238 H         1 UNK         0.0970 
    115 H115       22.2803  -34.3214  -43.1783 H         1 UNK         0.0970 
    116 H116       18.6597  -33.7860  -43.8608 H         1 UNK         0.0612 
    117 H117       19.2398  -33.7575  -45.5094 H         1 UNK         0.0612 
@<TRIPOS>BOND
     1    1    2 1    
     2    1   62 1    
     3    1   63 1    
     4    1   64 1    
     5    2    3 2    
     6    2    4 am   BACKBONE|DICT|INTERRES
     7    4    5 1    
     8    4   65 1    
     9    5    6 1    
    10    5   25 1    
    11    5   66 1    
    12    6    7 1    
    13    6   67 1    
    14    6   68 1    
    15    7    8 1    
    16    8    9 1    
    17    8   69 1    
    18    8   70 1    
    19    9   10 ar   
    20    9   14 ar   
    21   10   11 ar   
    22   10   71 1    
    23   11   12 ar   
    24   11   61 1    
    25   12   13 ar   
    26   12   72 1    
    27   13   14 ar   
    28   13   15 1    
    29   14   73 1    
    30   15   16 1    
    31   15   74 1    
    32   15   75 1    
    33   16   17 1    
    34   17   18 1    
    35   17   76 1    
    36   17   77 1    
    37   18   19 1    
    38   18   27 1    
    39   18   78 1    
    40   19   20 am   BACKBONE|DICT|INTERRES
    41   19   79 1    
    42   20   21 2    
    43   20   22 1    
    44   22   23 1    
    45   22   24 1    
    46   22   80 1    
    47   23   81 1    
    48   23   82 1    
    49   23   83 1    
    50   24   25 am   BACKBONE|DICT|INTERRES
    51   24   84 1    
    52   25   26 2    
    53   27   28 2    
    54   27   29 am   BACKBONE|DICT|INTERRES
    55   29   30 1    
    56   29   85 1    
    57   30   31 1    
    58   30   32 1    
    59   30   86 1    
    60   31   87 1    
    61   31   88 1    
    62   31   89 1    
    63   32   33 2    
    64   32   34 am   BACKBONE|DICT|INTERRES
    65   34   35 1    
    66   34   90 1    
    67   35   36 1    
    68   35   37 1    
    69   35   91 1    
    70   36   92 1    
    71   36   93 1    
    72   36   94 1    
    73   37   38 2    
    74   37   39 am   BACKBONE|DICT|INTERRES
    75   39   40 1    
    76   39   95 1    
    77   40   41 1    
    78   40   42 1    
    79   40   96 1    
    80   41   97 1    
    81   41   98 1    
    82   41   99 1    
    83   42   43 2    
    84   42   44 am   BACKBONE|DICT|INTERRES
    85   44   45 1    
    86   44  100 1    
    87   45   46 1    
    88   45   47 1    
    89   45  101 1    
    90   46  102 1    
    91   46  103 1    
    92   46  104 1    
    93   47   48 2    
    94   47   49 am   BACKBONE|DICT|INTERRES
    95   49   50 1    
    96   49  105 1    
    97   50   51 1    
    98   50   52 1    
    99   50  106 1    
   100   51  107 1    
   101   51  108 1    
   102   51  109 1    
   103   52   53 2    
   104   52   54 am   BACKBONE|DICT|INTERRES
   105   54   55 1    
   106   54  110 1    
   107   55   56 1    
   108   55   59 1    
   109   55  111 1    
   110   56   57 am   BACKBONE|DICT|INTERRES
   111   56   58 2    
   112   57  112 1    
   113   57  113 1    
   114   59   60 1    
   115   59  114 1    
   116   59  115 1    
   117   60   61 1    
   118   61  116 1    
   119   61  117 1    
@<TRIPOS>SUBSTRUCTURE
     1 UNK         1 GROUP             0       ****    0 ROOT    
