@<TRIPOS>MOLECULE
3R8
117   119    1
SMALL
USER_CHARGES


@<TRIPOS>ATOM
      1 CA         13.0325  -26.6335  -42.5624 C.3       0 UNK        -0.2013 
      2 C          13.9461  -26.1662  -43.6857 C.2       0 UNK         0.4866 
      3 O          13.6748  -25.1390  -44.3089 O.2       0 UNK        -0.5176 
      4 N          15.0209  -26.9169  -43.9555 N.am      1 UNK        -0.4884 
      5 CA         16.0337  -26.5986  -44.9685 C.3       1 UNK         0.0853 
      6 C6         16.9399  -27.8140  -45.2814 C.3       10 UNK        -0.0849 
      7 S7         16.0131  -29.3044  -45.7906 S.3       10 UNK        -0.2776 
      8 C8         17.2926  -30.2661  -46.6693 C.3       10 UNK         0.0316 
      9 C9         18.5996  -30.3302  -45.8902 C.ar      10 UNK        -0.0863 
     10 C10        18.6792  -31.0521  -44.6961 C.ar      10 UNK        -0.1009 
     11 C11        19.8570  -31.0498  -43.9422 C.ar      10 UNK        -0.0712 
     12 C12        20.9678  -30.3340  -44.3998 C.ar      10 UNK        -0.0894 
     13 C13        20.8965  -29.6056  -45.5918 C.ar      10 UNK        -0.0745 
     14 C14        19.7167  -29.6216  -46.3399 C.ar      10 UNK        -0.0972 
     15 C15        22.0726  -28.7576  -46.0534 C.3       10 UNK         0.0209 
     16 S16        21.6962  -26.9769  -45.9357 S.3       10 UNK        -0.2568 
     17 C17        21.4621  -26.8080  -44.1383 C.3       10 UNK        -0.0983 
     18 CA         21.2843  -25.3402  -43.6752 C.3       3 UNK         0.0876 
     19 N          19.9866  -24.7924  -44.0659 N.am      3 UNK        -0.4424 
     20 C          19.7630  -23.9280  -45.0597 C.2       2 UNK         0.4918 
     21 O          20.6473  -23.4944  -45.8004 O.2       2 UNK        -0.4875 
     22 CA         18.2987  -23.4825  -45.2631 C.3       2 UNK         0.0481 
     23 CB         18.1377  -22.4923  -46.4320 C.3       2 UNK        -0.1831 
     24 N          17.4023  -24.6230  -45.4819 N.am      2 UNK        -0.4498 
     25 C          16.9042  -25.4074  -44.5170 C.2       1 UNK         0.5027 
     26 O          17.1555  -25.2489  -43.3187 O.2       1 UNK        -0.4969 
     27 C          21.3935  -25.2708  -42.1438 C.2       3 UNK         0.5005 
     28 O          20.3744  -25.3077  -41.4487 O.2       3 UNK        -0.5279 
     29 N          22.6360  -25.2265  -41.6516 N.am      4 UNK        -0.4463 
     30 CA         22.9943  -25.3326  -40.2344 C.3       4 UNK         0.0283 
     31 CB         23.2911  -23.9297  -39.6717 C.3       4 UNK        -0.1875 
     32 C          24.1735  -26.3056  -40.0421 C.2       4 UNK         0.4949 
     33 O          24.8827  -26.2172  -39.0393 O.2       4 UNK        -0.5039 
     34 N          24.3711  -27.2104  -41.0077 N.am      5 UNK        -0.4663 
     35 CA         25.4297  -28.2124  -41.0643 C.3       5 UNK         0.0242 
     36 CB         26.7580  -27.5486  -41.4822 C.3       5 UNK        -0.1982 
     37 C          25.0092  -29.2993  -42.0652 C.2       5 UNK         0.5017 
     38 O          24.0233  -29.1075  -42.7823 O.2       5 UNK        -0.5012 
     39 N          25.7953  -30.3843  -42.1089 N.am      6 UNK        -0.4439 
     40 CA         25.6585  -31.5927  -42.9340 C.3       6 UNK         0.0297 
     41 CB         25.4947  -31.2656  -44.4325 C.3       6 UNK        -0.2006 
     42 C          24.5432  -32.5316  -42.4445 C.2       6 UNK         0.4892 
     43 O          23.4695  -32.0789  -42.0461 O.2       6 UNK        -0.5089 
     44 N          24.8250  -33.8416  -42.5060 N.am      7 UNK        -0.4243 
     45 CA         23.9680  -34.9443  -42.0550 C.3       7 UNK         0.0196 
     46 CB         22.7645  -35.1202  -43.0114 C.3       7 UNK        -0.2007 
     47 C          23.5891  -34.7867  -40.5678 C.2       7 UNK         0.5020 
     48 O          24.4862  -34.6700  -39.7314 O.2       7 UNK        -0.5147 
     49 N          22.2867  -34.7781  -40.2618 N.am      8 UNK        -0.4734 
     50 CA         21.7516  -34.5569  -38.9161 C.3       8 UNK         0.0238 
     51 CB         20.3967  -35.2773  -38.8040 C.3       8 UNK        -0.1912 
     52 C          21.5959  -33.0664  -38.5558 C.2       8 UNK         0.5038 
     53 O          21.3271  -32.7678  -37.3909 O.2       8 UNK        -0.5046 
     54 N          21.7217  -32.1668  -39.5398 N.am      9 UNK        -0.4200 
     55 CA         21.5313  -30.7193  -39.3754 C.3       9 UNK         0.0839 
     56 C          22.7955  -30.0214  -38.8086 C.2       9 UNK         0.5513 
     57 N          22.6276  -28.8584  -38.1939 N.am      9 UNK        -0.7519 
     58 O          23.9199  -30.5024  -38.9307 O.2       9 UNK        -0.4960 
     59 C59        21.0482  -30.0550  -40.6919 C.3       10 UNK        -0.0876 
     60 S60        19.4353  -30.7260  -41.2305 S.3       10 UNK        -0.2414 
     61 C61        19.9101  -31.8004  -42.6214 C.3       10 UNK         0.0169 
     62 H62        13.3883  -27.5563  -42.1044 H         1 UNK         0.0903 
     63 H63        12.9727  -25.8711  -41.7861 H         1 UNK         0.0903 
     64 H64        12.0276  -26.8106  -42.9449 H         1 UNK         0.0903 
     65 H65        15.2007  -27.7482  -43.4108 H         1 UNK         0.3096 
     66 H66        15.5102  -26.3125  -45.8838 H         1 UNK         0.1121 
     67 H67        17.6427  -27.5580  -46.0768 H         1 UNK         0.0849 
     68 H68        17.5471  -28.0758  -44.4115 H         1 UNK         0.0849 
     69 H69        16.9231  -31.2775  -46.8443 H         1 UNK         0.0865 
     70 H70        17.4515  -29.8251  -47.6547 H         1 UNK         0.0865 
     71 H71        17.8107  -31.5873  -44.3366 H         1 UNK         0.1346 
     72 H72        21.8775  -30.3214  -43.8143 H         1 UNK         0.1412 
     73 H73        19.6594  -29.0435  -47.2524 H         1 UNK         0.1426 
     74 H74        22.3135  -29.0047  -47.0881 H         1 UNK         0.0716 
     75 H75        22.9663  -28.9761  -45.4664 H         1 UNK         0.0716 
     76 H76        20.6021  -27.4089  -43.8352 H         1 UNK         0.0695 
     77 H77        22.3332  -27.2622  -43.6639 H         1 UNK         0.0695 
     78 H78        22.0862  -24.7273  -44.0934 H         1 UNK         0.0983 
     79 H79        19.2108  -25.0509  -43.4631 H         1 UNK         0.3095 
     80 H80        17.9929  -22.9629  -44.3524 H         1 UNK         0.0454 
     81 H81        18.7561  -21.6063  -46.2819 H         1 UNK         0.0851 
     82 H82        18.4315  -22.9372  -47.3835 H         1 UNK         0.0851 
     83 H83        17.1066  -22.1510  -46.5245 H         1 UNK         0.0851 
     84 H84        17.1901  -24.8409  -46.4453 H         1 UNK         0.2976 
     85 H85        23.4164  -25.1840  -42.2942 H         1 UNK         0.3116 
     86 H86        22.1608  -25.7587  -39.6720 H         1 UNK         0.0646 
     87 H87        23.5090  -23.9714  -38.6038 H         1 UNK         0.0847 
     88 H88        22.4377  -23.2637  -39.7990 H         1 UNK         0.0847 
     89 H89        24.1504  -23.4728  -40.1637 H         1 UNK         0.0847 
     90 H90        23.6999  -27.3028  -41.7604 H         1 UNK         0.3040 
     91 H91        25.5375  -28.6718  -40.0795 H         1 UNK         0.1015 
     92 H92        27.0572  -26.7739  -40.7761 H         1 UNK         0.0786 
     93 H93        26.6827  -27.0896  -42.4688 H         1 UNK         0.0786 
     94 H94        27.5713  -28.2739  -41.5206 H         1 UNK         0.0786 
     95 H95        26.5566  -30.4202  -41.4454 H         1 UNK         0.3172 
     96 H96        26.6077  -32.1187  -42.8188 H         1 UNK         0.0595 
     97 H97        26.2592  -30.5689  -44.7762 H         1 UNK         0.0839 
     98 H98        24.5189  -30.8310  -44.6509 H         1 UNK         0.0839 
     99 H99        25.5818  -32.1687  -45.0376 H         1 UNK         0.0839 
    100 H100       25.7427  -34.1141  -42.8295 H         1 UNK         0.2998 
    101 H101       24.5715  -35.8513  -42.1161 H         1 UNK         0.0822 
    102 H102       23.1037  -35.2761  -44.0356 H         1 UNK         0.0787 
    103 H103       22.1666  -35.9920  -42.7425 H         1 UNK         0.0787 
    104 H104       22.1078  -34.2501  -43.0173 H         1 UNK         0.0787 
    105 H105       21.6158  -34.8765  -41.0103 H         1 UNK         0.3055 
    106 H106       22.4316  -34.9951  -38.1816 H         1 UNK         0.1106 
    107 H107       19.6639  -34.8717  -39.5029 H         1 UNK         0.0828 
    108 H108       20.4963  -36.3447  -39.0016 H         1 UNK         0.0828 
    109 H109       19.9804  -35.1744  -37.8008 H         1 UNK         0.0828 
    110 H110       22.0641  -32.4631  -40.4454 H         1 UNK         0.2931 
    111 H111       20.7395  -30.5748  -38.6370 H         1 UNK         0.0412 
    112 H112       23.4353  -28.3808  -37.8249 H         1 UNK         0.3472 
    113 H113       21.7093  -28.4629  -38.0662 H         1 UNK         0.3472 
    114 H114       21.7919  -30.1677  -41.4809 H         1 UNK         0.0970 
    115 H115       20.9237  -28.9793  -40.5549 H         1 UNK         0.0970 
    116 H116       20.9025  -32.2175  -42.4566 H         1 UNK         0.0612 
    117 H117       19.2276  -32.6509  -42.6519 H         1 UNK         0.0612 
@<TRIPOS>BOND
     1    1    2 1    
     2    1   62 1    
     3    1   63 1    
     4    1   64 1    
     5    2    3 2    
     6    2    4 am   BACKBONE|DICT|INTERRES
     7    4    5 1    
     8    4   65 1    
     9    5    6 1    
    10    5   25 1    
    11    5   66 1    
    12    6    7 1    
    13    6   67 1    
    14    6   68 1    
    15    7    8 1    
    16    8    9 1    
    17    8   69 1    
    18    8   70 1    
    19    9   10 ar   
    20    9   14 ar   
    21   10   11 ar   
    22   10   71 1    
    23   11   12 ar   
    24   11   61 1    
    25   12   13 ar   
    26   12   72 1    
    27   13   14 ar   
    28   13   15 1    
    29   14   73 1    
    30   15   16 1    
    31   15   74 1    
    32   15   75 1    
    33   16   17 1    
    34   17   18 1    
    35   17   76 1    
    36   17   77 1    
    37   18   19 1    
    38   18   27 1    
    39   18   78 1    
    40   19   20 am   BACKBONE|DICT|INTERRES
    41   19   79 1    
    42   20   21 2    
    43   20   22 1    
    44   22   23 1    
    45   22   24 1    
    46   22   80 1    
    47   23   81 1    
    48   23   82 1    
    49   23   83 1    
    50   24   25 am   BACKBONE|DICT|INTERRES
    51   24   84 1    
    52   25   26 2    
    53   27   28 2    
    54   27   29 am   BACKBONE|DICT|INTERRES
    55   29   30 1    
    56   29   85 1    
    57   30   31 1    
    58   30   32 1    
    59   30   86 1    
    60   31   87 1    
    61   31   88 1    
    62   31   89 1    
    63   32   33 2    
    64   32   34 am   BACKBONE|DICT|INTERRES
    65   34   35 1    
    66   34   90 1    
    67   35   36 1    
    68   35   37 1    
    69   35   91 1    
    70   36   92 1    
    71   36   93 1    
    72   36   94 1    
    73   37   38 2    
    74   37   39 am   BACKBONE|DICT|INTERRES
    75   39   40 1    
    76   39   95 1    
    77   40   41 1    
    78   40   42 1    
    79   40   96 1    
    80   41   97 1    
    81   41   98 1    
    82   41   99 1    
    83   42   43 2    
    84   42   44 am   BACKBONE|DICT|INTERRES
    85   44   45 1    
    86   44  100 1    
    87   45   46 1    
    88   45   47 1    
    89   45  101 1    
    90   46  102 1    
    91   46  103 1    
    92   46  104 1    
    93   47   48 2    
    94   47   49 am   BACKBONE|DICT|INTERRES
    95   49   50 1    
    96   49  105 1    
    97   50   51 1    
    98   50   52 1    
    99   50  106 1    
   100   51  107 1    
   101   51  108 1    
   102   51  109 1    
   103   52   53 2    
   104   52   54 am   BACKBONE|DICT|INTERRES
   105   54   55 1    
   106   54  110 1    
   107   55   56 1    
   108   55   59 1    
   109   55  111 1    
   110   56   57 am   BACKBONE|DICT|INTERRES
   111   56   58 2    
   112   57  112 1    
   113   57  113 1    
   114   59   60 1    
   115   59  114 1    
   116   59  115 1    
   117   60   61 1    
   118   61  116 1    
   119   61  117 1    
@<TRIPOS>SUBSTRUCTURE
     1 UNK         1 GROUP             0       ****    0 ROOT    
