@<TRIPOS>MOLECULE
3R8
117   119    1
SMALL
USER_CHARGES


@<TRIPOS>ATOM
      1 CA         13.4669  -23.8958  -43.4398 C.3       0 UNK        -0.2013 
      2 C          14.7338  -24.6916  -43.7149 C.2       0 UNK         0.4866 
      3 O          14.8501  -25.3151  -44.7710 O.2       0 UNK        -0.5176 
      4 N          15.6878  -24.6798  -42.7747 N.am      1 UNK        -0.4884 
      5 CA         16.9853  -25.3490  -42.8924 C.3       1 UNK         0.0853 
      6 C6         17.5604  -25.7030  -41.4965 C.3       10 UNK        -0.0849 
      7 S7         18.9534  -26.8775  -41.5818 S.3       10 UNK        -0.2776 
      8 C8         18.0915  -28.4633  -41.8296 C.3       10 UNK         0.0316 
      9 C9         18.7460  -29.2516  -42.9530 C.ar      10 UNK        -0.0863 
     10 C10        19.5838  -30.3315  -42.6663 C.ar      10 UNK        -0.1009 
     11 C11        20.2123  -31.0400  -43.6944 C.ar      10 UNK        -0.0712 
     12 C12        19.9945  -30.6591  -45.0228 C.ar      10 UNK        -0.0894 
     13 C13        19.1792  -29.5616  -45.3206 C.ar      10 UNK        -0.0745 
     14 C14        18.5399  -28.8784  -44.2831 C.ar      10 UNK        -0.0972 
     15 C15        19.0458  -29.0544  -46.7507 C.3       10 UNK         0.0209 
     16 S16        20.6217  -28.4670  -47.4782 S.3       10 UNK        -0.2568 
     17 C17        21.5777  -27.7593  -46.0864 C.3       10 UNK        -0.0983 
     18 CA         21.6203  -26.2127  -46.0503 C.3       3 UNK         0.0876 
     19 N          20.2841  -25.6209  -45.9581 N.am      3 UNK        -0.4424 
     20 C          20.0007  -24.3483  -46.2632 C.2       2 UNK         0.4918 
     21 O          20.8345  -23.5454  -46.6850 O.2       2 UNK        -0.4875 
     22 CA         18.5404  -23.8893  -46.1014 C.3       2 UNK         0.0481 
     23 CB         17.8027  -23.9867  -47.4464 C.3       2 UNK        -0.1831 
     24 N          17.7903  -24.6395  -45.0912 N.am      2 UNK        -0.4498 
     25 C          17.9313  -24.4963  -43.7660 C.2       1 UNK         0.5027 
     26 O          18.7099  -23.6977  -43.2420 O.2       1 UNK        -0.4969 
     27 C          22.4961  -25.7705  -44.8611 C.2       3 UNK         0.5005 
     28 O          21.9846  -25.5737  -43.7567 O.2       3 UNK        -0.5279 
     29 N          23.8162  -25.7208  -45.0845 N.am      4 UNK        -0.4463 
     30 CA         24.8233  -25.5474  -44.0305 C.3       4 UNK         0.0283 
     31 CB         26.1273  -25.0330  -44.6631 C.3       4 UNK        -0.1875 
     32 C          25.0882  -26.8396  -43.2289 C.2       4 UNK         0.4949 
     33 O          25.7049  -26.7683  -42.1663 O.2       4 UNK        -0.5039 
     34 N          24.6447  -27.9905  -43.7594 N.am      5 UNK        -0.4663 
     35 CA         24.8241  -29.3316  -43.1946 C.3       5 UNK         0.0242 
     36 CB         24.2912  -30.3664  -44.1983 C.3       5 UNK        -0.1982 
     37 C          24.1740  -29.5199  -41.8126 C.2       5 UNK         0.5017 
     38 O          24.7949  -30.1321  -40.9427 O.2       5 UNK        -0.5012 
     39 N          22.9610  -28.9680  -41.6454 N.am      6 UNK        -0.4439 
     40 CA         22.1823  -28.8345  -40.4072 C.3       6 UNK         0.0297 
     41 CB         22.6412  -27.5679  -39.6534 C.3       6 UNK        -0.2006 
     42 C          22.1626  -30.1009  -39.5263 C.2       6 UNK         0.4892 
     43 O          21.4260  -31.0410  -39.8285 O.2       6 UNK        -0.5089 
     44 N          22.9888  -30.1101  -38.4696 N.am      7 UNK        -0.4243 
     45 CA         23.1410  -31.1899  -37.4894 C.3       7 UNK         0.0196 
     46 CB         24.1657  -30.7598  -36.4273 C.3       7 UNK        -0.2007 
     47 C          23.5242  -32.5599  -38.0789 C.2       7 UNK         0.5020 
     48 O          23.2583  -33.5751  -37.4352 O.2       7 UNK        -0.5147 
     49 N          24.0931  -32.5873  -39.2939 N.am      8 UNK        -0.4734 
     50 CA         24.3810  -33.8109  -40.0525 C.3       8 UNK         0.0238 
     51 CB         25.1346  -33.4434  -41.3395 C.3       8 UNK        -0.1912 
     52 C          23.1305  -34.6483  -40.3894 C.2       8 UNK         0.5038 
     53 O          23.2556  -35.8625  -40.5542 O.2       8 UNK        -0.5046 
     54 N          21.9614  -33.9980  -40.4657 N.am      9 UNK        -0.4200 
     55 CA         20.6477  -34.6402  -40.6271 C.3       9 UNK         0.0839 
     56 C          19.9538  -34.9712  -39.2723 C.2       9 UNK         0.5513 
     57 N          20.5695  -34.7383  -38.1184 N.am      9 UNK        -0.7519 
     58 O          18.8320  -35.4717  -39.2651 O.2       9 UNK        -0.4960 
     59 C59        19.7247  -33.8148  -41.5630 C.3       10 UNK        -0.0876 
     60 S60        20.3372  -33.7863  -43.2828 S.3       10 UNK        -0.2414 
     61 C61        21.1735  -32.1751  -43.3720 C.3       10 UNK         0.0169 
     62 H62        12.5992  -24.5546  -43.4587 H         1 UNK         0.0903 
     63 H63        13.4972  -23.4025  -42.4685 H         1 UNK         0.0903 
     64 H64        13.3312  -23.1316  -44.2047 H         1 UNK         0.0903 
     65 H65        15.5540  -24.1253  -41.9402 H         1 UNK         0.3096 
     66 H66        16.8187  -26.2915  -43.4162 H         1 UNK         0.1121 
     67 H67        16.7845  -26.1468  -40.8701 H         1 UNK         0.0849 
     68 H68        17.8882  -24.8060  -40.9677 H         1 UNK         0.0849 
     69 H69        17.0387  -28.3045  -42.0664 H         1 UNK         0.0865 
     70 H70        18.1104  -29.0278  -40.8959 H         1 UNK         0.0865 
     71 H71        19.7594  -30.6061  -41.6378 H         1 UNK         0.1346 
     72 H72        20.4984  -31.1832  -45.8235 H         1 UNK         0.1412 
     73 H73        17.9101  -28.0305  -44.5078 H         1 UNK         0.1426 
     74 H74        18.3224  -28.2394  -46.8030 H         1 UNK         0.0716 
     75 H75        18.6457  -29.8529  -47.3769 H         1 UNK         0.0716 
     76 H76        22.5896  -28.1519  -46.2002 H         1 UNK         0.0695 
     77 H77        21.2355  -28.1438  -45.1270 H         1 UNK         0.0695 
     78 H78        22.0843  -25.8589  -46.9741 H         1 UNK         0.0983 
     79 H79        19.5576  -26.2074  -45.5804 H         1 UNK         0.3095 
     80 H80        18.5572  -22.8391  -45.8024 H         1 UNK         0.0454 
     81 H81        17.7417  -25.0163  -47.8013 H         1 UNK         0.0851 
     82 H82        18.3154  -23.4074  -48.2157 H         1 UNK         0.0851 
     83 H83        16.7878  -23.5957  -47.3724 H         1 UNK         0.0851 
     84 H84        17.0444  -25.2368  -45.4266 H         1 UNK         0.2976 
     85 H85        24.1649  -25.8825  -46.0196 H         1 UNK         0.3116 
     86 H86        24.4683  -24.7927  -43.3252 H         1 UNK         0.0646 
     87 H87        26.5419  -25.7468  -45.3761 H         1 UNK         0.0847 
     88 H88        26.8877  -24.8571  -43.9008 H         1 UNK         0.0847 
     89 H89        25.9710  -24.0881  -45.1838 H         1 UNK         0.0847 
     90 H90        24.1755  -27.9395  -44.6497 H         1 UNK         0.3040 
     91 H91        25.8970  -29.4950  -43.0700 H         1 UNK         0.1015 
     92 H92        24.8368  -30.3204  -45.1410 H         1 UNK         0.0786 
     93 H93        23.2345  -30.2091  -44.4169 H         1 UNK         0.0786 
     94 H94        24.4016  -31.3811  -43.8164 H         1 UNK         0.0786 
     95 H95        22.5531  -28.5171  -42.4519 H         1 UNK         0.3172 
     96 H96        21.1491  -28.6722  -40.7128 H         1 UNK         0.0595 
     97 H97        23.7071  -27.5871  -39.4232 H         1 UNK         0.0839 
     98 H98        22.0945  -27.4408  -38.7178 H         1 UNK         0.0839 
     99 H99        22.4550  -26.6755  -40.2519 H         1 UNK         0.0839 
    100 H100       23.5838  -29.3050  -38.3400 H         1 UNK         0.2998 
    101 H101       22.1728  -31.3167  -37.0007 H         1 UNK         0.0822 
    102 H102       23.8541  -29.8466  -35.9198 H         1 UNK         0.0787 
    103 H103       24.2823  -31.5287  -35.6619 H         1 UNK         0.0787 
    104 H104       25.1492  -30.5841  -36.8653 H         1 UNK         0.0787 
    105 H105       24.2847  -31.7040  -39.7591 H         1 UNK         0.3055 
    106 H106       25.0319  -34.4352  -39.4365 H         1 UNK         0.1106 
    107 H107       25.4200  -34.3377  -41.8952 H         1 UNK         0.0828 
    108 H108       26.0482  -32.8890  -41.1239 H         1 UNK         0.0828 
    109 H109       24.5179  -32.8329  -41.9983 H         1 UNK         0.0828 
    110 H110       21.9424  -33.0011  -40.2784 H         1 UNK         0.2931 
    111 H111       20.7935  -35.6103  -41.1058 H         1 UNK         0.0412 
    112 H112       20.0973  -34.9709  -37.2591 H         1 UNK         0.3472 
    113 H113       21.5073  -34.3557  -38.0849 H         1 UNK         0.3472 
    114 H114       18.7234  -34.2478  -41.5978 H         1 UNK         0.0970 
    115 H115       19.5972  -32.8030  -41.1802 H         1 UNK         0.0970 
    116 H116       21.7062  -31.9726  -42.4421 H         1 UNK         0.0612 
    117 H117       21.9375  -32.2389  -44.1473 H         1 UNK         0.0612 
@<TRIPOS>BOND
     1    1    2 1    
     2    1   62 1    
     3    1   63 1    
     4    1   64 1    
     5    2    3 2    
     6    2    4 am   BACKBONE|DICT|INTERRES
     7    4    5 1    
     8    4   65 1    
     9    5    6 1    
    10    5   25 1    
    11    5   66 1    
    12    6    7 1    
    13    6   67 1    
    14    6   68 1    
    15    7    8 1    
    16    8    9 1    
    17    8   69 1    
    18    8   70 1    
    19    9   10 ar   
    20    9   14 ar   
    21   10   11 ar   
    22   10   71 1    
    23   11   12 ar   
    24   11   61 1    
    25   12   13 ar   
    26   12   72 1    
    27   13   14 ar   
    28   13   15 1    
    29   14   73 1    
    30   15   16 1    
    31   15   74 1    
    32   15   75 1    
    33   16   17 1    
    34   17   18 1    
    35   17   76 1    
    36   17   77 1    
    37   18   19 1    
    38   18   27 1    
    39   18   78 1    
    40   19   20 am   BACKBONE|DICT|INTERRES
    41   19   79 1    
    42   20   21 2    
    43   20   22 1    
    44   22   23 1    
    45   22   24 1    
    46   22   80 1    
    47   23   81 1    
    48   23   82 1    
    49   23   83 1    
    50   24   25 am   BACKBONE|DICT|INTERRES
    51   24   84 1    
    52   25   26 2    
    53   27   28 2    
    54   27   29 am   BACKBONE|DICT|INTERRES
    55   29   30 1    
    56   29   85 1    
    57   30   31 1    
    58   30   32 1    
    59   30   86 1    
    60   31   87 1    
    61   31   88 1    
    62   31   89 1    
    63   32   33 2    
    64   32   34 am   BACKBONE|DICT|INTERRES
    65   34   35 1    
    66   34   90 1    
    67   35   36 1    
    68   35   37 1    
    69   35   91 1    
    70   36   92 1    
    71   36   93 1    
    72   36   94 1    
    73   37   38 2    
    74   37   39 am   BACKBONE|DICT|INTERRES
    75   39   40 1    
    76   39   95 1    
    77   40   41 1    
    78   40   42 1    
    79   40   96 1    
    80   41   97 1    
    81   41   98 1    
    82   41   99 1    
    83   42   43 2    
    84   42   44 am   BACKBONE|DICT|INTERRES
    85   44   45 1    
    86   44  100 1    
    87   45   46 1    
    88   45   47 1    
    89   45  101 1    
    90   46  102 1    
    91   46  103 1    
    92   46  104 1    
    93   47   48 2    
    94   47   49 am   BACKBONE|DICT|INTERRES
    95   49   50 1    
    96   49  105 1    
    97   50   51 1    
    98   50   52 1    
    99   50  106 1    
   100   51  107 1    
   101   51  108 1    
   102   51  109 1    
   103   52   53 2    
   104   52   54 am   BACKBONE|DICT|INTERRES
   105   54   55 1    
   106   54  110 1    
   107   55   56 1    
   108   55   59 1    
   109   55  111 1    
   110   56   57 am   BACKBONE|DICT|INTERRES
   111   56   58 2    
   112   57  112 1    
   113   57  113 1    
   114   59   60 1    
   115   59  114 1    
   116   59  115 1    
   117   60   61 1    
   118   61  116 1    
   119   61  117 1    
@<TRIPOS>SUBSTRUCTURE
     1 UNK         1 GROUP             0       ****    0 ROOT    
