@<TRIPOS>MOLECULE
3R8
117   119    1
SMALL
USER_CHARGES


@<TRIPOS>ATOM
      1 CA         18.8141  -26.6207  -38.9186 C.3       0 UNK        -0.2013 
      2 C          18.3669  -25.9512  -40.2093 C.2       0 UNK         0.4866 
      3 O          17.8720  -24.8236  -40.1770 O.2       0 UNK        -0.5176 
      4 N          18.5330  -26.6417  -41.3419 N.am      1 UNK        -0.4884 
      5 CA         18.2456  -26.1210  -42.6847 C.3       1 UNK         0.0853 
      6 C6         17.7964  -27.2321  -43.6740 C.3       10 UNK        -0.0849 
      7 S7         16.3519  -28.2134  -43.1436 S.3       10 UNK        -0.2776 
      8 C8         17.1268  -29.6082  -42.2618 C.3       10 UNK         0.0316 
      9 C9         17.8224  -30.6104  -43.1786 C.ar      10 UNK        -0.0863 
     10 C10        17.1365  -31.7451  -43.6164 C.ar      10 UNK        -0.1009 
     11 C11        17.7826  -32.7100  -44.3956 C.ar      10 UNK        -0.0712 
     12 C12        19.1031  -32.4992  -44.8045 C.ar      10 UNK        -0.0894 
     13 C13        19.8044  -31.3709  -44.3721 C.ar      10 UNK        -0.0745 
     14 C14        19.1664  -30.4509  -43.5342 C.ar      10 UNK        -0.0972 
     15 C15        21.2653  -31.1776  -44.7630 C.3       10 UNK         0.0209 
     16 S16        21.4672  -30.3611  -46.3805 S.3       10 UNK        -0.2568 
     17 C17        21.0037  -28.6416  -45.9778 C.3       10 UNK        -0.0983 
     18 CA         22.1666  -27.6240  -45.8372 C.3       3 UNK         0.0876 
     19 N          21.6708  -26.3550  -45.3206 N.am      3 UNK        -0.4424 
     20 C          21.0668  -25.3932  -46.0218 C.2       2 UNK         0.4918 
     21 O          20.9238  -25.4264  -47.2450 O.2       2 UNK        -0.4875 
     22 CA         20.4683  -24.2334  -45.1966 C.3       2 UNK         0.0481 
     23 CB         19.9693  -23.0745  -46.0790 C.3       2 UNK        -0.1831 
     24 N          19.3582  -24.7186  -44.3686 N.am      2 UNK        -0.4498 
     25 C          19.5058  -25.4244  -43.2385 C.2       1 UNK         0.5027 
     26 O          20.6015  -25.5995  -42.6988 O.2       1 UNK        -0.4969 
     27 C          23.2840  -28.0592  -44.8725 C.2       3 UNK         0.5005 
     28 O          23.1092  -27.9546  -43.6526 O.2       3 UNK        -0.5279 
     29 N          24.4178  -28.5011  -45.4395 N.am      4 UNK        -0.4463 
     30 CA         25.7078  -28.7131  -44.7693 C.3       4 UNK         0.0283 
     31 CB         25.6273  -29.8796  -43.7597 C.3       4 UNK        -0.1875 
     32 C          26.2191  -27.3847  -44.1724 C.2       4 UNK         0.4949 
     33 O          26.1330  -26.3589  -44.8513 O.2       4 UNK        -0.5039 
     34 N          26.7227  -27.4039  -42.9305 N.am      5 UNK        -0.4663 
     35 CA         27.0056  -26.1909  -42.1567 C.3       5 UNK         0.0242 
     36 CB         27.9080  -26.5311  -40.9579 C.3       5 UNK        -0.1982 
     37 C          25.6987  -25.5149  -41.7046 C.2       5 UNK         0.5017 
     38 O          25.5004  -24.3309  -41.9768 O.2       5 UNK        -0.5012 
     39 N          24.8330  -26.3092  -41.0625 N.am      6 UNK        -0.4439 
     40 CA         23.4734  -25.9964  -40.6203 C.3       6 UNK         0.0297 
     41 CB         23.4346  -24.7795  -39.6662 C.3       6 UNK        -0.2006 
     42 C          22.9087  -27.2655  -39.9631 C.2       6 UNK         0.4892 
     43 O          22.6081  -27.2588  -38.7673 O.2       6 UNK        -0.5089 
     44 N          22.8660  -28.3635  -40.7297 N.am      7 UNK        -0.4243 
     45 CA         22.4651  -29.6846  -40.2353 C.3       7 UNK         0.0196 
     46 CB         23.1366  -30.7716  -41.0911 C.3       7 UNK        -0.2007 
     47 C          20.9383  -29.8583  -40.1966 C.2       7 UNK         0.5020 
     48 O          20.2036  -29.0426  -40.7565 O.2       7 UNK        -0.5147 
     49 N          20.4985  -30.9402  -39.5418 N.am      8 UNK        -0.4734 
     50 CA         19.0959  -31.3287  -39.3686 C.3       8 UNK         0.0238 
     51 CB         18.6945  -31.1305  -37.8944 C.3       8 UNK        -0.1912 
     52 C          18.8629  -32.7670  -39.8678 C.2       8 UNK         0.5038 
     53 O          18.2235  -33.5637  -39.1794 O.2       8 UNK        -0.5046 
     54 N          19.4050  -33.0756  -41.0533 N.am      9 UNK        -0.4200 
     55 CA         19.3500  -34.3865  -41.7279 C.3       9 UNK         0.0839 
     56 C          20.1771  -35.5191  -41.0446 C.2       9 UNK         0.5513 
     57 N          21.0908  -35.2102  -40.1322 N.am      9 UNK        -0.7519 
     58 O          20.0148  -36.6944  -41.3625 O.2       9 UNK        -0.4960 
     59 C59        17.8964  -34.8203  -42.1082 C.3       10 UNK        -0.0876 
     60 S60        17.7868  -35.4338  -43.8304 S.3       10 UNK        -0.2414 
     61 C61        17.0726  -34.0130  -44.7319 C.3       10 UNK         0.0169 
     62 H62        18.7070  -27.7037  -38.9753 H         1 UNK         0.0903 
     63 H63        19.8599  -26.3892  -38.7178 H         1 UNK         0.0903 
     64 H64        18.2169  -26.2697  -38.0774 H         1 UNK         0.0903 
     65 H65        19.0489  -27.5171  -41.3031 H         1 UNK         0.3096 
     66 H66        17.4495  -25.3757  -42.6207 H         1 UNK         0.1121 
     67 H67        17.5212  -26.7864  -44.6316 H         1 UNK         0.0849 
     68 H68        18.6219  -27.8968  -43.9043 H         1 UNK         0.0849 
     69 H69        17.8258  -29.2136  -41.5311 H         1 UNK         0.0865 
     70 H70        16.3553  -30.1171  -41.6820 H         1 UNK         0.0865 
     71 H71        16.1112  -31.9008  -43.3093 H         1 UNK         0.1346 
     72 H72        19.5995  -33.2398  -45.4167 H         1 UNK         0.1412 
     73 H73        19.7253  -29.6083  -43.1553 H         1 UNK         0.1426 
     74 H74        21.7702  -32.1443  -44.7893 H         1 UNK         0.0716 
     75 H75        21.7802  -30.5848  -44.0097 H         1 UNK         0.0716 
     76 H76        20.4175  -28.6393  -45.0639 H         1 UNK         0.0695 
     77 H77        20.3204  -28.3014  -46.7572 H         1 UNK         0.0695 
     78 H78        22.6070  -27.4529  -46.8220 H         1 UNK         0.0983 
     79 H79        21.7435  -26.2561  -44.3110 H         1 UNK         0.3095 
     80 H80        21.2571  -23.8425  -44.5501 H         1 UNK         0.0454 
     81 H81        20.7758  -22.6834  -46.7007 H         1 UNK         0.0851 
     82 H82        19.5988  -22.2468  -45.4741 H         1 UNK         0.0851 
     83 H83        19.1660  -23.3877  -46.7470 H         1 UNK         0.0851 
     84 H84        18.4354  -24.6300  -44.7703 H         1 UNK         0.2976 
     85 H85        24.4531  -28.5442  -46.4487 H         1 UNK         0.3116 
     86 H86        26.4176  -28.9954  -45.5481 H         1 UNK         0.0646 
     87 H87        26.6188  -30.1708  -43.4112 H         1 UNK         0.0847 
     88 H88        25.1781  -30.7629  -44.2138 H         1 UNK         0.0847 
     89 H89        25.0312  -29.6187  -42.8870 H         1 UNK         0.0847 
     90 H90        26.7944  -28.2887  -42.4498 H         1 UNK         0.3040 
     91 H91        27.5435  -25.4850  -42.7943 H         1 UNK         0.1015 
     92 H92        28.1212  -25.6389  -40.3674 H         1 UNK         0.0786 
     93 H93        28.8655  -26.9348  -41.2877 H         1 UNK         0.0786 
     94 H94        27.4499  -27.2616  -40.2902 H         1 UNK         0.0786 
     95 H95        25.1087  -27.2684  -40.9050 H         1 UNK         0.3172 
     96 H96        22.8710  -25.7770  -41.5017 H         1 UNK         0.0595 
     97 H97        24.1011  -24.9149  -38.8138 H         1 UNK         0.0839 
     98 H98        22.4280  -24.6256  -39.2747 H         1 UNK         0.0839 
     99 H99        23.7157  -23.8560  -40.1705 H         1 UNK         0.0839 
    100 H100       23.0172  -28.2681  -41.7321 H         1 UNK         0.2998 
    101 H101       22.8262  -29.7993  -39.2107 H         1 UNK         0.0822 
    102 H102       24.2183  -30.7550  -40.9595 H         1 UNK         0.0787 
    103 H103       22.9283  -30.6355  -42.1494 H         1 UNK         0.0787 
    104 H104       22.8029  -31.7729  -40.8174 H         1 UNK         0.0787 
    105 H105       21.1799  -31.5555  -39.1189 H         1 UNK         0.3055 
    106 H106       18.4496  -30.6935  -39.9719 H         1 UNK         0.1106 
    107 H107       19.2757  -31.7694  -37.2286 H         1 UNK         0.0828 
    108 H108       18.8421  -30.0970  -37.5804 H         1 UNK         0.0828 
    109 H109       17.6410  -31.3665  -37.7386 H         1 UNK         0.0828 
    110 H110       19.9079  -32.3543  -41.5489 H         1 UNK         0.2931 
    111 H111       19.8955  -34.2017  -42.6533 H         1 UNK         0.0412 
    112 H112       21.2438  -34.2530  -39.8635 H         1 UNK         0.3472 
    113 H113       21.6273  -35.9481  -39.7032 H         1 UNK         0.3472 
    114 H114       17.5247  -35.5938  -41.4337 H         1 UNK         0.0970 
    115 H115       17.1947  -33.9952  -41.9880 H         1 UNK         0.0970 
    116 H116       17.1411  -34.1996  -45.8044 H         1 UNK         0.0612 
    117 H117       16.0091  -33.9461  -44.4974 H         1 UNK         0.0612 
@<TRIPOS>BOND
     1    1    2 1    
     2    1   62 1    
     3    1   63 1    
     4    1   64 1    
     5    2    3 2    
     6    2    4 am   BACKBONE|DICT|INTERRES
     7    4    5 1    
     8    4   65 1    
     9    5    6 1    
    10    5   25 1    
    11    5   66 1    
    12    6    7 1    
    13    6   67 1    
    14    6   68 1    
    15    7    8 1    
    16    8    9 1    
    17    8   69 1    
    18    8   70 1    
    19    9   10 ar   
    20    9   14 ar   
    21   10   11 ar   
    22   10   71 1    
    23   11   12 ar   
    24   11   61 1    
    25   12   13 ar   
    26   12   72 1    
    27   13   14 ar   
    28   13   15 1    
    29   14   73 1    
    30   15   16 1    
    31   15   74 1    
    32   15   75 1    
    33   16   17 1    
    34   17   18 1    
    35   17   76 1    
    36   17   77 1    
    37   18   19 1    
    38   18   27 1    
    39   18   78 1    
    40   19   20 am   BACKBONE|DICT|INTERRES
    41   19   79 1    
    42   20   21 2    
    43   20   22 1    
    44   22   23 1    
    45   22   24 1    
    46   22   80 1    
    47   23   81 1    
    48   23   82 1    
    49   23   83 1    
    50   24   25 am   BACKBONE|DICT|INTERRES
    51   24   84 1    
    52   25   26 2    
    53   27   28 2    
    54   27   29 am   BACKBONE|DICT|INTERRES
    55   29   30 1    
    56   29   85 1    
    57   30   31 1    
    58   30   32 1    
    59   30   86 1    
    60   31   87 1    
    61   31   88 1    
    62   31   89 1    
    63   32   33 2    
    64   32   34 am   BACKBONE|DICT|INTERRES
    65   34   35 1    
    66   34   90 1    
    67   35   36 1    
    68   35   37 1    
    69   35   91 1    
    70   36   92 1    
    71   36   93 1    
    72   36   94 1    
    73   37   38 2    
    74   37   39 am   BACKBONE|DICT|INTERRES
    75   39   40 1    
    76   39   95 1    
    77   40   41 1    
    78   40   42 1    
    79   40   96 1    
    80   41   97 1    
    81   41   98 1    
    82   41   99 1    
    83   42   43 2    
    84   42   44 am   BACKBONE|DICT|INTERRES
    85   44   45 1    
    86   44  100 1    
    87   45   46 1    
    88   45   47 1    
    89   45  101 1    
    90   46  102 1    
    91   46  103 1    
    92   46  104 1    
    93   47   48 2    
    94   47   49 am   BACKBONE|DICT|INTERRES
    95   49   50 1    
    96   49  105 1    
    97   50   51 1    
    98   50   52 1    
    99   50  106 1    
   100   51  107 1    
   101   51  108 1    
   102   51  109 1    
   103   52   53 2    
   104   52   54 am   BACKBONE|DICT|INTERRES
   105   54   55 1    
   106   54  110 1    
   107   55   56 1    
   108   55   59 1    
   109   55  111 1    
   110   56   57 am   BACKBONE|DICT|INTERRES
   111   56   58 2    
   112   57  112 1    
   113   57  113 1    
   114   59   60 1    
   115   59  114 1    
   116   59  115 1    
   117   60   61 1    
   118   61  116 1    
   119   61  117 1    
@<TRIPOS>SUBSTRUCTURE
     1 UNK         1 GROUP             0       ****    0 ROOT    
