@<TRIPOS>MOLECULE
3R8
117   119    1
SMALL
USER_CHARGES


@<TRIPOS>ATOM
      1 CA         12.5400  -24.3387  -48.1706 C.3       0 UNK        -0.2013 
      2 C          14.0358  -24.3988  -47.8983 C.2       0 UNK         0.4866 
      3 O          14.7643  -23.4806  -48.2765 O.2       0 UNK        -0.5176 
      4 N          14.5010  -25.4757  -47.2525 N.am      1 UNK        -0.4884 
      5 CA         15.8971  -25.6643  -46.8449 C.3       1 UNK         0.0853 
      6 C6         16.1878  -27.1539  -46.5358 C.3       10 UNK        -0.0849 
      7 S7         17.9443  -27.5922  -46.7685 S.3       10 UNK        -0.2776 
      8 C8         17.9334  -29.3645  -46.3349 C.3       10 UNK         0.0316 
      9 C9         18.2935  -29.5770  -44.8721 C.ar      10 UNK        -0.0863 
     10 C10        19.5878  -29.9637  -44.5117 C.ar      10 UNK        -0.1009 
     11 C11        19.9342  -30.1207  -43.1659 C.ar      10 UNK        -0.0712 
     12 C12        18.9818  -29.8681  -42.1732 C.ar      10 UNK        -0.0894 
     13 C13        17.6935  -29.4515  -42.5244 C.ar      10 UNK        -0.0745 
     14 C14        17.3441  -29.3525  -43.8732 C.ar      10 UNK        -0.0972 
     15 C15        16.7031  -29.0040  -41.4611 C.3       10 UNK         0.0209 
     16 S16        16.3991  -27.2047  -41.5765 S.3       10 UNK        -0.2568 
     17 C17        18.0100  -26.5081  -41.0705 C.3       10 UNK        -0.0983 
     18 CA         19.0091  -26.3072  -42.2476 C.3       3 UNK         0.0876 
     19 N          18.5354  -25.4176  -43.3138 N.am      3 UNK        -0.4424 
     20 C          18.3302  -24.0954  -43.2345 C.2       2 UNK         0.4918 
     21 O          18.4370  -23.4375  -42.1994 O.2       2 UNK        -0.4875 
     22 CA         17.9746  -23.3647  -44.5437 C.3       2 UNK         0.0481 
     23 CB         19.2016  -22.6026  -45.0714 C.3       2 UNK        -0.1831 
     24 N          17.4738  -24.2488  -45.6021 N.am      2 UNK        -0.4498 
     25 C          16.2356  -24.7589  -45.6404 C.2       1 UNK         0.5027 
     26 O          15.3851  -24.5566  -44.7695 O.2       1 UNK        -0.4969 
     27 C          20.4213  -25.9081  -41.7709 C.2       3 UNK         0.5005 
     28 O          20.6071  -25.5208  -40.6145 O.2       3 UNK        -0.5279 
     29 N          21.3920  -25.9929  -42.6927 N.am      4 UNK        -0.4463 
     30 CA         22.8176  -25.7764  -42.4316 C.3       4 UNK         0.0283 
     31 CB         23.5779  -25.7943  -43.7676 C.3       4 UNK        -0.1875 
     32 C          23.3956  -26.8362  -41.4768 C.2       4 UNK         0.4949 
     33 O          22.9228  -27.9743  -41.4619 O.2       4 UNK        -0.5039 
     34 N          24.4355  -26.4596  -40.7235 N.am      5 UNK        -0.4663 
     35 CA         25.0967  -27.2887  -39.7080 C.3       5 UNK         0.0242 
     36 CB         25.8256  -26.3631  -38.7148 C.3       5 UNK        -0.1982 
     37 C          26.0243  -28.3740  -40.2983 C.2       5 UNK         0.5017 
     38 O          27.1805  -28.4881  -39.8858 O.2       5 UNK        -0.5012 
     39 N          25.5058  -29.1556  -41.2518 N.am      6 UNK        -0.4439 
     40 CA         26.1549  -30.3410  -41.8086 C.3       6 UNK         0.0297 
     41 CB         25.5224  -30.6701  -43.1696 C.3       6 UNK        -0.2006 
     42 C          25.9905  -31.5206  -40.8407 C.2       6 UNK         0.4892 
     43 O          24.9004  -31.7079  -40.2981 O.2       6 UNK        -0.5089 
     44 N          27.0499  -32.3209  -40.6672 N.am      7 UNK        -0.4243 
     45 CA         27.1040  -33.4480  -39.7237 C.3       7 UNK         0.0196 
     46 CB         28.5227  -34.0408  -39.7318 C.3       7 UNK        -0.2007 
     47 C          26.0597  -34.5559  -39.9675 C.2       7 UNK         0.5020 
     48 O          25.7375  -35.2969  -39.0387 O.2       7 UNK        -0.5147 
     49 N          25.5500  -34.6496  -41.2015 N.am      8 UNK        -0.4734 
     50 CA         24.5264  -35.6094  -41.6131 C.3       8 UNK         0.0238 
     51 CB         24.5977  -35.7749  -43.1409 C.3       8 UNK        -0.1912 
     52 C          23.0941  -35.2310  -41.1898 C.2       8 UNK         0.5038 
     53 O          22.2249  -36.1028  -41.2508 O.2       8 UNK        -0.5046 
     54 N          22.8457  -33.9676  -40.8139 N.am      9 UNK        -0.4200 
     55 CA         21.4844  -33.4379  -40.6092 C.3       9 UNK         0.0839 
     56 C          21.3525  -32.2731  -39.5903 C.2       9 UNK         0.5513 
     57 N          22.4233  -31.6644  -39.1027 N.am      9 UNK        -0.7519 
     58 O          20.2379  -31.9277  -39.2065 O.2       9 UNK        -0.4960 
     59 C59        20.7457  -33.1485  -41.9498 C.3       10 UNK        -0.0876 
     60 S60        21.7417  -32.2336  -43.1812 S.3       10 UNK        -0.2414 
     61 C61        21.3571  -30.5008  -42.7877 C.3       10 UNK         0.0169 
     62 H62        12.1069  -23.4611  -47.6913 H         1 UNK         0.0903 
     63 H63        12.3561  -24.2675  -49.2423 H         1 UNK         0.0903 
     64 H64        12.0207  -25.2205  -47.7956 H         1 UNK         0.0903 
     65 H65        13.8504  -26.1793  -46.9325 H         1 UNK         0.3096 
     66 H66        16.5177  -25.3574  -47.6906 H         1 UNK         0.1121 
     67 H67        15.6162  -27.7913  -47.2129 H         1 UNK         0.0849 
     68 H68        15.8576  -27.4153  -45.5303 H         1 UNK         0.0849 
     69 H69        16.9594  -29.8059  -46.5516 H         1 UNK         0.0865 
     70 H70        18.6475  -29.8842  -46.9757 H         1 UNK         0.0865 
     71 H71        20.3334  -30.1340  -45.2765 H         1 UNK         0.1346 
     72 H72        19.2589  -29.9465  -41.1303 H         1 UNK         0.1412 
     73 H73        16.3444  -29.0398  -44.1361 H         1 UNK         0.1426 
     74 H74        17.0565  -29.2541  -40.4595 H         1 UNK         0.0716 
     75 H75        15.7605  -29.5352  -41.5999 H         1 UNK         0.0716 
     76 H76        18.4406  -27.1675  -40.3145 H         1 UNK         0.0695 
     77 H77        17.8221  -25.5589  -40.5661 H         1 UNK         0.0695 
     78 H78        19.1469  -27.2685  -42.7344 H         1 UNK         0.0983 
     79 H79        18.4013  -25.8540  -44.2142 H         1 UNK         0.3095 
     80 H80        17.1987  -22.6326  -44.3095 H         1 UNK         0.0454 
     81 H81        20.0186  -23.2778  -45.3290 H         1 UNK         0.0851 
     82 H82        19.5806  -21.9059  -44.3224 H         1 UNK         0.0851 
     83 H83        18.9556  -22.0174  -45.9576 H         1 UNK         0.0851 
     84 H84        18.1167  -24.4713  -46.3497 H         1 UNK         0.2976 
     85 H85        21.1531  -26.3312  -43.6132 H         1 UNK         0.3116 
     86 H86        22.9308  -24.7918  -41.9729 H         1 UNK         0.0646 
     87 H87        23.4909  -26.7595  -44.2687 H         1 UNK         0.0847 
     88 H88        24.6412  -25.6028  -43.6166 H         1 UNK         0.0847 
     89 H89        23.2072  -25.0270  -44.4476 H         1 UNK         0.0847 
     90 H90        24.7946  -25.5216  -40.8333 H         1 UNK         0.3040 
     91 H91        24.3231  -27.8211  -39.1494 H         1 UNK         0.1015 
     92 H92        26.2745  -26.9352  -37.9015 H         1 UNK         0.0786 
     93 H93        25.1392  -25.6483  -38.2605 H         1 UNK         0.0786 
     94 H94        26.6252  -25.8012  -39.1993 H         1 UNK         0.0786 
     95 H95        24.5268  -29.0081  -41.4844 H         1 UNK         0.3172 
     96 H96        27.2170  -30.1339  -41.9559 H         1 UNK         0.0595 
     97 H97        25.9990  -31.5394  -43.6244 H         1 UNK         0.0839 
     98 H98        25.6288  -29.8398  -43.8678 H         1 UNK         0.0839 
     99 H99        24.4593  -30.8931  -43.0759 H         1 UNK         0.0839 
    100 H100       27.9028  -32.1102  -41.1661 H         1 UNK         0.2998 
    101 H101       26.9086  -33.0449  -38.7277 H         1 UNK         0.0822 
    102 H102       28.6078  -34.8623  -39.0188 H         1 UNK         0.0787 
    103 H103       28.7900  -34.4332  -40.7139 H         1 UNK         0.0787 
    104 H104       29.2674  -33.2953  -39.4521 H         1 UNK         0.0787 
    105 H105       25.8737  -33.9968  -41.9002 H         1 UNK         0.3055 
    106 H106       24.7512  -36.5751  -41.1542 H         1 UNK         0.1106 
    107 H107       23.8787  -36.5184  -43.4881 H         1 UNK         0.0828 
    108 H108       24.3739  -34.8411  -43.6588 H         1 UNK         0.0828 
    109 H109       25.5848  -36.1102  -43.4599 H         1 UNK         0.0828 
    110 H110       23.6037  -33.2977  -40.7610 H         1 UNK         0.2931 
    111 H111       20.9205  -34.2333  -40.1174 H         1 UNK         0.0412 
    112 H112       22.2902  -30.9275  -38.4297 H         1 UNK         0.3472 
    113 H113       23.3568  -31.8348  -39.4707 H         1 UNK         0.3472 
    114 H114       20.4764  -34.0992  -42.4119 H         1 UNK         0.0970 
    115 H115       19.7940  -32.6407  -41.7848 H         1 UNK         0.0970 
    116 H116       22.0509  -29.8596  -43.3330 H         1 UNK         0.0612 
    117 H117       21.5452  -30.3155  -41.7300 H         1 UNK         0.0612 
@<TRIPOS>BOND
     1    1    2 1    
     2    1   62 1    
     3    1   63 1    
     4    1   64 1    
     5    2    3 2    
     6    2    4 am   BACKBONE|DICT|INTERRES
     7    4    5 1    
     8    4   65 1    
     9    5    6 1    
    10    5   25 1    
    11    5   66 1    
    12    6    7 1    
    13    6   67 1    
    14    6   68 1    
    15    7    8 1    
    16    8    9 1    
    17    8   69 1    
    18    8   70 1    
    19    9   10 ar   
    20    9   14 ar   
    21   10   11 ar   
    22   10   71 1    
    23   11   12 ar   
    24   11   61 1    
    25   12   13 ar   
    26   12   72 1    
    27   13   14 ar   
    28   13   15 1    
    29   14   73 1    
    30   15   16 1    
    31   15   74 1    
    32   15   75 1    
    33   16   17 1    
    34   17   18 1    
    35   17   76 1    
    36   17   77 1    
    37   18   19 1    
    38   18   27 1    
    39   18   78 1    
    40   19   20 am   BACKBONE|DICT|INTERRES
    41   19   79 1    
    42   20   21 2    
    43   20   22 1    
    44   22   23 1    
    45   22   24 1    
    46   22   80 1    
    47   23   81 1    
    48   23   82 1    
    49   23   83 1    
    50   24   25 am   BACKBONE|DICT|INTERRES
    51   24   84 1    
    52   25   26 2    
    53   27   28 2    
    54   27   29 am   BACKBONE|DICT|INTERRES
    55   29   30 1    
    56   29   85 1    
    57   30   31 1    
    58   30   32 1    
    59   30   86 1    
    60   31   87 1    
    61   31   88 1    
    62   31   89 1    
    63   32   33 2    
    64   32   34 am   BACKBONE|DICT|INTERRES
    65   34   35 1    
    66   34   90 1    
    67   35   36 1    
    68   35   37 1    
    69   35   91 1    
    70   36   92 1    
    71   36   93 1    
    72   36   94 1    
    73   37   38 2    
    74   37   39 am   BACKBONE|DICT|INTERRES
    75   39   40 1    
    76   39   95 1    
    77   40   41 1    
    78   40   42 1    
    79   40   96 1    
    80   41   97 1    
    81   41   98 1    
    82   41   99 1    
    83   42   43 2    
    84   42   44 am   BACKBONE|DICT|INTERRES
    85   44   45 1    
    86   44  100 1    
    87   45   46 1    
    88   45   47 1    
    89   45  101 1    
    90   46  102 1    
    91   46  103 1    
    92   46  104 1    
    93   47   48 2    
    94   47   49 am   BACKBONE|DICT|INTERRES
    95   49   50 1    
    96   49  105 1    
    97   50   51 1    
    98   50   52 1    
    99   50  106 1    
   100   51  107 1    
   101   51  108 1    
   102   51  109 1    
   103   52   53 2    
   104   52   54 am   BACKBONE|DICT|INTERRES
   105   54   55 1    
   106   54  110 1    
   107   55   56 1    
   108   55   59 1    
   109   55  111 1    
   110   56   57 am   BACKBONE|DICT|INTERRES
   111   56   58 2    
   112   57  112 1    
   113   57  113 1    
   114   59   60 1    
   115   59  114 1    
   116   59  115 1    
   117   60   61 1    
   118   61  116 1    
   119   61  117 1    
@<TRIPOS>SUBSTRUCTURE
     1 UNK         1 GROUP             0       ****    0 ROOT    
