@<TRIPOS>MOLECULE
3R8
117   119    1
SMALL
USER_CHARGES


@<TRIPOS>ATOM
      1 CA         14.0352  -23.5928  -43.3777 C.3       0 UNK        -0.2013 
      2 C          15.0961  -24.5229  -42.8074 C.2       0 UNK         0.4866 
      3 O          15.5341  -24.3204  -41.6743 O.2       0 UNK        -0.5176 
      4 N          15.5002  -25.5363  -43.5867 N.am      1 UNK        -0.4884 
      5 CA         16.5286  -26.5408  -43.2713 C.3       1 UNK         0.0853 
      6 C6         16.1499  -27.4469  -42.0595 C.3       10 UNK        -0.0849 
      7 S7         14.8522  -28.6353  -42.5345 S.3       10 UNK        -0.2776 
      8 C8         15.7863  -30.2051  -42.5860 C.3       10 UNK         0.0316 
      9 C9         17.0297  -30.1528  -43.4716 C.ar      10 UNK        -0.0863 
     10 C10        18.2734  -30.5282  -42.9519 C.ar      10 UNK        -0.1009 
     11 C11        19.4099  -30.5329  -43.7651 C.ar      10 UNK        -0.0712 
     12 C12        19.3044  -30.1411  -45.1002 C.ar      10 UNK        -0.0894 
     13 C13        18.0766  -29.7297  -45.6257 C.ar      10 UNK        -0.0745 
     14 C14        16.9392  -29.7597  -44.8119 C.ar      10 UNK        -0.0972 
     15 C15        17.9703  -29.2777  -47.0761 C.3       10 UNK         0.0209 
     16 S16        18.5337  -27.5567  -47.3030 S.3       10 UNK        -0.2568 
     17 C17        20.3452  -27.7665  -47.4425 C.3       10 UNK        -0.0983 
     18 CA         21.1713  -26.9449  -46.4160 C.3       3 UNK         0.0876 
     19 N          20.6291  -27.0061  -45.0512 N.am      3 UNK        -0.4424 
     20 C          20.9804  -26.1785  -44.0554 C.2       2 UNK         0.4918 
     21 O          21.7662  -25.2396  -44.1910 O.2       2 UNK        -0.4875 
     22 CA         20.3549  -26.4771  -42.6817 C.3       2 UNK         0.0481 
     23 CB         20.6508  -25.3925  -41.6241 C.3       2 UNK        -0.1831 
     24 N          18.9199  -26.7649  -42.7619 N.am      2 UNK        -0.4498 
     25 C          17.9517  -25.9406  -43.1931 C.2       1 UNK         0.5027 
     26 O          18.1603  -24.7861  -43.5761 O.2       1 UNK        -0.4969 
     27 C          22.6587  -27.3683  -46.4702 C.2       3 UNK         0.5005 
     28 O          23.3618  -26.9966  -47.4112 O.2       3 UNK        -0.5279 
     29 N          23.1017  -28.1326  -45.4626 N.am      4 UNK        -0.4463 
     30 CA         24.4828  -28.5290  -45.2137 C.3       4 UNK         0.0283 
     31 CB         24.5799  -30.0634  -45.2555 C.3       4 UNK        -0.1875 
     32 C          24.8911  -28.0060  -43.8307 C.2       4 UNK         0.4949 
     33 O          24.0339  -27.8498  -42.9558 O.2       4 UNK        -0.5039 
     34 N          26.2004  -27.7896  -43.6463 N.am      5 UNK        -0.4663 
     35 CA         26.8199  -27.2038  -42.4475 C.3       5 UNK         0.0242 
     36 CB         28.3224  -27.0077  -42.7093 C.3       5 UNK        -0.1982 
     37 C          26.6027  -27.9851  -41.1369 C.2       5 UNK         0.5017 
     38 O          26.7608  -27.4066  -40.0617 O.2       5 UNK        -0.5012 
     39 N          26.2249  -29.2666  -41.2427 N.am      6 UNK        -0.4439 
     40 CA         25.8266  -30.1266  -40.1249 C.3       6 UNK         0.0297 
     41 CB         25.8133  -31.5886  -40.5988 C.3       6 UNK        -0.2006 
     42 C          24.4757  -29.7419  -39.4840 C.2       6 UNK         0.4892 
     43 O          24.1690  -30.2583  -38.4085 O.2       6 UNK        -0.5089 
     44 N          23.6965  -28.8657  -40.1401 N.am      7 UNK        -0.4243 
     45 CA         22.4312  -28.2510  -39.7133 C.3       7 UNK         0.0196 
     46 CB         22.6019  -27.4276  -38.4219 C.3       7 UNK        -0.2007 
     47 C          21.2482  -29.2269  -39.6100 C.2       7 UNK         0.5020 
     48 O          20.2318  -29.0162  -40.2707 O.2       7 UNK        -0.5147 
     49 N          21.4013  -30.2770  -38.7978 N.am      8 UNK        -0.4734 
     50 CA         20.4517  -31.3857  -38.6825 C.3       8 UNK         0.0238 
     51 CB         20.5538  -31.9982  -37.2764 C.3       8 UNK        -0.1912 
     52 C          20.6967  -32.4572  -39.7575 C.2       8 UNK         0.5038 
     53 O          19.7329  -33.0744  -40.2102 O.2       8 UNK        -0.5046 
     54 N          21.9739  -32.6320  -40.1353 N.am      9 UNK        -0.4200 
     55 CA         22.5132  -33.5880  -41.1176 C.3       9 UNK         0.0839 
     56 C          22.0033  -35.0548  -40.9639 C.2       9 UNK         0.5513 
     57 N          21.8255  -35.8016  -42.0457 N.am      9 UNK        -0.7519 
     58 O          21.8396  -35.5481  -39.8497 O.2       9 UNK        -0.4960 
     59 C59        22.5704  -33.0109  -42.5652 C.3       10 UNK        -0.0876 
     60 S60        20.9613  -32.7732  -43.3905 S.3       10 UNK        -0.2414 
     61 C61        20.7510  -30.9785  -43.2104 C.3       10 UNK         0.0169 
     62 H62        14.4190  -22.5742  -43.4298 H         1 UNK         0.0903 
     63 H63        13.7258  -23.8899  -44.3796 H         1 UNK         0.0903 
     64 H64        13.1534  -23.5924  -42.7375 H         1 UNK         0.0903 
     65 H65        15.1046  -25.6181  -44.5130 H         1 UNK         0.3096 
     66 H66        16.5777  -27.1696  -44.1599 H         1 UNK         0.1121 
     67 H67        16.9939  -28.0132  -41.6661 H         1 UNK         0.0849 
     68 H68        15.7935  -26.8553  -41.2160 H         1 UNK         0.0849 
     69 H69        16.0524  -30.4823  -41.5646 H         1 UNK         0.0865 
     70 H70        15.1279  -30.9939  -42.9522 H         1 UNK         0.0865 
     71 H71        18.3602  -30.8425  -41.9199 H         1 UNK         0.1346 
     72 H72        20.1831  -30.1717  -45.7269 H         1 UNK         0.1412 
     73 H73        15.9794  -29.4695  -45.2180 H         1 UNK         0.1426 
     74 H74        16.9342  -29.3453  -47.4113 H         1 UNK         0.0716 
     75 H75        18.5362  -29.9486  -47.7242 H         1 UNK         0.0716 
     76 H76        20.6262  -27.4652  -48.4534 H         1 UNK         0.0695 
     77 H77        20.5946  -28.8257  -47.3880 H         1 UNK         0.0695 
     78 H78        21.1311  -25.8983  -46.7266 H         1 UNK         0.0983 
     79 H79        19.9322  -27.7165  -44.8788 H         1 UNK         0.3095 
     80 H80        20.8239  -27.4024  -42.3489 H         1 UNK         0.0454 
     81 H81        20.2375  -25.6646  -40.6530 H         1 UNK         0.0851 
     82 H82        20.2376  -24.4240  -41.9067 H         1 UNK         0.0851 
     83 H83        21.7252  -25.2588  -41.4924 H         1 UNK         0.0851 
     84 H84        18.6607  -27.7023  -42.4849 H         1 UNK         0.2976 
     85 H85        22.4731  -28.2960  -44.6892 H         1 UNK         0.3116 
     86 H86        25.1488  -28.1012  -45.9661 H         1 UNK         0.0646 
     87 H87        23.9630  -30.5320  -44.4881 H         1 UNK         0.0847 
     88 H88        25.6063  -30.3972  -45.0987 H         1 UNK         0.0847 
     89 H89        24.2596  -30.4522  -46.2223 H         1 UNK         0.0847 
     90 H90        26.8259  -27.9750  -44.4183 H         1 UNK         0.3040 
     91 H91        26.3681  -26.2203  -42.2994 H         1 UNK         0.1015 
     92 H92        28.8263  -27.9567  -42.8970 H         1 UNK         0.0786 
     93 H93        28.8127  -26.5429  -41.8524 H         1 UNK         0.0786 
     94 H94        28.4957  -26.3581  -43.5675 H         1 UNK         0.0786 
     95 H95        26.1369  -29.6506  -42.1720 H         1 UNK         0.3172 
     96 H96        26.5833  -30.0336  -39.3432 H         1 UNK         0.0595 
     97 H97        25.1259  -31.7376  -41.4300 H         1 UNK         0.0839 
     98 H98        25.5118  -32.2615  -39.7947 H         1 UNK         0.0839 
     99 H99        26.8039  -31.9062  -40.9251 H         1 UNK         0.0839 
    100 H100       24.0192  -28.5508  -41.0506 H         1 UNK         0.2998 
    101 H101       22.1856  -27.5458  -40.5054 H         1 UNK         0.0822 
    102 H102       23.3811  -26.6738  -38.5359 H         1 UNK         0.0787 
    103 H103       21.6784  -26.9039  -38.1712 H         1 UNK         0.0787 
    104 H104       22.8630  -28.0507  -37.5662 H         1 UNK         0.0787 
    105 H105       22.2970  -30.3648  -38.3226 H         1 UNK         0.3055 
    106 H106       19.4359  -31.0061  -38.8178 H         1 UNK         0.1106 
    107 H107       19.8487  -32.8224  -37.1585 H         1 UNK         0.0828 
    108 H108       21.5514  -32.3911  -37.0757 H         1 UNK         0.0828 
    109 H109       20.3221  -31.2621  -36.5065 H         1 UNK         0.0828 
    110 H110       22.6664  -32.0791  -39.6541 H         1 UNK         0.2931 
    111 H111       23.5571  -33.6789  -40.8163 H         1 UNK         0.0412 
    112 H112       21.9313  -35.4057  -42.9666 H         1 UNK         0.3472 
    113 H113       21.5230  -36.7574  -41.9399 H         1 UNK         0.3472 
    114 H114       23.0964  -32.0564  -42.5525 H         1 UNK         0.0970 
    115 H115       23.1823  -33.6544  -43.1993 H         1 UNK         0.0970 
    116 H116       21.5634  -30.4609  -43.7220 H         1 UNK         0.0612 
    117 H117       20.8280  -30.7113  -42.1585 H         1 UNK         0.0612 
@<TRIPOS>BOND
     1    1    2 1    
     2    1   62 1    
     3    1   63 1    
     4    1   64 1    
     5    2    3 2    
     6    2    4 am   BACKBONE|DICT|INTERRES
     7    4    5 1    
     8    4   65 1    
     9    5    6 1    
    10    5   25 1    
    11    5   66 1    
    12    6    7 1    
    13    6   67 1    
    14    6   68 1    
    15    7    8 1    
    16    8    9 1    
    17    8   69 1    
    18    8   70 1    
    19    9   10 ar   
    20    9   14 ar   
    21   10   11 ar   
    22   10   71 1    
    23   11   12 ar   
    24   11   61 1    
    25   12   13 ar   
    26   12   72 1    
    27   13   14 ar   
    28   13   15 1    
    29   14   73 1    
    30   15   16 1    
    31   15   74 1    
    32   15   75 1    
    33   16   17 1    
    34   17   18 1    
    35   17   76 1    
    36   17   77 1    
    37   18   19 1    
    38   18   27 1    
    39   18   78 1    
    40   19   20 am   BACKBONE|DICT|INTERRES
    41   19   79 1    
    42   20   21 2    
    43   20   22 1    
    44   22   23 1    
    45   22   24 1    
    46   22   80 1    
    47   23   81 1    
    48   23   82 1    
    49   23   83 1    
    50   24   25 am   BACKBONE|DICT|INTERRES
    51   24   84 1    
    52   25   26 2    
    53   27   28 2    
    54   27   29 am   BACKBONE|DICT|INTERRES
    55   29   30 1    
    56   29   85 1    
    57   30   31 1    
    58   30   32 1    
    59   30   86 1    
    60   31   87 1    
    61   31   88 1    
    62   31   89 1    
    63   32   33 2    
    64   32   34 am   BACKBONE|DICT|INTERRES
    65   34   35 1    
    66   34   90 1    
    67   35   36 1    
    68   35   37 1    
    69   35   91 1    
    70   36   92 1    
    71   36   93 1    
    72   36   94 1    
    73   37   38 2    
    74   37   39 am   BACKBONE|DICT|INTERRES
    75   39   40 1    
    76   39   95 1    
    77   40   41 1    
    78   40   42 1    
    79   40   96 1    
    80   41   97 1    
    81   41   98 1    
    82   41   99 1    
    83   42   43 2    
    84   42   44 am   BACKBONE|DICT|INTERRES
    85   44   45 1    
    86   44  100 1    
    87   45   46 1    
    88   45   47 1    
    89   45  101 1    
    90   46  102 1    
    91   46  103 1    
    92   46  104 1    
    93   47   48 2    
    94   47   49 am   BACKBONE|DICT|INTERRES
    95   49   50 1    
    96   49  105 1    
    97   50   51 1    
    98   50   52 1    
    99   50  106 1    
   100   51  107 1    
   101   51  108 1    
   102   51  109 1    
   103   52   53 2    
   104   52   54 am   BACKBONE|DICT|INTERRES
   105   54   55 1    
   106   54  110 1    
   107   55   56 1    
   108   55   59 1    
   109   55  111 1    
   110   56   57 am   BACKBONE|DICT|INTERRES
   111   56   58 2    
   112   57  112 1    
   113   57  113 1    
   114   59   60 1    
   115   59  114 1    
   116   59  115 1    
   117   60   61 1    
   118   61  116 1    
   119   61  117 1    
@<TRIPOS>SUBSTRUCTURE
     1 UNK         1 GROUP             0       ****    0 ROOT    
