@<TRIPOS>MOLECULE
3R8
117   119    1
SMALL
USER_CHARGES


@<TRIPOS>ATOM
      1 CA         14.7716  -23.5809  -44.7510 C.3       0 UNK        -0.2013 
      2 C          15.7330  -24.7365  -44.5159 C.2       0 UNK         0.4866 
      3 O          16.5612  -25.0283  -45.3798 O.2       0 UNK        -0.5176 
      4 N          15.6239  -25.4011  -43.3582 N.am      1 UNK        -0.4884 
      5 CA         16.5031  -26.5018  -42.9484 C.3       1 UNK         0.0853 
      6 C6         15.8284  -27.4286  -41.9040 C.3       10 UNK        -0.0849 
      7 S7         14.7038  -28.5963  -42.7361 S.3       10 UNK        -0.2776 
      8 C8         15.7088  -30.1232  -42.7726 C.3       10 UNK         0.0316 
      9 C9         17.0564  -29.9576  -43.4743 C.ar      10 UNK        -0.0863 
     10 C10        18.2408  -30.2798  -42.8037 C.ar      10 UNK        -0.1009 
     11 C11        19.4749  -30.1847  -43.4545 C.ar      10 UNK        -0.0712 
     12 C12        19.5219  -29.7396  -44.7775 C.ar      10 UNK        -0.0894 
     13 C13        18.3504  -29.3783  -45.4555 C.ar      10 UNK        -0.0745 
     14 C14        17.1215  -29.5177  -44.8011 C.ar      10 UNK        -0.0972 
     15 C15        18.3571  -28.8919  -46.9065 C.3       10 UNK         0.0209 
     16 S16        19.9565  -28.2511  -47.5198 S.3       10 UNK        -0.2568 
     17 C17        19.9493  -26.4921  -47.0075 C.3       10 UNK        -0.0983 
     18 CA         20.9331  -26.1091  -45.8676 C.3       3 UNK         0.0876 
     19 N          20.4443  -26.5608  -44.5597 N.am      3 UNK        -0.4424 
     20 C          20.9478  -26.1994  -43.3686 C.2       2 UNK         0.4918 
     21 O          21.9336  -25.4740  -43.2382 O.2       2 UNK        -0.4875 
     22 CA         20.2521  -26.7846  -42.1253 C.3       2 UNK         0.0481 
     23 CB         20.5672  -26.0159  -40.8247 C.3       2 UNK        -0.1831 
     24 N          18.8115  -26.9648  -42.3368 N.am      2 UNK        -0.4498 
     25 C          17.8850  -26.0044  -42.4824 C.2       1 UNK         0.5027 
     26 O          18.0901  -24.8030  -42.2917 O.2       1 UNK        -0.4969 
     27 C          22.3918  -26.5369  -46.1571 C.2       3 UNK         0.5005 
     28 O          23.1059  -25.8352  -46.8746 O.2       3 UNK        -0.5279 
     29 N          22.8081  -27.6630  -45.5606 N.am      4 UNK        -0.4463 
     30 CA         24.1585  -28.2220  -45.6200 C.3       4 UNK         0.0283 
     31 CB         24.0531  -29.7532  -45.4981 C.3       4 UNK        -0.1875 
     32 C          25.0968  -27.6543  -44.5363 C.2       4 UNK         0.4949 
     33 O          26.2224  -28.1373  -44.4182 O.2       4 UNK        -0.5039 
     34 N          24.6206  -26.6958  -43.7243 N.am      5 UNK        -0.4663 
     35 CA         25.2838  -26.0131  -42.5990 C.3       5 UNK         0.0242 
     36 CB         26.5604  -25.2806  -43.0568 C.3       5 UNK        -0.1982 
     37 C          25.5631  -26.8949  -41.3660 C.2       5 UNK         0.5017 
     38 O          25.5685  -26.3737  -40.2509 O.2       5 UNK        -0.5012 
     39 N          25.7679  -28.2022  -41.5726 N.am      6 UNK        -0.4439 
     40 CA         26.0211  -29.2119  -40.5403 C.3       6 UNK         0.0297 
     41 CB         26.4246  -30.5302  -41.2209 C.3       6 UNK        -0.2006 
     42 C          24.8385  -29.4532  -39.5843 C.2       6 UNK         0.4892 
     43 O          25.0649  -29.9168  -38.4665 O.2       6 UNK        -0.5089 
     44 N          23.6102  -29.1666  -40.0448 N.am      7 UNK        -0.4243 
     45 CA         22.3111  -29.2599  -39.3556 C.3       7 UNK         0.0196 
     46 CB         22.2653  -28.3360  -38.1240 C.3       7 UNK        -0.2007 
     47 C          21.8497  -30.6847  -38.9910 C.2       7 UNK         0.5020 
     48 O          20.6527  -30.9627  -39.0652 O.2       7 UNK        -0.5147 
     49 N          22.7803  -31.5764  -38.6382 N.am      8 UNK        -0.4734 
     50 CA         22.5489  -32.9784  -38.2797 C.3       8 UNK         0.0238 
     51 CB         23.7298  -33.4633  -37.4171 C.3       8 UNK        -0.1912 
     52 C          22.3018  -33.8800  -39.5087 C.2       8 UNK         0.5038 
     53 O          22.9739  -34.9015  -39.6657 O.2       8 UNK        -0.5046 
     54 N          21.3443  -33.4896  -40.3586 N.am      9 UNK        -0.4200 
     55 CA         20.9026  -34.2531  -41.5390 C.3       9 UNK         0.0839 
     56 C          19.9635  -35.4502  -41.2079 C.2       9 UNK         0.5513 
     57 N          19.4602  -35.5901  -39.9869 N.am      9 UNK        -0.7519 
     58 O          19.6928  -36.2745  -42.0773 O.2       9 UNK        -0.4960 
     59 C59        20.2718  -33.3382  -42.6213 C.3       10 UNK        -0.0876 
     60 S60        21.4602  -32.1287  -43.2974 S.3       10 UNK        -0.2414 
     61 C61        20.7628  -30.5498  -42.7292 C.3       10 UNK         0.0169 
     62 H62        14.1815  -23.7608  -45.6491 H         1 UNK         0.0903 
     63 H63        14.0849  -23.4445  -43.9157 H         1 UNK         0.0903 
     64 H64        15.3274  -22.6537  -44.8880 H         1 UNK         0.0903 
     65 H65        14.9398  -25.1056  -42.6765 H         1 UNK         0.3096 
     66 H66        16.7096  -27.0844  -43.8463 H         1 UNK         0.1121 
     67 H67        16.5502  -28.0064  -41.3238 H         1 UNK         0.0849 
     68 H68        15.2663  -26.8473  -41.1711 H         1 UNK         0.0849 
     69 H69        15.1423  -30.9019  -43.2851 H         1 UNK         0.0865 
     70 H70        15.8455  -30.4747  -41.7486 H         1 UNK         0.0865 
     71 H71        18.2022  -30.6272  -41.7796 H         1 UNK         0.1346 
     72 H72        20.4788  -29.6959  -45.2767 H         1 UNK         0.1412 
     73 H73        16.2055  -29.2760  -45.3242 H         1 UNK         0.1426 
     74 H74        17.5894  -28.1299  -47.0507 H         1 UNK         0.0716 
     75 H75        18.0716  -29.7336  -47.5388 H         1 UNK         0.0716 
     76 H76        18.9346  -26.1937  -46.7383 H         1 UNK         0.0695 
     77 H77        20.1903  -25.9047  -47.8952 H         1 UNK         0.0695 
     78 H78        20.9497  -25.0179  -45.8179 H         1 UNK         0.0983 
     79 H79        19.6378  -27.1671  -44.5806 H         1 UNK         0.3095 
     80 H80        20.6598  -27.7858  -42.0028 H         1 UNK         0.0454 
     81 H81        20.0498  -26.4509  -39.9699 H         1 UNK         0.0851 
     82 H82        20.2852  -24.9650  -40.8907 H         1 UNK         0.0851 
     83 H83        21.6352  -26.0460  -40.6049 H         1 UNK         0.0851 
     84 H84        18.5225  -27.9219  -42.4955 H         1 UNK         0.2976 
     85 H85        22.1394  -28.1634  -44.9966 H         1 UNK         0.3116 
     86 H86        24.6017  -27.9860  -46.5897 H         1 UNK         0.0646 
     87 H87        25.0292  -30.2253  -45.6184 H         1 UNK         0.0847 
     88 H88        23.4013  -30.1695  -46.2665 H         1 UNK         0.0847 
     89 H89        23.6632  -30.0588  -44.5264 H         1 UNK         0.0847 
     90 H90        23.6691  -26.3819  -43.8832 H         1 UNK         0.3040 
     91 H91        24.5752  -25.2519  -42.2668 H         1 UNK         0.1015 
     92 H92        26.3536  -24.6058  -43.8875 H         1 UNK         0.0786 
     93 H93        27.3404  -25.9738  -43.3727 H         1 UNK         0.0786 
     94 H94        26.9741  -24.6789  -42.2464 H         1 UNK         0.0786 
     95 H95        25.8378  -28.4989  -42.5414 H         1 UNK         0.3172 
     96 H96        26.8623  -28.8648  -39.9369 H         1 UNK         0.0595 
     97 H97        25.6278  -30.9178  -41.8574 H         1 UNK         0.0839 
     98 H98        26.6534  -31.2988  -40.4810 H         1 UNK         0.0839 
     99 H99        27.3147  -30.4029  -41.8376 H         1 UNK         0.0839 
    100 H100       23.5666  -28.8272  -40.9944 H         1 UNK         0.2998 
    101 H101       21.5771  -28.8800  -40.0662 H         1 UNK         0.0822 
    102 H102       22.9546  -28.6611  -37.3442 H         1 UNK         0.0787 
    103 H103       22.5197  -27.3096  -38.3889 H         1 UNK         0.0787 
    104 H104       21.2661  -28.3202  -37.6866 H         1 UNK         0.0787 
    105 H105       23.7372  -31.2370  -38.5795 H         1 UNK         0.3055 
    106 H106       21.6474  -33.0329  -37.6651 H         1 UNK         0.1106 
    107 H107       23.8507  -32.8460  -36.5267 H         1 UNK         0.0828 
    108 H108       23.5746  -34.4885  -37.0780 H         1 UNK         0.0828 
    109 H109       24.6693  -33.4398  -37.9708 H         1 UNK         0.0828 
    110 H110       20.8430  -32.6341  -40.1463 H         1 UNK         0.2931 
    111 H111       21.7921  -34.7020  -41.9857 H         1 UNK         0.0412 
    112 H112       18.8577  -36.3738  -39.7884 H         1 UNK         0.3472 
    113 H113       19.6702  -34.9201  -39.2649 H         1 UNK         0.3472 
    114 H114       19.9143  -33.9316  -43.4651 H         1 UNK         0.0970 
    115 H115       19.3932  -32.8299  -42.2230 H         1 UNK         0.0970 
    116 H116       20.5956  -30.5957  -41.6551 H         1 UNK         0.0612 
    117 H117       21.5080  -29.7715  -42.8942 H         1 UNK         0.0612 
@<TRIPOS>BOND
     1    1    2 1    
     2    1   62 1    
     3    1   63 1    
     4    1   64 1    
     5    2    3 2    
     6    2    4 am   BACKBONE|DICT|INTERRES
     7    4    5 1    
     8    4   65 1    
     9    5    6 1    
    10    5   25 1    
    11    5   66 1    
    12    6    7 1    
    13    6   67 1    
    14    6   68 1    
    15    7    8 1    
    16    8    9 1    
    17    8   69 1    
    18    8   70 1    
    19    9   10 ar   
    20    9   14 ar   
    21   10   11 ar   
    22   10   71 1    
    23   11   12 ar   
    24   11   61 1    
    25   12   13 ar   
    26   12   72 1    
    27   13   14 ar   
    28   13   15 1    
    29   14   73 1    
    30   15   16 1    
    31   15   74 1    
    32   15   75 1    
    33   16   17 1    
    34   17   18 1    
    35   17   76 1    
    36   17   77 1    
    37   18   19 1    
    38   18   27 1    
    39   18   78 1    
    40   19   20 am   BACKBONE|DICT|INTERRES
    41   19   79 1    
    42   20   21 2    
    43   20   22 1    
    44   22   23 1    
    45   22   24 1    
    46   22   80 1    
    47   23   81 1    
    48   23   82 1    
    49   23   83 1    
    50   24   25 am   BACKBONE|DICT|INTERRES
    51   24   84 1    
    52   25   26 2    
    53   27   28 2    
    54   27   29 am   BACKBONE|DICT|INTERRES
    55   29   30 1    
    56   29   85 1    
    57   30   31 1    
    58   30   32 1    
    59   30   86 1    
    60   31   87 1    
    61   31   88 1    
    62   31   89 1    
    63   32   33 2    
    64   32   34 am   BACKBONE|DICT|INTERRES
    65   34   35 1    
    66   34   90 1    
    67   35   36 1    
    68   35   37 1    
    69   35   91 1    
    70   36   92 1    
    71   36   93 1    
    72   36   94 1    
    73   37   38 2    
    74   37   39 am   BACKBONE|DICT|INTERRES
    75   39   40 1    
    76   39   95 1    
    77   40   41 1    
    78   40   42 1    
    79   40   96 1    
    80   41   97 1    
    81   41   98 1    
    82   41   99 1    
    83   42   43 2    
    84   42   44 am   BACKBONE|DICT|INTERRES
    85   44   45 1    
    86   44  100 1    
    87   45   46 1    
    88   45   47 1    
    89   45  101 1    
    90   46  102 1    
    91   46  103 1    
    92   46  104 1    
    93   47   48 2    
    94   47   49 am   BACKBONE|DICT|INTERRES
    95   49   50 1    
    96   49  105 1    
    97   50   51 1    
    98   50   52 1    
    99   50  106 1    
   100   51  107 1    
   101   51  108 1    
   102   51  109 1    
   103   52   53 2    
   104   52   54 am   BACKBONE|DICT|INTERRES
   105   54   55 1    
   106   54  110 1    
   107   55   56 1    
   108   55   59 1    
   109   55  111 1    
   110   56   57 am   BACKBONE|DICT|INTERRES
   111   56   58 2    
   112   57  112 1    
   113   57  113 1    
   114   59   60 1    
   115   59  114 1    
   116   59  115 1    
   117   60   61 1    
   118   61  116 1    
   119   61  117 1    
@<TRIPOS>SUBSTRUCTURE
     1 UNK         1 GROUP             0       ****    0 ROOT    
