@<TRIPOS>MOLECULE
3R8
117   119    1
SMALL
USER_CHARGES


@<TRIPOS>ATOM
      1 CA         19.0015  -24.9018  -50.4013 C.3       0 UNK        -0.2013 
      2 C          19.6167  -24.9359  -49.0105 C.2       0 UNK         0.4866 
      3 O          20.2825  -23.9803  -48.6116 O.2       0 UNK        -0.5176 
      4 N          19.4014  -26.0311  -48.2702 N.am      1 UNK        -0.4884 
      5 CA         19.8844  -26.2305  -46.8974 C.3       1 UNK         0.0853 
      6 C6         19.8177  -27.7204  -46.4659 C.3       10 UNK        -0.0849 
      7 S7         18.1858  -28.4954  -46.7462 S.3       10 UNK        -0.2776 
      8 C8         18.4238  -30.1350  -45.9899 C.3       10 UNK         0.0316 
      9 C9         18.1685  -30.1077  -44.4902 C.ar      10 UNK        -0.0863 
     10 C10        19.2185  -30.2660  -43.5809 C.ar      10 UNK        -0.1009 
     11 C11        18.9706  -30.2684  -42.2033 C.ar      10 UNK        -0.0712 
     12 C12        17.6648  -30.0804  -41.7380 C.ar      10 UNK        -0.0894 
     13 C13        16.6136  -29.8805  -42.6393 C.ar      10 UNK        -0.0745 
     14 C14        16.8681  -29.9261  -44.0126 C.ar      10 UNK        -0.0972 
     15 C15        15.2170  -29.5402  -42.1396 C.3       10 UNK         0.0209 
     16 S16        14.7583  -27.8225  -42.5633 S.3       10 UNK        -0.2568 
     17 C17        15.9334  -26.8479  -41.5590 C.3       10 UNK        -0.0983 
     18 CA         17.2821  -26.5721  -42.2829 C.3       3 UNK         0.0876 
     19 N          17.1478  -25.9147  -43.5845 N.am      3 UNK        -0.4424 
     20 C          16.8470  -24.6334  -43.8273 C.2       2 UNK         0.4918 
     21 O          16.4919  -23.8353  -42.9588 O.2       2 UNK        -0.4875 
     22 CA         17.0062  -24.1603  -45.2915 C.3       2 UNK         0.0481 
     23 CB         17.4539  -22.6864  -45.3733 C.3       2 UNK        -0.1831 
     24 N          17.8943  -25.0022  -46.1141 N.am      2 UNK        -0.4498 
     25 C          19.1790  -25.3196  -45.8721 C.2       1 UNK         0.5027 
     26 O          19.7978  -24.9548  -44.8723 O.2       1 UNK        -0.4969 
     27 C          18.3540  -25.9306  -41.3711 C.2       3 UNK         0.5005 
     28 O          18.2110  -25.9526  -40.1462 O.2       3 UNK        -0.5279 
     29 N          19.4321  -25.4014  -41.9714 N.am      4 UNK        -0.4463 
     30 CA         20.6492  -24.9981  -41.2644 C.3       4 UNK         0.0283 
     31 CB         21.5272  -24.1540  -42.2014 C.3       4 UNK        -0.1875 
     32 C          21.4221  -26.2334  -40.7703 C.2       4 UNK         0.4949 
     33 O          21.3737  -27.2847  -41.4136 O.2       4 UNK        -0.5039 
     34 N          22.1234  -26.0829  -39.6409 N.am      5 UNK        -0.4663 
     35 CA         22.9082  -27.1470  -39.0119 C.3       5 UNK         0.0242 
     36 CB         23.3395  -26.6933  -37.6076 C.3       5 UNK        -0.1982 
     37 C          24.1353  -27.5452  -39.8505 C.2       5 UNK         0.5017 
     38 O          24.8095  -26.6742  -40.4055 O.2       5 UNK        -0.5012 
     39 N          24.4180  -28.8495  -39.8824 N.am      6 UNK        -0.4439 
     40 CA         25.5633  -29.4829  -40.5264 C.3       6 UNK         0.0297 
     41 CB         25.3635  -29.5391  -42.0531 C.3       6 UNK        -0.2006 
     42 C          25.7009  -30.8878  -39.9291 C.2       6 UNK         0.4892 
     43 O          24.7241  -31.4048  -39.3765 O.2       6 UNK        -0.5089 
     44 N          26.8970  -31.4797  -40.0523 N.am      7 UNK        -0.4243 
     45 CA         27.2436  -32.8150  -39.5519 C.3       7 UNK         0.0196 
     46 CB         28.7248  -33.1015  -39.8526 C.3       7 UNK        -0.2007 
     47 C          26.3335  -33.9011  -40.1500 C.2       7 UNK         0.5020 
     48 O          26.4519  -34.2051  -41.3385 O.2       7 UNK        -0.5147 
     49 N          25.3954  -34.4005  -39.3308 N.am      8 UNK        -0.4734 
     50 CA         24.3083  -35.3278  -39.6843 C.3       8 UNK         0.0238 
     51 CB         24.8763  -36.7315  -39.9854 C.3       8 UNK        -0.1912 
     52 C          23.3926  -34.8059  -40.8149 C.2       8 UNK         0.5038 
     53 O          22.8199  -35.6100  -41.5527 O.2       8 UNK        -0.5046 
     54 N          23.2967  -33.4740  -40.9450 N.am      9 UNK        -0.4200 
     55 CA         22.6560  -32.7499  -42.0550 C.3       9 UNK         0.0839 
     56 C          23.3331  -32.9624  -43.4450 C.2       9 UNK         0.5513 
     57 N          24.5725  -33.4348  -43.5190 N.am      9 UNK        -0.7519 
     58 O          22.7437  -32.6561  -44.4782 O.2       9 UNK        -0.4960 
     59 C59        21.1094  -32.9207  -42.0874 C.3       10 UNK        -0.0876 
     60 S60        20.3074  -32.1490  -40.6414 S.3       10 UNK        -0.2414 
     61 C61        20.1157  -30.4282  -41.2123 C.3       10 UNK         0.0169 
     62 H62        18.4449  -25.8120  -50.6240 H         1 UNK         0.0903 
     63 H63        18.3189  -24.0569  -50.4887 H         1 UNK         0.0903 
     64 H64        19.7816  -24.7891  -51.1538 H         1 UNK         0.0903 
     65 H65        18.8508  -26.7922  -48.6449 H         1 UNK         0.3096 
     66 H66        20.9365  -25.9358  -46.8802 H         1 UNK         0.1121 
     67 H67        20.5569  -28.2894  -47.0321 H         1 UNK         0.0849 
     68 H68        20.0990  -27.8372  -45.4167 H         1 UNK         0.0849 
     69 H69        19.4250  -30.5070  -46.2143 H         1 UNK         0.0865 
     70 H70        17.7297  -30.8380  -46.4528 H         1 UNK         0.0865 
     71 H71        20.2293  -30.3910  -43.9450 H         1 UNK         0.1346 
     72 H72        17.4765  -30.0497  -40.6734 H         1 UNK         0.1412 
     73 H73        16.0570  -29.7743  -44.7124 H         1 UNK         0.1426 
     74 H74        15.1384  -29.6824  -41.0606 H         1 UNK         0.0716 
     75 H75        14.4973  -30.2223  -42.5943 H         1 UNK         0.0716 
     76 H76        16.0972  -27.3831  -40.6220 H         1 UNK         0.0695 
     77 H77        15.4534  -25.9059  -41.2897 H         1 UNK         0.0695 
     78 H78        17.7291  -27.5307  -42.5282 H         1 UNK         0.0983 
     79 H79        17.3961  -26.4859  -44.3793 H         1 UNK         0.3095 
     80 H80        16.0155  -24.2330  -45.7420 H         1 UNK         0.0454 
     81 H81        17.5485  -22.3568  -46.4079 H         1 UNK         0.0851 
     82 H82        18.4153  -22.5298  -44.8828 H         1 UNK         0.0851 
     83 H83        16.7314  -22.0271  -44.8907 H         1 UNK         0.0851 
     84 H84        17.4809  -25.3837  -46.9540 H         1 UNK         0.2976 
     85 H85        19.4853  -25.4003  -42.9861 H         1 UNK         0.3116 
     86 H86        20.3645  -24.3861  -40.4059 H         1 UNK         0.0646 
     87 H87        22.4143  -23.7885  -41.6827 H         1 UNK         0.0847 
     88 H88        20.9877  -23.2843  -42.5769 H         1 UNK         0.0847 
     89 H89        21.8692  -24.7320  -43.0611 H         1 UNK         0.0847 
     90 H90        22.1451  -25.1777  -39.1937 H         1 UNK         0.3040 
     91 H91        22.2576  -28.0189  -38.9079 H         1 UNK         0.1015 
     92 H92        22.4775  -26.4597  -36.9822 H         1 UNK         0.0786 
     93 H93        23.9767  -25.8086  -37.6474 H         1 UNK         0.0786 
     94 H94        23.9031  -27.4772  -37.0995 H         1 UNK         0.0786 
     95 H95        23.8469  -29.5075  -39.3633 H         1 UNK         0.3172 
     96 H96        26.4653  -28.9144  -40.2905 H         1 UNK         0.0595 
     97 H97        24.4380  -30.0472  -42.3219 H         1 UNK         0.0839 
     98 H98        26.1815  -30.0706  -42.5409 H         1 UNK         0.0839 
     99 H99        25.3280  -28.5390  -42.4854 H         1 UNK         0.0839 
    100 H100       27.6275  -30.9867  -40.5454 H         1 UNK         0.2998 
    101 H101       27.1168  -32.8069  -38.4672 H         1 UNK         0.0822 
    102 H102       28.9339  -33.0728  -40.9230 H         1 UNK         0.0787 
    103 H103       29.3774  -32.3782  -39.3633 H         1 UNK         0.0787 
    104 H104       29.0109  -34.0905  -39.4919 H         1 UNK         0.0787 
    105 H105       25.3577  -34.0357  -38.3879 H         1 UNK         0.3055 
    106 H106       23.6712  -35.4102  -38.8021 H         1 UNK         0.1106 
    107 H107       24.0754  -37.4605  -40.1143 H         1 UNK         0.0828 
    108 H108       25.4717  -36.7388  -40.8991 H         1 UNK         0.0828 
    109 H109       25.5069  -37.0881  -39.1711 H         1 UNK         0.0828 
    110 H110       23.8049  -32.8900  -40.2879 H         1 UNK         0.2931 
    111 H111       22.8509  -31.6999  -41.8401 H         1 UNK         0.0412 
    112 H112       25.0939  -33.6910  -42.6865 H         1 UNK         0.3472 
    113 H113       24.9961  -33.5520  -44.4254 H         1 UNK         0.3472 
    114 H114       20.6777  -32.4916  -42.9902 H         1 UNK         0.0970 
    115 H115       20.8370  -33.9761  -42.1169 H         1 UNK         0.0970 
    116 H116       19.9366  -29.7902  -40.3454 H         1 UNK         0.0612 
    117 H117       21.0518  -30.0785  -41.6501 H         1 UNK         0.0612 
@<TRIPOS>BOND
     1    1    2 1    
     2    1   62 1    
     3    1   63 1    
     4    1   64 1    
     5    2    3 2    
     6    2    4 am   BACKBONE|DICT|INTERRES
     7    4    5 1    
     8    4   65 1    
     9    5    6 1    
    10    5   25 1    
    11    5   66 1    
    12    6    7 1    
    13    6   67 1    
    14    6   68 1    
    15    7    8 1    
    16    8    9 1    
    17    8   69 1    
    18    8   70 1    
    19    9   10 ar   
    20    9   14 ar   
    21   10   11 ar   
    22   10   71 1    
    23   11   12 ar   
    24   11   61 1    
    25   12   13 ar   
    26   12   72 1    
    27   13   14 ar   
    28   13   15 1    
    29   14   73 1    
    30   15   16 1    
    31   15   74 1    
    32   15   75 1    
    33   16   17 1    
    34   17   18 1    
    35   17   76 1    
    36   17   77 1    
    37   18   19 1    
    38   18   27 1    
    39   18   78 1    
    40   19   20 am   BACKBONE|DICT|INTERRES
    41   19   79 1    
    42   20   21 2    
    43   20   22 1    
    44   22   23 1    
    45   22   24 1    
    46   22   80 1    
    47   23   81 1    
    48   23   82 1    
    49   23   83 1    
    50   24   25 am   BACKBONE|DICT|INTERRES
    51   24   84 1    
    52   25   26 2    
    53   27   28 2    
    54   27   29 am   BACKBONE|DICT|INTERRES
    55   29   30 1    
    56   29   85 1    
    57   30   31 1    
    58   30   32 1    
    59   30   86 1    
    60   31   87 1    
    61   31   88 1    
    62   31   89 1    
    63   32   33 2    
    64   32   34 am   BACKBONE|DICT|INTERRES
    65   34   35 1    
    66   34   90 1    
    67   35   36 1    
    68   35   37 1    
    69   35   91 1    
    70   36   92 1    
    71   36   93 1    
    72   36   94 1    
    73   37   38 2    
    74   37   39 am   BACKBONE|DICT|INTERRES
    75   39   40 1    
    76   39   95 1    
    77   40   41 1    
    78   40   42 1    
    79   40   96 1    
    80   41   97 1    
    81   41   98 1    
    82   41   99 1    
    83   42   43 2    
    84   42   44 am   BACKBONE|DICT|INTERRES
    85   44   45 1    
    86   44  100 1    
    87   45   46 1    
    88   45   47 1    
    89   45  101 1    
    90   46  102 1    
    91   46  103 1    
    92   46  104 1    
    93   47   48 2    
    94   47   49 am   BACKBONE|DICT|INTERRES
    95   49   50 1    
    96   49  105 1    
    97   50   51 1    
    98   50   52 1    
    99   50  106 1    
   100   51  107 1    
   101   51  108 1    
   102   51  109 1    
   103   52   53 2    
   104   52   54 am   BACKBONE|DICT|INTERRES
   105   54   55 1    
   106   54  110 1    
   107   55   56 1    
   108   55   59 1    
   109   55  111 1    
   110   56   57 am   BACKBONE|DICT|INTERRES
   111   56   58 2    
   112   57  112 1    
   113   57  113 1    
   114   59   60 1    
   115   59  114 1    
   116   59  115 1    
   117   60   61 1    
   118   61  116 1    
   119   61  117 1    
@<TRIPOS>SUBSTRUCTURE
     1 UNK         1 GROUP             0       ****    0 ROOT    
