@<TRIPOS>MOLECULE
3R8
117   119    1
SMALL
USER_CHARGES


@<TRIPOS>ATOM
      1 CA         20.9696  -29.3860  -43.3941 C.3       0 UNK        -0.2013 
      2 C          20.5378  -27.9742  -43.0490 C.2       0 UNK         0.4866 
      3 O          21.3535  -27.0565  -43.1151 O.2       0 UNK        -0.5176 
      4 N          19.2512  -27.8036  -42.7170 N.am      1 UNK        -0.4884 
      5 CA         18.6127  -26.6098  -42.1371 C.3       1 UNK         0.0853 
      6 C6         17.0787  -26.7849  -42.0356 C.3       10 UNK        -0.0849 
      7 S7         16.6019  -28.3261  -41.1787 S.3       10 UNK        -0.2776 
      8 C8         15.7301  -29.2372  -42.4950 C.3       10 UNK         0.0316 
      9 C9         16.6789  -29.8996  -43.4877 C.ar      10 UNK        -0.0863 
     10 C10        17.3356  -31.0836  -43.1377 C.ar      10 UNK        -0.1009 
     11 C11        18.1373  -31.7550  -44.0662 C.ar      10 UNK        -0.0712 
     12 C12        18.2906  -31.2260  -45.3518 C.ar      10 UNK        -0.0894 
     13 C13        17.6520  -30.0350  -45.7124 C.ar      10 UNK        -0.0745 
     14 C14        16.8473  -29.3760  -44.7750 C.ar      10 UNK        -0.0972 
     15 C15        17.7722  -29.5048  -47.1370 C.3       10 UNK         0.0209 
     16 S16        18.6247  -27.8992  -47.2369 S.3       10 UNK        -0.2568 
     17 C17        20.3696  -28.3702  -46.9725 C.3       10 UNK        -0.0983 
     18 CA         21.3338  -27.1514  -46.8830 C.3       3 UNK         0.0876 
     19 N          20.8738  -26.1677  -45.8975 N.am      3 UNK        -0.4424 
     20 C          20.3343  -24.9759  -46.1857 C.2       2 UNK         0.4918 
     21 O          20.3587  -24.4594  -47.3038 O.2       2 UNK        -0.4875 
     22 CA         19.5800  -24.2866  -45.0347 C.3       2 UNK         0.0481 
     23 CB         18.4813  -23.3248  -45.5239 C.3       2 UNK        -0.1831 
     24 N          18.9930  -25.3137  -44.1735 N.am      2 UNK        -0.4498 
     25 C          18.9555  -25.2793  -42.8384 C.2       1 UNK         0.5027 
     26 O          19.2144  -24.2810  -42.1649 O.2       1 UNK        -0.4969 
     27 C          22.7756  -27.6165  -46.5884 C.2       3 UNK         0.5005 
     28 O          23.3950  -28.2281  -47.4604 O.2       3 UNK        -0.5279 
     29 N          23.2908  -27.3355  -45.3840 N.am      4 UNK        -0.4463 
     30 CA         24.6252  -27.6891  -44.9084 C.3       4 UNK         0.0283 
     31 CB         24.6341  -29.1439  -44.3921 C.3       4 UNK        -0.1875 
     32 C          25.0433  -26.6795  -43.8274 C.2       4 UNK         0.4949 
     33 O          24.3880  -25.6481  -43.6605 O.2       4 UNK        -0.5039 
     34 N          26.1343  -26.9850  -43.1133 N.am      5 UNK        -0.4663 
     35 CA         26.6850  -26.1536  -42.0371 C.3       5 UNK         0.0242 
     36 CB         28.1059  -26.6402  -41.7073 C.3       5 UNK        -0.1982 
     37 C          25.8224  -26.1169  -40.7605 C.2       5 UNK         0.5017 
     38 O          25.9587  -25.1751  -39.9784 O.2       5 UNK        -0.5012 
     39 N          24.9682  -27.1276  -40.5611 N.am      6 UNK        -0.4439 
     40 CA         24.0591  -27.2627  -39.4272 C.3       6 UNK         0.0297 
     41 CB         24.8191  -27.8062  -38.2020 C.3       6 UNK        -0.2006 
     42 C          22.9083  -28.1974  -39.8166 C.2       6 UNK         0.4892 
     43 O          23.0649  -29.0073  -40.7336 O.2       6 UNK        -0.5089 
     44 N          21.7885  -28.0721  -39.0935 N.am      7 UNK        -0.4243 
     45 CA         20.5935  -28.9111  -39.2158 C.3       7 UNK         0.0196 
     46 CB         19.4319  -28.2051  -38.4925 C.3       7 UNK        -0.2007 
     47 C          20.8020  -30.3286  -38.6474 C.2       7 UNK         0.5020 
     48 O          21.8034  -30.5841  -37.9752 O.2       7 UNK        -0.5147 
     49 N          19.8131  -31.2021  -38.8952 N.am      8 UNK        -0.4734 
     50 CA         19.7333  -32.6083  -38.4715 C.3       8 UNK         0.0238 
     51 CB         19.7004  -32.7318  -36.9319 C.3       8 UNK        -0.1912 
     52 C          20.8372  -33.4614  -39.1221 C.2       8 UNK         0.5038 
     53 O          21.7854  -33.8724  -38.4501 O.2       8 UNK        -0.5046 
     54 N          20.6886  -33.6730  -40.4362 N.am      9 UNK        -0.4200 
     55 CA         21.5931  -34.4307  -41.3160 C.3       9 UNK         0.0839 
     56 C          21.9086  -35.8650  -40.8072 C.2       9 UNK         0.5513 
     57 N          23.1513  -36.3100  -40.9318 N.am      9 UNK        -0.7519 
     58 O          21.0257  -36.5898  -40.3526 O.2       9 UNK        -0.4960 
     59 C59        21.0446  -34.5013  -42.7671 C.3       10 UNK        -0.0876 
     60 S60        20.6026  -32.8684  -43.4534 S.3       10 UNK        -0.2414 
     61 C61        18.8097  -33.0683  -43.6931 C.3       10 UNK         0.0169 
     62 H62        21.7603  -29.3842  -44.1404 H         1 UNK         0.0903 
     63 H63        21.3406  -29.8994  -42.5083 H         1 UNK         0.0903 
     64 H64        20.1385  -29.9565  -43.7951 H         1 UNK         0.0903 
     65 H65        18.6394  -28.6096  -42.7456 H         1 UNK         0.3096 
     66 H66        19.0080  -26.5243  -41.1238 H         1 UNK         0.1121 
     67 H67        16.6238  -26.7630  -43.0276 H         1 UNK         0.0849 
     68 H68        16.6385  -25.9509  -41.4851 H         1 UNK         0.0849 
     69 H69        15.0321  -28.5719  -43.0057 H         1 UNK         0.0865 
     70 H70        15.1136  -30.0077  -42.0294 H         1 UNK         0.0865 
     71 H71        17.1978  -31.4961  -42.1474 H         1 UNK         0.1346 
     72 H72        18.9020  -31.7513  -46.0729 H         1 UNK         0.1412 
     73 H73        16.3305  -28.4703  -45.0621 H         1 UNK         0.1426 
     74 H74        16.7694  -29.3894  -47.5505 H         1 UNK         0.0716 
     75 H75        18.2837  -30.2213  -47.7815 H         1 UNK         0.0716 
     76 H76        20.6691  -29.0278  -47.7908 H         1 UNK         0.0695 
     77 H77        20.4191  -28.9731  -46.0673 H         1 UNK         0.0695 
     78 H78        21.3706  -26.6849  -47.8699 H         1 UNK         0.0983 
     79 H79        20.8709  -26.4680  -44.9280 H         1 UNK         0.3095 
     80 H80        20.3232  -23.7153  -44.4748 H         1 UNK         0.0454 
     81 H81        17.7354  -23.8429  -46.1278 H         1 UNK         0.0851 
     82 H82        18.9021  -22.5261  -46.1358 H         1 UNK         0.0851 
     83 H83        17.9668  -22.8526  -44.6871 H         1 UNK         0.0851 
     84 H84        18.7437  -26.1790  -44.6347 H         1 UNK         0.2976 
     85 H85        22.7573  -26.7886  -44.7154 H         1 UNK         0.3116 
     86 H86        25.3328  -27.5942  -45.7346 H         1 UNK         0.0646 
     87 H87        25.6473  -29.4866  -44.1823 H         1 UNK         0.0847 
     88 H88        24.2177  -29.8325  -45.1273 H         1 UNK         0.0847 
     89 H89        24.0565  -29.2484  -43.4727 H         1 UNK         0.0847 
     90 H90        26.6252  -27.8439  -43.3175 H         1 UNK         0.3040 
     91 H91        26.7531  -25.1273  -42.4051 H         1 UNK         0.1015 
     92 H92        28.7566  -26.5892  -42.5805 H         1 UNK         0.0786 
     93 H93        28.1068  -27.6689  -41.3451 H         1 UNK         0.0786 
     94 H94        28.5602  -26.0221  -40.9316 H         1 UNK         0.0786 
     95 H95        24.8642  -27.8455  -41.2675 H         1 UNK         0.3172 
     96 H96        23.6380  -26.2827  -39.1920 H         1 UNK         0.0595 
     97 H97        25.2677  -28.7786  -38.4093 H         1 UNK         0.0839 
     98 H98        24.1522  -27.9317  -37.3481 H         1 UNK         0.0839 
     99 H99        25.6150  -27.1292  -37.8916 H         1 UNK         0.0839 
    100 H100       21.7840  -27.4059  -38.3350 H         1 UNK         0.2998 
    101 H101       20.3470  -29.0047  -40.2741 H         1 UNK         0.0822 
    102 H102       19.2900  -27.1882  -38.8573 H         1 UNK         0.0787 
    103 H103       18.4891  -28.7317  -38.6448 H         1 UNK         0.0787 
    104 H104       19.6027  -28.1506  -37.4164 H         1 UNK         0.0787 
    105 H105       19.0320  -30.8765  -39.4481 H         1 UNK         0.3055 
    106 H106       18.7804  -32.9940  -38.8390 H         1 UNK         0.1106 
    107 H107       19.5518  -33.7695  -36.6310 H         1 UNK         0.0828 
    108 H108       20.6284  -32.3945  -36.4696 H         1 UNK         0.0828 
    109 H109       18.8835  -32.1503  -36.5049 H         1 UNK         0.0828 
    110 H110       19.8904  -33.2674  -40.8990 H         1 UNK         0.2931 
    111 H111       22.5284  -33.8677  -41.3388 H         1 UNK         0.0412 
    112 H112       23.8785  -35.7257  -41.3153 H         1 UNK         0.3472 
    113 H113       23.3711  -37.2448  -40.6242 H         1 UNK         0.3472 
    114 H114       21.7925  -34.9438  -43.4280 H         1 UNK         0.0970 
    115 H115       20.1777  -35.1636  -42.8166 H         1 UNK         0.0970 
    116 H116       18.3660  -33.4744  -42.7829 H         1 UNK         0.0612 
    117 H117       18.6328  -33.8046  -44.4783 H         1 UNK         0.0612 
@<TRIPOS>BOND
     1    1    2 1    
     2    1   62 1    
     3    1   63 1    
     4    1   64 1    
     5    2    3 2    
     6    2    4 am   BACKBONE|DICT|INTERRES
     7    4    5 1    
     8    4   65 1    
     9    5    6 1    
    10    5   25 1    
    11    5   66 1    
    12    6    7 1    
    13    6   67 1    
    14    6   68 1    
    15    7    8 1    
    16    8    9 1    
    17    8   69 1    
    18    8   70 1    
    19    9   10 ar   
    20    9   14 ar   
    21   10   11 ar   
    22   10   71 1    
    23   11   12 ar   
    24   11   61 1    
    25   12   13 ar   
    26   12   72 1    
    27   13   14 ar   
    28   13   15 1    
    29   14   73 1    
    30   15   16 1    
    31   15   74 1    
    32   15   75 1    
    33   16   17 1    
    34   17   18 1    
    35   17   76 1    
    36   17   77 1    
    37   18   19 1    
    38   18   27 1    
    39   18   78 1    
    40   19   20 am   BACKBONE|DICT|INTERRES
    41   19   79 1    
    42   20   21 2    
    43   20   22 1    
    44   22   23 1    
    45   22   24 1    
    46   22   80 1    
    47   23   81 1    
    48   23   82 1    
    49   23   83 1    
    50   24   25 am   BACKBONE|DICT|INTERRES
    51   24   84 1    
    52   25   26 2    
    53   27   28 2    
    54   27   29 am   BACKBONE|DICT|INTERRES
    55   29   30 1    
    56   29   85 1    
    57   30   31 1    
    58   30   32 1    
    59   30   86 1    
    60   31   87 1    
    61   31   88 1    
    62   31   89 1    
    63   32   33 2    
    64   32   34 am   BACKBONE|DICT|INTERRES
    65   34   35 1    
    66   34   90 1    
    67   35   36 1    
    68   35   37 1    
    69   35   91 1    
    70   36   92 1    
    71   36   93 1    
    72   36   94 1    
    73   37   38 2    
    74   37   39 am   BACKBONE|DICT|INTERRES
    75   39   40 1    
    76   39   95 1    
    77   40   41 1    
    78   40   42 1    
    79   40   96 1    
    80   41   97 1    
    81   41   98 1    
    82   41   99 1    
    83   42   43 2    
    84   42   44 am   BACKBONE|DICT|INTERRES
    85   44   45 1    
    86   44  100 1    
    87   45   46 1    
    88   45   47 1    
    89   45  101 1    
    90   46  102 1    
    91   46  103 1    
    92   46  104 1    
    93   47   48 2    
    94   47   49 am   BACKBONE|DICT|INTERRES
    95   49   50 1    
    96   49  105 1    
    97   50   51 1    
    98   50   52 1    
    99   50  106 1    
   100   51  107 1    
   101   51  108 1    
   102   51  109 1    
   103   52   53 2    
   104   52   54 am   BACKBONE|DICT|INTERRES
   105   54   55 1    
   106   54  110 1    
   107   55   56 1    
   108   55   59 1    
   109   55  111 1    
   110   56   57 am   BACKBONE|DICT|INTERRES
   111   56   58 2    
   112   57  112 1    
   113   57  113 1    
   114   59   60 1    
   115   59  114 1    
   116   59  115 1    
   117   60   61 1    
   118   61  116 1    
   119   61  117 1    
@<TRIPOS>SUBSTRUCTURE
     1 UNK         1 GROUP             0       ****    0 ROOT    
