@<TRIPOS>MOLECULE
3R8
117   119    1
SMALL
USER_CHARGES


@<TRIPOS>ATOM
      1 CA         18.4961  -22.0696  -42.9536 C.3       0 UNK        -0.2013 
      2 C          18.7527  -23.2097  -43.9280 C.2       0 UNK         0.4866 
      3 O          19.5413  -23.0499  -44.8593 O.2       0 UNK        -0.5176 
      4 N          18.0864  -24.3536  -43.7234 N.am      1 UNK        -0.4884 
      5 CA         18.2592  -25.5753  -44.5168 C.3       1 UNK         0.0853 
      6 C6         16.9536  -26.4180  -44.5508 C.3       10 UNK        -0.0849 
      7 S7         16.7874  -27.3674  -46.1032 S.3       10 UNK        -0.2776 
      8 C8         15.6001  -28.6609  -45.6285 C.3       10 UNK         0.0316 
      9 C9         16.2695  -29.8493  -44.9500 C.ar      10 UNK        -0.0863 
     10 C10        16.8454  -30.8642  -45.7239 C.ar      10 UNK        -0.1009 
     11 C11        17.3848  -32.0039  -45.1175 C.ar      10 UNK        -0.0712 
     12 C12        17.3413  -32.1201  -43.7254 C.ar      10 UNK        -0.0894 
     13 C13        16.7742  -31.1125  -42.9385 C.ar      10 UNK        -0.0745 
     14 C14        16.2483  -29.9736  -43.5564 C.ar      10 UNK        -0.0972 
     15 C15        16.6453  -31.3079  -41.4332 C.3       10 UNK         0.0209 
     16 S16        18.2553  -31.4678  -40.5973 S.3       10 UNK        -0.2568 
     17 C17        18.6411  -29.7528  -40.1185 C.3       10 UNK        -0.0983 
     18 CA         19.9895  -29.2847  -40.7132 C.3       3 UNK         0.0876 
     19 N          19.9004  -29.0123  -42.1506 N.am      3 UNK        -0.4424 
     20 C          20.9565  -29.0003  -42.9725 C.2       2 UNK         0.4918 
     21 O          22.0872  -29.3495  -42.6364 O.2       2 UNK        -0.4875 
     22 CA         20.7344  -28.5349  -44.4207 C.3       2 UNK         0.0481 
     23 CB         20.4836  -29.7484  -45.3156 C.3       2 UNK        -0.1831 
     24 N          19.6374  -27.5889  -44.6256 N.am      2 UNK        -0.4498 
     25 C          19.4853  -26.3931  -44.0470 C.2       1 UNK         0.5027 
     26 O          20.2451  -25.9593  -43.1783 O.2       1 UNK        -0.4969 
     27 C          20.5329  -28.0585  -39.9528 C.2       3 UNK         0.5005 
     28 O          21.4340  -28.2066  -39.1259 O.2       3 UNK        -0.5279 
     29 N          20.0053  -26.8644  -40.2657 N.am      4 UNK        -0.4463 
     30 CA         20.3963  -25.5838  -39.6607 C.3       4 UNK         0.0283 
     31 CB         19.4115  -24.4874  -40.0944 C.3       4 UNK        -0.1875 
     32 C          21.8429  -25.1671  -39.9818 C.2       4 UNK         0.4949 
     33 O          22.4452  -24.4293  -39.2022 O.2       4 UNK        -0.5039 
     34 N          22.3851  -25.6785  -41.0960 N.am      5 UNK        -0.4663 
     35 CA         23.7915  -25.5668  -41.4939 C.3       5 UNK         0.0242 
     36 CB         23.9486  -26.1382  -42.9131 C.3       5 UNK        -0.1982 
     37 C          24.7804  -26.2521  -40.5263 C.2       5 UNK         0.5017 
     38 O          25.9687  -25.9328  -40.5759 O.2       5 UNK        -0.5012 
     39 N          24.2800  -27.1643  -39.6762 N.am      6 UNK        -0.4439 
     40 CA         24.9959  -27.9225  -38.6452 C.3       6 UNK         0.0297 
     41 CB         25.3979  -26.9771  -37.4919 C.3       6 UNK        -0.2006 
     42 C          26.1892  -28.7555  -39.1765 C.2       6 UNK         0.4892 
     43 O          27.3049  -28.5760  -38.6876 O.2       6 UNK        -0.5089 
     44 N          26.0150  -29.6621  -40.1490 N.am      7 UNK        -0.4243 
     45 CA         24.8217  -30.0378  -40.9055 C.3       7 UNK         0.0196 
     46 CB         23.8493  -30.8746  -40.0480 C.3       7 UNK        -0.2007 
     47 C          25.2780  -30.8492  -42.1235 C.2       7 UNK         0.5020 
     48 O          26.3585  -31.4453  -42.0906 O.2       7 UNK        -0.5147 
     49 N          24.4314  -30.8776  -43.1568 N.am      8 UNK        -0.4734 
     50 CA         24.5477  -31.7715  -44.3092 C.3       8 UNK         0.0238 
     51 CB         24.2977  -30.9776  -45.6074 C.3       8 UNK        -0.1912 
     52 C          23.6011  -32.9627  -44.0790 C.2       8 UNK         0.5038 
     53 O          23.8771  -33.7689  -43.1889 O.2       8 UNK        -0.5046 
     54 N          22.5017  -33.0555  -44.8412 N.am      9 UNK        -0.4200 
     55 CA         21.4405  -34.0602  -44.6411 C.3       9 UNK         0.0839 
     56 C          20.5625  -33.8552  -43.3703 C.2       9 UNK         0.5513 
     57 N          20.6692  -32.7402  -42.6573 N.am      9 UNK        -0.7519 
     58 O          19.7746  -34.7318  -43.0251 O.2       9 UNK        -0.4960 
     59 C59        20.5839  -34.2767  -45.9189 C.3       10 UNK        -0.0876 
     60 S60        19.6760  -32.7947  -46.4890 S.3       10 UNK        -0.2414 
     61 C61        17.9621  -33.1330  -45.9639 C.3       10 UNK         0.0169 
     62 H62        19.4232  -21.7892  -42.4536 H         1 UNK         0.0903 
     63 H63        18.1191  -21.1972  -43.4871 H         1 UNK         0.0903 
     64 H64        17.7675  -22.3407  -42.1895 H         1 UNK         0.0903 
     65 H65        17.4647  -24.4279  -42.9320 H         1 UNK         0.3096 
     66 H66        18.4827  -25.2634  -45.5402 H         1 UNK         0.1121 
     67 H67        16.8795  -27.0780  -43.6848 H         1 UNK         0.0849 
     68 H68        16.0821  -25.7629  -44.4981 H         1 UNK         0.0849 
     69 H69        14.8249  -28.2345  -44.9895 H         1 UNK         0.0865 
     70 H70        15.0860  -29.0053  -46.5273 H         1 UNK         0.0865 
     71 H71        16.8568  -30.7770  -46.8019 H         1 UNK         0.1346 
     72 H72        17.7277  -33.0099  -43.2485 H         1 UNK         0.1412 
     73 H73        15.7793  -29.2061  -42.9559 H         1 UNK         0.1426 
     74 H74        16.0797  -32.2239  -41.2568 H         1 UNK         0.0716 
     75 H75        16.0632  -30.5071  -40.9750 H         1 UNK         0.0716 
     76 H76        18.6719  -29.7360  -39.0270 H         1 UNK         0.0695 
     77 H77        17.8323  -29.0801  -40.4087 H         1 UNK         0.0695 
     78 H78        20.7175  -30.0852  -40.5599 H         1 UNK         0.0983 
     79 H79        18.9915  -28.7864  -42.5238 H         1 UNK         0.3095 
     80 H80        21.6558  -28.0479  -44.7461 H         1 UNK         0.0454 
     81 H81        19.4956  -30.1668  -45.1316 H         1 UNK         0.0851 
     82 H82        21.1994  -30.5436  -45.1224 H         1 UNK         0.0851 
     83 H83        20.5507  -29.4924  -46.3730 H         1 UNK         0.0851 
     84 H84        18.9359  -27.8625  -45.3031 H         1 UNK         0.2976 
     85 H85        19.3215  -26.8183  -41.0064 H         1 UNK         0.3116 
     86 H86        20.3238  -25.6962  -38.5768 H         1 UNK         0.0646 
     87 H87        19.4556  -24.3160  -41.1688 H         1 UNK         0.0847 
     88 H88        19.6443  -23.5400  -39.6063 H         1 UNK         0.0847 
     89 H89        18.3850  -24.7426  -39.8314 H         1 UNK         0.0847 
     90 H90        21.7688  -26.1802  -41.7259 H         1 UNK         0.3040 
     91 H91        24.0459  -24.5050  -41.5168 H         1 UNK         0.1015 
     92 H92        23.2906  -25.6325  -43.6206 H         1 UNK         0.0786 
     93 H93        23.7204  -27.2038  -42.9467 H         1 UNK         0.0786 
     94 H94        24.9704  -26.0129  -43.2742 H         1 UNK         0.0786 
     95 H95        23.2843  -27.3550  -39.7245 H         1 UNK         0.3172 
     96 H96        24.2817  -28.6275  -38.2236 H         1 UNK         0.0595 
     97 H97        26.1294  -26.2341  -37.8118 H         1 UNK         0.0839 
     98 H98        25.8395  -27.5340  -36.6644 H         1 UNK         0.0839 
     99 H99        24.5323  -26.4448  -37.0970 H         1 UNK         0.0839 
    100 H100       26.8295  -30.1713  -40.4716 H         1 UNK         0.2998 
    101 H101       24.3217  -29.1470  -41.2812 H         1 UNK         0.0822 
    102 H102       23.3436  -30.2791  -39.2916 H         1 UNK         0.0787 
    103 H103       23.0628  -31.3139  -40.6639 H         1 UNK         0.0787 
    104 H104       24.3616  -31.6964  -39.5466 H         1 UNK         0.0787 
    105 H105       23.5599  -30.3582  -43.0637 H         1 UNK         0.3055 
    106 H106       25.5558  -32.1883  -44.3696 H         1 UNK         0.1106 
    107 H107       24.2745  -31.6330  -46.4793 H         1 UNK         0.0828 
    108 H108       23.3694  -30.4111  -45.5821 H         1 UNK         0.0828 
    109 H109       25.1017  -30.2609  -45.7754 H         1 UNK         0.0828 
    110 H110       22.3329  -32.3696  -45.5612 H         1 UNK         0.2931 
    111 H111       21.9528  -35.0090  -44.4686 H         1 UNK         0.0412 
    112 H112       21.3195  -32.0213  -42.9229 H         1 UNK         0.3472 
    113 H113       20.0734  -32.6144  -41.8530 H         1 UNK         0.3472 
    114 H114       21.2377  -34.5893  -46.7344 H         1 UNK         0.0970 
    115 H115       19.8939  -35.1108  -45.7811 H         1 UNK         0.0970 
    116 H116       17.9093  -34.0711  -45.4101 H         1 UNK         0.0612 
    117 H117       17.3465  -33.2752  -46.8532 H         1 UNK         0.0612 
@<TRIPOS>BOND
     1    1    2 1    
     2    1   62 1    
     3    1   63 1    
     4    1   64 1    
     5    2    3 2    
     6    2    4 am   BACKBONE|DICT|INTERRES
     7    4    5 1    
     8    4   65 1    
     9    5    6 1    
    10    5   25 1    
    11    5   66 1    
    12    6    7 1    
    13    6   67 1    
    14    6   68 1    
    15    7    8 1    
    16    8    9 1    
    17    8   69 1    
    18    8   70 1    
    19    9   10 ar   
    20    9   14 ar   
    21   10   11 ar   
    22   10   71 1    
    23   11   12 ar   
    24   11   61 1    
    25   12   13 ar   
    26   12   72 1    
    27   13   14 ar   
    28   13   15 1    
    29   14   73 1    
    30   15   16 1    
    31   15   74 1    
    32   15   75 1    
    33   16   17 1    
    34   17   18 1    
    35   17   76 1    
    36   17   77 1    
    37   18   19 1    
    38   18   27 1    
    39   18   78 1    
    40   19   20 am   BACKBONE|DICT|INTERRES
    41   19   79 1    
    42   20   21 2    
    43   20   22 1    
    44   22   23 1    
    45   22   24 1    
    46   22   80 1    
    47   23   81 1    
    48   23   82 1    
    49   23   83 1    
    50   24   25 am   BACKBONE|DICT|INTERRES
    51   24   84 1    
    52   25   26 2    
    53   27   28 2    
    54   27   29 am   BACKBONE|DICT|INTERRES
    55   29   30 1    
    56   29   85 1    
    57   30   31 1    
    58   30   32 1    
    59   30   86 1    
    60   31   87 1    
    61   31   88 1    
    62   31   89 1    
    63   32   33 2    
    64   32   34 am   BACKBONE|DICT|INTERRES
    65   34   35 1    
    66   34   90 1    
    67   35   36 1    
    68   35   37 1    
    69   35   91 1    
    70   36   92 1    
    71   36   93 1    
    72   36   94 1    
    73   37   38 2    
    74   37   39 am   BACKBONE|DICT|INTERRES
    75   39   40 1    
    76   39   95 1    
    77   40   41 1    
    78   40   42 1    
    79   40   96 1    
    80   41   97 1    
    81   41   98 1    
    82   41   99 1    
    83   42   43 2    
    84   42   44 am   BACKBONE|DICT|INTERRES
    85   44   45 1    
    86   44  100 1    
    87   45   46 1    
    88   45   47 1    
    89   45  101 1    
    90   46  102 1    
    91   46  103 1    
    92   46  104 1    
    93   47   48 2    
    94   47   49 am   BACKBONE|DICT|INTERRES
    95   49   50 1    
    96   49  105 1    
    97   50   51 1    
    98   50   52 1    
    99   50  106 1    
   100   51  107 1    
   101   51  108 1    
   102   51  109 1    
   103   52   53 2    
   104   52   54 am   BACKBONE|DICT|INTERRES
   105   54   55 1    
   106   54  110 1    
   107   55   56 1    
   108   55   59 1    
   109   55  111 1    
   110   56   57 am   BACKBONE|DICT|INTERRES
   111   56   58 2    
   112   57  112 1    
   113   57  113 1    
   114   59   60 1    
   115   59  114 1    
   116   59  115 1    
   117   60   61 1    
   118   61  116 1    
   119   61  117 1    
@<TRIPOS>SUBSTRUCTURE
     1 UNK         1 GROUP             0       ****    0 ROOT    
