@<TRIPOS>MOLECULE
3R8
117   119    1
SMALL
USER_CHARGES


@<TRIPOS>ATOM
      1 CA         16.2507  -25.9603  -49.4369 C.3       0 UNK        -0.2013 
      2 C          17.6979  -26.1200  -48.9956 C.2       0 UNK         0.4866 
      3 O          18.5505  -25.3243  -49.3921 O.2       0 UNK        -0.5176 
      4 N          17.9831  -27.1474  -48.1866 N.am      1 UNK        -0.4884 
      5 CA         19.3000  -27.4149  -47.5987 C.3       1 UNK         0.0853 
      6 C6         19.4641  -28.9192  -47.2575 C.3       10 UNK        -0.0849 
      7 S7         18.2360  -29.5605  -46.0663 S.3       10 UNK        -0.2776 
      8 C8         19.3111  -29.8271  -44.6269 C.3       10 UNK         0.0316 
      9 C9         18.5383  -29.8993  -43.3214 C.ar      10 UNK        -0.0863 
     10 C10        18.6706  -31.0116  -42.4877 C.ar      10 UNK        -0.1009 
     11 C11        18.0956  -31.0154  -41.2135 C.ar      10 UNK        -0.0712 
     12 C12        17.3477  -29.9126  -40.7915 C.ar      10 UNK        -0.0894 
     13 C13        17.1831  -28.8066  -41.6309 C.ar      10 UNK        -0.0745 
     14 C14        17.7681  -28.8120  -42.9001 C.ar      10 UNK        -0.0972 
     15 C15        16.4207  -27.5840  -41.1459 C.3       10 UNK         0.0209 
     16 S16        17.5067  -26.4632  -40.2048 S.3       10 UNK        -0.2568 
     17 C17        18.5493  -25.7449  -41.5223 C.3       10 UNK        -0.0983 
     18 CA         19.8988  -26.4962  -41.7300 C.3       3 UNK         0.0876 
     19 N          20.4070  -26.3913  -43.1041 N.am      3 UNK        -0.4424 
     20 C          20.7640  -25.2556  -43.7192 C.2       2 UNK         0.4918 
     21 O          20.6031  -24.1301  -43.2449 O.2       2 UNK        -0.4875 
     22 CA         21.4413  -25.3907  -45.0957 C.3       2 UNK         0.0481 
     23 CB         22.9437  -25.6602  -44.9059 C.3       2 UNK        -0.1831 
     24 N          20.8758  -26.3948  -46.0099 N.am      2 UNK        -0.4498 
     25 C          19.5951  -26.4661  -46.4090 C.2       1 UNK         0.5027 
     26 O          18.6819  -25.8087  -45.9020 O.2       1 UNK        -0.4969 
     27 C          21.0005  -26.1490  -40.7036 C.2       3 UNK         0.5005 
     28 O          22.1833  -26.2899  -41.0194 O.2       3 UNK        -0.5279 
     29 N          20.6102  -25.7669  -39.4778 N.am      4 UNK        -0.4463 
     30 CA         21.4825  -25.4170  -38.3441 C.3       4 UNK         0.0283 
     31 CB         22.1810  -24.0656  -38.6047 C.3       4 UNK        -0.1875 
     32 C          22.4795  -26.5370  -37.9722 C.2       4 UNK         0.4949 
     33 O          23.6225  -26.2538  -37.6114 O.2       4 UNK        -0.5039 
     34 N          22.0203  -27.7909  -38.1035 N.am      5 UNK        -0.4663 
     35 CA         22.7625  -29.0473  -37.9367 C.3       5 UNK         0.0242 
     36 CB         23.3028  -29.1924  -36.4974 C.3       5 UNK        -0.1982 
     37 C          23.8534  -29.3009  -39.0035 C.2       5 UNK         0.5017 
     38 O          24.6652  -30.2076  -38.8126 O.2       5 UNK        -0.5012 
     39 N          23.8525  -28.5384  -40.1063 N.am      6 UNK        -0.4439 
     40 CA         24.7631  -28.6968  -41.2422 C.3       6 UNK         0.0297 
     41 CB         25.2732  -27.3047  -41.6617 C.3       6 UNK        -0.2006 
     42 C          24.0652  -29.4104  -42.4146 C.2       6 UNK         0.4892 
     43 O          22.8808  -29.7497  -42.3311 O.2       6 UNK        -0.5089 
     44 N          24.8298  -29.6158  -43.4975 N.am      7 UNK        -0.4243 
     45 CA         24.4448  -30.2887  -44.7428 C.3       7 UNK         0.0196 
     46 CB         23.3879  -29.4647  -45.5172 C.3       7 UNK        -0.2007 
     47 C          24.0590  -31.7582  -44.4909 C.2       7 UNK         0.5020 
     48 O          24.8745  -32.5046  -43.9487 O.2       7 UNK        -0.5147 
     49 N          22.8446  -32.1548  -44.8914 N.am      8 UNK        -0.4734 
     50 CA         22.3195  -33.5172  -44.7554 C.3       8 UNK         0.0238 
     51 CB         21.1198  -33.6830  -45.7050 C.3       8 UNK        -0.1912 
     52 C          21.9270  -33.9087  -43.3173 C.2       8 UNK         0.5038 
     53 O          21.6539  -35.0869  -43.0819 O.2       8 UNK        -0.5046 
     54 N          21.8697  -32.9364  -42.3968 N.am      9 UNK        -0.4200 
     55 CA         21.5255  -33.1475  -40.9843 C.3       9 UNK         0.0839 
     56 C          22.6137  -33.9214  -40.1866 C.2       9 UNK         0.5513 
     57 N          22.2489  -34.4931  -39.0475 N.am      9 UNK        -0.7519 
     58 O          23.7806  -33.9859  -40.5673 O.2       9 UNK        -0.4960 
     59 C59        21.1404  -31.8063  -40.3028 C.3       10 UNK        -0.0876 
     60 S60        19.7264  -31.9548  -39.1559 S.3       10 UNK        -0.2414 
     61 C61        18.3102  -32.2002  -40.2838 C.3       10 UNK         0.0169 
     62 H62        16.1824  -26.0027  -50.5235 H         1 UNK         0.0903 
     63 H63        15.6107  -26.7411  -49.0263 H         1 UNK         0.0903 
     64 H64        15.8629  -24.9966  -49.1081 H         1 UNK         0.0903 
     65 H65        17.2408  -27.7501  -47.8591 H         1 UNK         0.3096 
     66 H66        20.0463  -27.1810  -48.3622 H         1 UNK         0.1121 
     67 H67        19.3606  -29.5037  -48.1733 H         1 UNK         0.0849 
     68 H68        20.4766  -29.1275  -46.9083 H         1 UNK         0.0849 
     69 H69        19.8972  -30.7324  -44.7864 H         1 UNK         0.0865 
     70 H70        20.0262  -29.0092  -44.5461 H         1 UNK         0.0865 
     71 H71        19.2651  -31.8565  -42.8061 H         1 UNK         0.1346 
     72 H72        16.9156  -29.9044  -39.8001 H         1 UNK         0.1412 
     73 H73        17.6697  -27.9467  -43.5422 H         1 UNK         0.1426 
     74 H74        15.5954  -27.8963  -40.5044 H         1 UNK         0.0716 
     75 H75        15.9695  -27.0502  -41.9838 H         1 UNK         0.0716 
     76 H76        18.7181  -24.6887  -41.3040 H         1 UNK         0.0695 
     77 H77        17.9712  -25.7530  -42.4476 H         1 UNK         0.0695 
     78 H78        19.7273  -27.5613  -41.5781 H         1 UNK         0.0983 
     79 H79        20.6355  -27.2630  -43.5544 H         1 UNK         0.3095 
     80 H80        21.3386  -24.4265  -45.5976 H         1 UNK         0.0454 
     81 H81        23.1229  -26.6090  -44.3991 H         1 UNK         0.0851 
     82 H82        23.4032  -24.8816  -44.2951 H         1 UNK         0.0851 
     83 H83        23.4750  -25.6759  -45.8575 H         1 UNK         0.0851 
     84 H84        21.5514  -26.9738  -46.4866 H         1 UNK         0.2976 
     85 H85        19.6128  -25.7194  -39.3040 H         1 UNK         0.3116 
     86 H86        20.8299  -25.2914  -37.4790 H         1 UNK         0.0646 
     87 H87        22.8914  -24.1317  -39.4297 H         1 UNK         0.0847 
     88 H88        22.7339  -23.7332  -37.7253 H         1 UNK         0.0847 
     89 H89        21.4595  -23.2852  -38.8458 H         1 UNK         0.0847 
     90 H90        21.0628  -27.8955  -38.4102 H         1 UNK         0.3040 
     91 H91        22.0239  -29.8371  -38.0746 H         1 UNK         0.1015 
     92 H92        22.5206  -29.0162  -35.7591 H         1 UNK         0.0786 
     93 H93        24.1185  -28.4974  -36.2967 H         1 UNK         0.0786 
     94 H94        23.6874  -30.1982  -36.3237 H         1 UNK         0.0786 
     95 H95        23.1384  -27.8246  -40.2224 H         1 UNK         0.3172 
     96 H96        25.6247  -29.3005  -40.9504 H         1 UNK         0.0595 
     97 H97        24.4874  -26.7040  -42.1201 H         1 UNK         0.0839 
     98 H98        26.0857  -27.3786  -42.3850 H         1 UNK         0.0839 
     99 H99        25.6585  -26.7494  -40.8063 H         1 UNK         0.0839 
    100 H100       25.7989  -29.3347  -43.4473 H         1 UNK         0.2998 
    101 H101       25.3428  -30.3240  -45.3616 H         1 UNK         0.0822 
    102 H102       23.7766  -28.4759  -45.7575 H         1 UNK         0.0787 
    103 H103       23.1333  -29.9360  -46.4675 H         1 UNK         0.0787 
    104 H104       22.4679  -29.3297  -44.9489 H         1 UNK         0.0787 
    105 H105       22.2437  -31.4762  -45.3340 H         1 UNK         0.3055 
    106 H106       23.1001  -34.2145  -45.0687 H         1 UNK         0.1106 
    107 H107       20.7468  -34.7081  -45.6862 H         1 UNK         0.0828 
    108 H108       20.2890  -33.0333  -45.4295 H         1 UNK         0.0828 
    109 H109       21.3939  -33.4623  -46.7368 H         1 UNK         0.0828 
    110 H110       22.1688  -32.0050  -42.6534 H         1 UNK         0.2931 
    111 H111       20.6470  -33.7943  -40.9985 H         1 UNK         0.0412 
    112 H112       22.9357  -34.9925  -38.5040 H         1 UNK         0.3472 
    113 H113       21.3000  -34.4182  -38.7136 H         1 UNK         0.3472 
    114 H114       21.9918  -31.3988  -39.7596 H         1 UNK         0.0970 
    115 H115       20.8998  -31.0364  -41.0349 H         1 UNK         0.0970 
    116 H116       17.4131  -32.3596  -39.6838 H         1 UNK         0.0612 
    117 H117       18.4489  -33.1148  -40.8611 H         1 UNK         0.0612 
@<TRIPOS>BOND
     1    1    2 1    
     2    1   62 1    
     3    1   63 1    
     4    1   64 1    
     5    2    3 2    
     6    2    4 am   BACKBONE|DICT|INTERRES
     7    4    5 1    
     8    4   65 1    
     9    5    6 1    
    10    5   25 1    
    11    5   66 1    
    12    6    7 1    
    13    6   67 1    
    14    6   68 1    
    15    7    8 1    
    16    8    9 1    
    17    8   69 1    
    18    8   70 1    
    19    9   10 ar   
    20    9   14 ar   
    21   10   11 ar   
    22   10   71 1    
    23   11   12 ar   
    24   11   61 1    
    25   12   13 ar   
    26   12   72 1    
    27   13   14 ar   
    28   13   15 1    
    29   14   73 1    
    30   15   16 1    
    31   15   74 1    
    32   15   75 1    
    33   16   17 1    
    34   17   18 1    
    35   17   76 1    
    36   17   77 1    
    37   18   19 1    
    38   18   27 1    
    39   18   78 1    
    40   19   20 am   BACKBONE|DICT|INTERRES
    41   19   79 1    
    42   20   21 2    
    43   20   22 1    
    44   22   23 1    
    45   22   24 1    
    46   22   80 1    
    47   23   81 1    
    48   23   82 1    
    49   23   83 1    
    50   24   25 am   BACKBONE|DICT|INTERRES
    51   24   84 1    
    52   25   26 2    
    53   27   28 2    
    54   27   29 am   BACKBONE|DICT|INTERRES
    55   29   30 1    
    56   29   85 1    
    57   30   31 1    
    58   30   32 1    
    59   30   86 1    
    60   31   87 1    
    61   31   88 1    
    62   31   89 1    
    63   32   33 2    
    64   32   34 am   BACKBONE|DICT|INTERRES
    65   34   35 1    
    66   34   90 1    
    67   35   36 1    
    68   35   37 1    
    69   35   91 1    
    70   36   92 1    
    71   36   93 1    
    72   36   94 1    
    73   37   38 2    
    74   37   39 am   BACKBONE|DICT|INTERRES
    75   39   40 1    
    76   39   95 1    
    77   40   41 1    
    78   40   42 1    
    79   40   96 1    
    80   41   97 1    
    81   41   98 1    
    82   41   99 1    
    83   42   43 2    
    84   42   44 am   BACKBONE|DICT|INTERRES
    85   44   45 1    
    86   44  100 1    
    87   45   46 1    
    88   45   47 1    
    89   45  101 1    
    90   46  102 1    
    91   46  103 1    
    92   46  104 1    
    93   47   48 2    
    94   47   49 am   BACKBONE|DICT|INTERRES
    95   49   50 1    
    96   49  105 1    
    97   50   51 1    
    98   50   52 1    
    99   50  106 1    
   100   51  107 1    
   101   51  108 1    
   102   51  109 1    
   103   52   53 2    
   104   52   54 am   BACKBONE|DICT|INTERRES
   105   54   55 1    
   106   54  110 1    
   107   55   56 1    
   108   55   59 1    
   109   55  111 1    
   110   56   57 am   BACKBONE|DICT|INTERRES
   111   56   58 2    
   112   57  112 1    
   113   57  113 1    
   114   59   60 1    
   115   59  114 1    
   116   59  115 1    
   117   60   61 1    
   118   61  116 1    
   119   61  117 1    
@<TRIPOS>SUBSTRUCTURE
     1 UNK         1 GROUP             0       ****    0 ROOT    
