@<TRIPOS>MOLECULE
3R8
117   119    1
SMALL
USER_CHARGES


@<TRIPOS>ATOM
      1 CA         18.1610  -27.8915  -50.0741 C.3       0 UNK        -0.2013 
      2 C          18.2515  -27.9610  -48.5571 C.2       0 UNK         0.4866 
      3 O          19.0025  -28.7790  -48.0251 O.2       0 UNK        -0.5176 
      4 N          17.4862  -27.1156  -47.8547 N.am      1 UNK        -0.4884 
      5 CA         17.5051  -26.9976  -46.3945 C.3       1 UNK         0.0853 
      6 C6         16.2079  -26.3272  -45.8798 C.3       10 UNK        -0.0849 
      7 S7         15.9679  -26.4279  -44.0732 S.3       10 UNK        -0.2776 
      8 C8         15.4636  -28.1644  -43.8278 C.3       10 UNK         0.0316 
      9 C9         16.5685  -28.9290  -43.1165 C.ar      10 UNK        -0.0863 
     10 C10        17.4513  -29.7450  -43.8303 C.ar      10 UNK        -0.1009 
     11 C11        18.5268  -30.3568  -43.1825 C.ar      10 UNK        -0.0712 
     12 C12        18.7023  -30.1639  -41.8098 C.ar      10 UNK        -0.0894 
     13 C13        17.8103  -29.3763  -41.0753 C.ar      10 UNK        -0.0745 
     14 C14        16.7302  -28.7818  -41.7356 C.ar      10 UNK        -0.0972 
     15 C15        18.0368  -29.1900  -39.5750 C.3       10 UNK         0.0209 
     16 S16        17.7139  -27.5060  -38.9211 S.3       10 UNK        -0.2568 
     17 C17        18.3269  -26.3352  -40.1855 C.3       10 UNK        -0.0983 
     18 CA         19.7501  -26.6305  -40.7259 C.3       3 UNK         0.0876 
     19 N          19.8294  -26.3936  -42.1704 N.am      3 UNK        -0.4424 
     20 C          20.8950  -26.6667  -42.9335 C.2       2 UNK         0.4918 
     21 O          21.9358  -27.1598  -42.4971 O.2       2 UNK        -0.4875 
     22 CA         20.7605  -26.3490  -44.4288 C.3       2 UNK         0.0481 
     23 CB         21.9093  -26.9394  -45.2708 C.3       2 UNK        -0.1831 
     24 N          19.4732  -26.8287  -44.9339 N.am      2 UNK        -0.4498 
     25 C          18.7885  -26.2706  -45.9402 C.2       1 UNK         0.5027 
     26 O          19.1329  -25.2350  -46.5162 O.2       1 UNK        -0.4969 
     27 C          20.8314  -25.8451  -39.9561 C.2       3 UNK         0.5005 
     28 O          21.1499  -24.7145  -40.3349 O.2       3 UNK        -0.5279 
     29 N          21.4032  -26.4779  -38.9219 N.am      4 UNK        -0.4463 
     30 CA         22.5537  -26.0513  -38.1090 C.3       4 UNK         0.0283 
     31 CB         22.2900  -24.7124  -37.3924 C.3       4 UNK        -0.1875 
     32 C          23.8938  -26.0217  -38.8719 C.2       4 UNK         0.4949 
     33 O          24.8966  -26.4836  -38.3285 O.2       4 UNK        -0.5039 
     34 N          23.8943  -25.5009  -40.1060 N.am      5 UNK        -0.4663 
     35 CA         25.0548  -25.4157  -40.9973 C.3       5 UNK         0.0242 
     36 CB         24.7007  -24.5397  -42.2105 C.3       5 UNK        -0.1982 
     37 C          25.5641  -26.7933  -41.4525 C.2       5 UNK         0.5017 
     38 O          26.7716  -27.0339  -41.4261 O.2       5 UNK        -0.5012 
     39 N          24.6334  -27.6703  -41.8416 N.am      6 UNK        -0.4439 
     40 CA         24.8738  -29.0516  -42.2431 C.3       6 UNK         0.0297 
     41 CB         25.1058  -29.1245  -43.7646 C.3       6 UNK        -0.2006 
     42 C          23.6770  -29.8857  -41.7735 C.2       6 UNK         0.4892 
     43 O          22.9688  -30.4718  -42.5921 O.2       6 UNK        -0.5089 
     44 N          23.4588  -29.8980  -40.4500 N.am      7 UNK        -0.4243 
     45 CA         22.3017  -30.4991  -39.7739 C.3       7 UNK         0.0196 
     46 CB         22.4087  -30.2323  -38.2641 C.3       7 UNK        -0.2007 
     47 C          22.0886  -32.0034  -40.0345 C.2       7 UNK         0.5020 
     48 O          20.9600  -32.4775  -39.9120 O.2       7 UNK        -0.5147 
     49 N          23.1606  -32.7216  -40.3945 N.am      8 UNK        -0.4734 
     50 CA         23.1254  -34.1309  -40.7981 C.3       8 UNK         0.0238 
     51 CB         24.5347  -34.7262  -40.6377 C.3       8 UNK        -0.1912 
     52 C          22.6066  -34.3533  -42.2339 C.2       8 UNK         0.5038 
     53 O          22.3279  -35.4993  -42.5891 O.2       8 UNK        -0.5046 
     54 N          22.5065  -33.2798  -43.0317 N.am      9 UNK        -0.4200 
     55 CA         22.0704  -33.2646  -44.4388 C.3       9 UNK         0.0839 
     56 C          23.0584  -33.9455  -45.4338 C.2       9 UNK         0.5513 
     57 N          24.3133  -34.1757  -45.0658 N.am      9 UNK        -0.7519 
     58 O          22.6950  -34.2440  -46.5688 O.2       9 UNK        -0.4960 
     59 C59        20.5968  -33.7293  -44.6466 C.3       10 UNK        -0.0876 
     60 S60        19.3774  -32.9631  -43.5221 S.3       10 UNK        -0.2414 
     61 C61        19.5186  -31.2045  -43.9633 C.3       10 UNK         0.0169 
     62 H62        17.8445  -28.8538  -50.4755 H         1 UNK         0.0903 
     63 H63        17.4502  -27.1352  -50.4068 H         1 UNK         0.0903 
     64 H64        19.1358  -27.6498  -50.4968 H         1 UNK         0.0903 
     65 H65        16.9161  -26.4397  -48.3439 H         1 UNK         0.3096 
     66 H66        17.5346  -28.0120  -46.0023 H         1 UNK         0.1121 
     67 H67        16.1835  -25.2747  -46.1693 H         1 UNK         0.0849 
     68 H68        15.3375  -26.7818  -46.3562 H         1 UNK         0.0849 
     69 H69        14.5536  -28.1896  -43.2263 H         1 UNK         0.0865 
     70 H70        15.2121  -28.6362  -44.7789 H         1 UNK         0.0865 
     71 H71        17.3127  -29.8986  -44.8910 H         1 UNK         0.1346 
     72 H72        19.5339  -30.6458  -41.3165 H         1 UNK         0.1412 
     73 H73        16.0355  -28.1654  -41.1815 H         1 UNK         0.1426 
     74 H74        19.0582  -29.4658  -39.3092 H         1 UNK         0.0716 
     75 H75        17.3931  -29.8914  -39.0429 H         1 UNK         0.0716 
     76 H76        18.2576  -25.3251  -39.7760 H         1 UNK         0.0695 
     77 H77        17.5998  -26.3412  -40.9977 H         1 UNK         0.0695 
     78 H78        19.9810  -27.6884  -40.6064 H         1 UNK         0.0983 
     79 H79        19.0251  -25.9626  -42.6011 H         1 UNK         0.3095 
     80 H80        20.7993  -25.2610  -44.5107 H         1 UNK         0.0454 
     81 H81        21.9316  -28.0281  -45.2074 H         1 UNK         0.0851 
     82 H82        22.8771  -26.5709  -44.9282 H         1 UNK         0.0851 
     83 H83        21.8149  -26.6667  -46.3218 H         1 UNK         0.0851 
     84 H84        19.1099  -27.6607  -44.4873 H         1 UNK         0.2976 
     85 H85        21.0489  -27.3952  -38.6908 H         1 UNK         0.3116 
     86 H86        22.6572  -26.8110  -37.3328 H         1 UNK         0.0646 
     87 H87        22.2163  -23.8781  -38.0903 H         1 UNK         0.0847 
     88 H88        23.0996  -24.4792  -36.6997 H         1 UNK         0.0847 
     89 H89        21.3679  -24.7472  -36.8125 H         1 UNK         0.0847 
     90 H90        23.0114  -25.1325  -40.4509 H         1 UNK         0.3040 
     91 H91        25.8643  -24.9305  -40.4473 H         1 UNK         0.1015 
     92 H92        23.8680  -24.9544  -42.7804 H         1 UNK         0.0786 
     93 H93        25.5498  -24.4510  -42.8896 H         1 UNK         0.0786 
     94 H94        24.4255  -23.5306  -41.9032 H         1 UNK         0.0786 
     95 H95        23.6561  -27.3789  -41.8710 H         1 UNK         0.3172 
     96 H96        25.7586  -29.4402  -41.7346 H         1 UNK         0.0595 
     97 H97        25.2766  -30.1529  -44.0850 H         1 UNK         0.0839 
     98 H98        25.9777  -28.5419  -44.0616 H         1 UNK         0.0839 
     99 H99        24.2460  -28.7476  -44.3192 H         1 UNK         0.0839 
    100 H100       24.1063  -29.3902  -39.8639 H         1 UNK         0.2998 
    101 H101       21.4188  -29.9804  -40.1494 H         1 UNK         0.0822 
    102 H102       21.5290  -30.6060  -37.7376 H         1 UNK         0.0787 
    103 H103       23.2803  -30.7247  -37.8307 H         1 UNK         0.0787 
    104 H104       22.4861  -29.1679  -38.0480 H         1 UNK         0.0787 
    105 H105       24.0507  -32.2491  -40.4569 H         1 UNK         0.3055 
    106 H106       22.4488  -34.6675  -40.1289 H         1 UNK         0.1106 
    107 H107       24.5437  -35.7860  -40.8966 H         1 UNK         0.0828 
    108 H108       25.2610  -34.2282  -41.2812 H         1 UNK         0.0828 
    109 H109       24.8852  -34.6451  -39.6086 H         1 UNK         0.0828 
    110 H110       22.7435  -32.3654  -42.6579 H         1 UNK         0.2931 
    111 H111       22.1127  -32.2137  -44.7235 H         1 UNK         0.0412 
    112 H112       24.6288  -33.9239  -44.1433 H         1 UNK         0.3472 
    113 H113       24.9488  -34.6073  -45.7186 H         1 UNK         0.3472 
    114 H114       20.2777  -33.5266  -45.6705 H         1 UNK         0.0970 
    115 H115       20.5259  -34.8112  -44.5232 H         1 UNK         0.0970 
    116 H116       20.5261  -30.8500  -43.7445 H         1 UNK         0.0612 
    117 H117       19.3705  -31.0877  -45.0381 H         1 UNK         0.0612 
@<TRIPOS>BOND
     1    1    2 1    
     2    1   62 1    
     3    1   63 1    
     4    1   64 1    
     5    2    3 2    
     6    2    4 am   BACKBONE|DICT|INTERRES
     7    4    5 1    
     8    4   65 1    
     9    5    6 1    
    10    5   25 1    
    11    5   66 1    
    12    6    7 1    
    13    6   67 1    
    14    6   68 1    
    15    7    8 1    
    16    8    9 1    
    17    8   69 1    
    18    8   70 1    
    19    9   10 ar   
    20    9   14 ar   
    21   10   11 ar   
    22   10   71 1    
    23   11   12 ar   
    24   11   61 1    
    25   12   13 ar   
    26   12   72 1    
    27   13   14 ar   
    28   13   15 1    
    29   14   73 1    
    30   15   16 1    
    31   15   74 1    
    32   15   75 1    
    33   16   17 1    
    34   17   18 1    
    35   17   76 1    
    36   17   77 1    
    37   18   19 1    
    38   18   27 1    
    39   18   78 1    
    40   19   20 am   BACKBONE|DICT|INTERRES
    41   19   79 1    
    42   20   21 2    
    43   20   22 1    
    44   22   23 1    
    45   22   24 1    
    46   22   80 1    
    47   23   81 1    
    48   23   82 1    
    49   23   83 1    
    50   24   25 am   BACKBONE|DICT|INTERRES
    51   24   84 1    
    52   25   26 2    
    53   27   28 2    
    54   27   29 am   BACKBONE|DICT|INTERRES
    55   29   30 1    
    56   29   85 1    
    57   30   31 1    
    58   30   32 1    
    59   30   86 1    
    60   31   87 1    
    61   31   88 1    
    62   31   89 1    
    63   32   33 2    
    64   32   34 am   BACKBONE|DICT|INTERRES
    65   34   35 1    
    66   34   90 1    
    67   35   36 1    
    68   35   37 1    
    69   35   91 1    
    70   36   92 1    
    71   36   93 1    
    72   36   94 1    
    73   37   38 2    
    74   37   39 am   BACKBONE|DICT|INTERRES
    75   39   40 1    
    76   39   95 1    
    77   40   41 1    
    78   40   42 1    
    79   40   96 1    
    80   41   97 1    
    81   41   98 1    
    82   41   99 1    
    83   42   43 2    
    84   42   44 am   BACKBONE|DICT|INTERRES
    85   44   45 1    
    86   44  100 1    
    87   45   46 1    
    88   45   47 1    
    89   45  101 1    
    90   46  102 1    
    91   46  103 1    
    92   46  104 1    
    93   47   48 2    
    94   47   49 am   BACKBONE|DICT|INTERRES
    95   49   50 1    
    96   49  105 1    
    97   50   51 1    
    98   50   52 1    
    99   50  106 1    
   100   51  107 1    
   101   51  108 1    
   102   51  109 1    
   103   52   53 2    
   104   52   54 am   BACKBONE|DICT|INTERRES
   105   54   55 1    
   106   54  110 1    
   107   55   56 1    
   108   55   59 1    
   109   55  111 1    
   110   56   57 am   BACKBONE|DICT|INTERRES
   111   56   58 2    
   112   57  112 1    
   113   57  113 1    
   114   59   60 1    
   115   59  114 1    
   116   59  115 1    
   117   60   61 1    
   118   61  116 1    
   119   61  117 1    
@<TRIPOS>SUBSTRUCTURE
     1 UNK         1 GROUP             0       ****    0 ROOT    
