@<TRIPOS>MOLECULE
3R8
117   119    1
SMALL
USER_CHARGES


@<TRIPOS>ATOM
      1 CA         14.8902  -26.5334  -47.2965 C.3       0 UNK        -0.2013 
      2 C          15.5890  -25.1794  -47.2043 C.2       0 UNK         0.4866 
      3 O          15.6047  -24.4401  -48.1865 O.2       0 UNK        -0.5176 
      4 N          16.1823  -24.8094  -46.0636 N.am      1 UNK        -0.4884 
      5 CA         16.3066  -25.5840  -44.8294 C.3       1 UNK         0.0853 
      6 C6         15.1009  -25.3338  -43.8802 C.3       10 UNK        -0.0849 
      7 S7         15.0722  -26.2720  -42.3084 S.3       10 UNK        -0.2776 
      8 C8         14.7068  -27.9834  -42.8253 C.3       10 UNK         0.0316 
      9 C9         15.9781  -28.7453  -43.1777 C.ar      10 UNK        -0.0863 
     10 C10        16.9011  -29.0730  -42.1791 C.ar      10 UNK        -0.1009 
     11 C11        18.0879  -29.7403  -42.4976 C.ar      10 UNK        -0.0712 
     12 C12        18.3509  -30.0794  -43.8281 C.ar      10 UNK        -0.0894 
     13 C13        17.4407  -29.7467  -44.8360 C.ar      10 UNK        -0.0745 
     14 C14        16.2428  -29.1110  -44.4998 C.ar      10 UNK        -0.0972 
     15 C15        17.7513  -30.0452  -46.2944 C.3       10 UNK         0.0209 
     16 S16        18.6687  -28.6710  -47.0690 S.3       10 UNK        -0.2568 
     17 C17        20.3892  -29.0490  -46.5824 C.3       10 UNK        -0.0983 
     18 CA         21.0799  -27.9429  -45.7407 C.3       3 UNK         0.0876 
     19 N          20.2483  -27.4982  -44.6120 N.am      3 UNK        -0.4424 
     20 C          20.5569  -26.5480  -43.7152 C.2       2 UNK         0.4918 
     21 O          21.6435  -25.9707  -43.6727 O.2       2 UNK        -0.4875 
     22 CA         19.4617  -26.2105  -42.6867 C.3       2 UNK         0.0481 
     23 CB         19.7652  -24.9404  -41.8643 C.3       2 UNK        -0.1831 
     24 N          18.1316  -26.1562  -43.3028 N.am      2 UNK        -0.4498 
     25 C          17.6874  -25.2797  -44.2157 C.2       1 UNK         0.5027 
     26 O          18.3252  -24.2957  -44.6019 O.2       1 UNK        -0.4969 
     27 C          22.4836  -28.4311  -45.3194 C.2       3 UNK         0.5005 
     28 O          23.4449  -28.2545  -46.0688 O.2       3 UNK        -0.5279 
     29 N          22.5653  -29.0384  -44.1275 N.am      4 UNK        -0.4463 
     30 CA         23.7886  -29.5692  -43.5246 C.3       4 UNK         0.0283 
     31 CB         23.3913  -30.6398  -42.4985 C.3       4 UNK        -0.1875 
     32 C          24.6844  -28.4949  -42.8763 C.2       4 UNK         0.4949 
     33 O          25.8181  -28.8113  -42.5141 O.2       4 UNK        -0.5039 
     34 N          24.1726  -27.2625  -42.7293 N.am      5 UNK        -0.4663 
     35 CA         24.8018  -26.0506  -42.1842 C.3       5 UNK         0.0242 
     36 CB         26.0131  -25.6170  -43.0333 C.3       5 UNK        -0.1982 
     37 C          25.1642  -26.1127  -40.6891 C.2       5 UNK         0.5017 
     38 O          24.7518  -25.2297  -39.9362 O.2       5 UNK        -0.5012 
     39 N          25.9292  -27.1315  -40.2866 N.am      6 UNK        -0.4439 
     40 CA         26.4395  -27.3361  -38.9309 C.3       6 UNK         0.0297 
     41 CB         27.6697  -26.4380  -38.6836 C.3       6 UNK        -0.2006 
     42 C          26.7236  -28.8280  -38.6973 C.2       6 UNK         0.4892 
     43 O          27.8019  -29.1883  -38.2216 O.2       6 UNK        -0.5089 
     44 N          25.7506  -29.6724  -39.0513 N.am      7 UNK        -0.4243 
     45 CA         25.7763  -31.1259  -38.9140 C.3       7 UNK         0.0196 
     46 CB         26.6439  -31.7488  -40.0279 C.3       7 UNK        -0.2007 
     47 C          24.3305  -31.6417  -38.9442 C.2       7 UNK         0.5020 
     48 O          23.4013  -30.8474  -39.1163 O.2       7 UNK        -0.5147 
     49 N          24.1587  -32.9583  -38.7712 N.am      8 UNK        -0.4734 
     50 CA         22.8645  -33.6412  -38.8637 C.3       8 UNK         0.0238 
     51 CB         23.0196  -35.0913  -38.3770 C.3       8 UNK        -0.1912 
     52 C          22.3060  -33.6105  -40.2978 C.2       8 UNK         0.5038 
     53 O          23.0743  -33.7609  -41.2511 O.2       8 UNK        -0.5046 
     54 N          20.9868  -33.4204  -40.4131 N.am      9 UNK        -0.4200 
     55 CA         20.2506  -33.3095  -41.6810 C.3       9 UNK         0.0839 
     56 C          20.3075  -34.6059  -42.5343 C.2       9 UNK         0.5513 
     57 N          20.3868  -34.4806  -43.8519 N.am      9 UNK        -0.7519 
     58 O          20.2307  -35.7175  -42.0148 O.2       9 UNK        -0.4960 
     59 C59        18.7767  -32.8732  -41.4582 C.3       10 UNK        -0.0876 
     60 S60        18.5847  -31.4348  -40.3481 S.3       10 UNK        -0.2414 
     61 C61        19.1030  -30.0509  -41.4076 C.3       10 UNK         0.0169 
     62 H62        15.6248  -27.3351  -47.3688 H         1 UNK         0.0903 
     63 H63        14.2483  -26.7181  -46.4368 H         1 UNK         0.0903 
     64 H64        14.2628  -26.5767  -48.1867 H         1 UNK         0.0903 
     65 H65        16.7113  -23.9455  -46.0406 H         1 UNK         0.3096 
     66 H66        16.3386  -26.6330  -45.1037 H         1 UNK         0.1121 
     67 H67        14.1652  -25.5385  -44.4014 H         1 UNK         0.0849 
     68 H68        15.0577  -24.2736  -43.6237 H         1 UNK         0.0849 
     69 H69        14.2058  -28.4979  -42.0039 H         1 UNK         0.0865 
     70 H70        13.9997  -27.9793  -43.6564 H         1 UNK         0.0865 
     71 H71        16.7013  -28.7974  -41.1519 H         1 UNK         0.1346 
     72 H72        19.2709  -30.5874  -44.0805 H         1 UNK         0.1412 
     73 H73        15.5311  -28.8700  -45.2777 H         1 UNK         0.1426 
     74 H74        18.3083  -30.9785  -46.3889 H         1 UNK         0.0716 
     75 H75        16.8221  -30.1959  -46.8463 H         1 UNK         0.0716 
     76 H76        20.9530  -29.2163  -47.5024 H         1 UNK         0.0695 
     77 H77        20.4099  -30.0026  -46.0531 H         1 UNK         0.0695 
     78 H78        21.2256  -27.0699  -46.3805 H         1 UNK         0.0983 
     79 H79        19.3231  -27.9020  -44.5781 H         1 UNK         0.3095 
     80 H80        19.4359  -27.0461  -41.9875 H         1 UNK         0.0454 
     81 H81        18.9673  -24.7283  -41.1530 H         1 UNK         0.0851 
     82 H82        20.6859  -25.0593  -41.2918 H         1 UNK         0.0851 
     83 H83        19.8931  -24.0626  -42.4980 H         1 UNK         0.0851 
     84 H84        17.5002  -26.8995  -43.0277 H         1 UNK         0.2976 
     85 H85        21.7197  -29.1247  -43.5846 H         1 UNK         0.3116 
     86 H86        24.3801  -30.0516  -44.3056 H         1 UNK         0.0646 
     87 H87        22.8287  -31.4475  -42.9660 H         1 UNK         0.0847 
     88 H88        24.2704  -31.0939  -42.0436 H         1 UNK         0.0847 
     89 H89        22.7843  -30.2273  -41.6921 H         1 UNK         0.0847 
     90 H90        23.2296  -27.1089  -43.0712 H         1 UNK         0.3040 
     91 H91        24.0467  -25.2680  -42.2819 H         1 UNK         0.1015 
     92 H92        26.8202  -26.3495  -43.0036 H         1 UNK         0.0786 
     93 H93        26.4215  -24.6716  -42.6737 H         1 UNK         0.0786 
     94 H94        25.7315  -25.4722  -44.0763 H         1 UNK         0.0786 
     95 H95        26.1680  -27.8390  -40.9815 H         1 UNK         0.3172 
     96 H96        25.6624  -27.0567  -38.2164 H         1 UNK         0.0595 
     97 H97        28.4805  -26.6708  -39.3748 H         1 UNK         0.0839 
     98 H98        28.0538  -26.5685  -37.6710 H         1 UNK         0.0839 
     99 H99        27.4241  -25.3823  -38.7986 H         1 UNK         0.0839 
    100 H100       24.8621  -29.3092  -39.3762 H         1 UNK         0.2998 
    101 H101       26.1961  -31.3825  -37.9390 H         1 UNK         0.0822 
    102 H102       26.6456  -32.8379  -39.9776 H         1 UNK         0.0787 
    103 H103       27.6821  -31.4271  -39.9456 H         1 UNK         0.0787 
    104 H104       26.2922  -31.4665  -41.0198 H         1 UNK         0.0787 
    105 H105       24.9726  -33.5458  -38.6618 H         1 UNK         0.3055 
    106 H106       22.1652  -33.1239  -38.2024 H         1 UNK         0.1106 
    107 H107       22.0652  -35.6187  -38.4109 H         1 UNK         0.0828 
    108 H108       23.7218  -35.6517  -38.9957 H         1 UNK         0.0828 
    109 H109       23.3728  -35.1302  -37.3463 H         1 UNK         0.0828 
    110 H110       20.4279  -33.3212  -39.5790 H         1 UNK         0.2931 
    111 H111       20.7441  -32.5210  -42.2512 H         1 UNK         0.0412 
    112 H112       20.4071  -35.3129  -44.4208 H         1 UNK         0.3472 
    113 H113       20.4428  -33.5754  -44.2908 H         1 UNK         0.3472 
    114 H114       18.2933  -32.6516  -42.4113 H         1 UNK         0.0970 
    115 H115       18.2045  -33.6940  -41.0212 H         1 UNK         0.0970 
    116 H116       19.2319  -29.1699  -40.7777 H         1 UNK         0.0612 
    117 H117       20.0847  -30.2622  -41.8327 H         1 UNK         0.0612 
@<TRIPOS>BOND
     1    1    2 1    
     2    1   62 1    
     3    1   63 1    
     4    1   64 1    
     5    2    3 2    
     6    2    4 am   BACKBONE|DICT|INTERRES
     7    4    5 1    
     8    4   65 1    
     9    5    6 1    
    10    5   25 1    
    11    5   66 1    
    12    6    7 1    
    13    6   67 1    
    14    6   68 1    
    15    7    8 1    
    16    8    9 1    
    17    8   69 1    
    18    8   70 1    
    19    9   10 ar   
    20    9   14 ar   
    21   10   11 ar   
    22   10   71 1    
    23   11   12 ar   
    24   11   61 1    
    25   12   13 ar   
    26   12   72 1    
    27   13   14 ar   
    28   13   15 1    
    29   14   73 1    
    30   15   16 1    
    31   15   74 1    
    32   15   75 1    
    33   16   17 1    
    34   17   18 1    
    35   17   76 1    
    36   17   77 1    
    37   18   19 1    
    38   18   27 1    
    39   18   78 1    
    40   19   20 am   BACKBONE|DICT|INTERRES
    41   19   79 1    
    42   20   21 2    
    43   20   22 1    
    44   22   23 1    
    45   22   24 1    
    46   22   80 1    
    47   23   81 1    
    48   23   82 1    
    49   23   83 1    
    50   24   25 am   BACKBONE|DICT|INTERRES
    51   24   84 1    
    52   25   26 2    
    53   27   28 2    
    54   27   29 am   BACKBONE|DICT|INTERRES
    55   29   30 1    
    56   29   85 1    
    57   30   31 1    
    58   30   32 1    
    59   30   86 1    
    60   31   87 1    
    61   31   88 1    
    62   31   89 1    
    63   32   33 2    
    64   32   34 am   BACKBONE|DICT|INTERRES
    65   34   35 1    
    66   34   90 1    
    67   35   36 1    
    68   35   37 1    
    69   35   91 1    
    70   36   92 1    
    71   36   93 1    
    72   36   94 1    
    73   37   38 2    
    74   37   39 am   BACKBONE|DICT|INTERRES
    75   39   40 1    
    76   39   95 1    
    77   40   41 1    
    78   40   42 1    
    79   40   96 1    
    80   41   97 1    
    81   41   98 1    
    82   41   99 1    
    83   42   43 2    
    84   42   44 am   BACKBONE|DICT|INTERRES
    85   44   45 1    
    86   44  100 1    
    87   45   46 1    
    88   45   47 1    
    89   45  101 1    
    90   46  102 1    
    91   46  103 1    
    92   46  104 1    
    93   47   48 2    
    94   47   49 am   BACKBONE|DICT|INTERRES
    95   49   50 1    
    96   49  105 1    
    97   50   51 1    
    98   50   52 1    
    99   50  106 1    
   100   51  107 1    
   101   51  108 1    
   102   51  109 1    
   103   52   53 2    
   104   52   54 am   BACKBONE|DICT|INTERRES
   105   54   55 1    
   106   54  110 1    
   107   55   56 1    
   108   55   59 1    
   109   55  111 1    
   110   56   57 am   BACKBONE|DICT|INTERRES
   111   56   58 2    
   112   57  112 1    
   113   57  113 1    
   114   59   60 1    
   115   59  114 1    
   116   59  115 1    
   117   60   61 1    
   118   61  116 1    
   119   61  117 1    
@<TRIPOS>SUBSTRUCTURE
     1 UNK         1 GROUP             0       ****    0 ROOT    
