@<TRIPOS>MOLECULE
3R8
117   119    1
SMALL
USER_CHARGES


@<TRIPOS>ATOM
      1 CA         18.1464  -26.1817  -40.1111 C.3       0 UNK        -0.2013 
      2 C          17.4646  -25.2867  -41.1356 C.2       0 UNK         0.4866 
      3 O          17.3374  -24.0840  -40.9057 O.2       0 UNK        -0.5176 
      4 N          17.0092  -25.8647  -42.2560 N.am      1 UNK        -0.4884 
      5 CA         16.2749  -25.1594  -43.3154 C.3       1 UNK         0.0853 
      6 C6         15.4791  -26.1435  -44.2185 C.3       10 UNK        -0.0849 
      7 S7         16.5045  -27.1731  -45.3308 S.3       10 UNK        -0.2776 
      8 C8         16.6187  -28.7579  -44.4301 C.3       10 UNK         0.0316 
      9 C9         17.7758  -29.6710  -44.8516 C.ar      10 UNK        -0.0863 
     10 C10        17.8797  -30.9228  -44.2390 C.ar      10 UNK        -0.1009 
     11 C11        18.9182  -31.7980  -44.5653 C.ar      10 UNK        -0.0712 
     12 C12        19.8770  -31.4069  -45.5051 C.ar      10 UNK        -0.0894 
     13 C13        19.8026  -30.1578  -46.1317 C.ar      10 UNK        -0.0745 
     14 C14        18.7359  -29.3062  -45.8080 C.ar      10 UNK        -0.0972 
     15 C15        20.8742  -29.7912  -47.1675 C.3       10 UNK         0.0209 
     16 S16        20.8950  -28.0398  -47.7079 S.3       10 UNK        -0.2568 
     17 C17        22.4494  -27.3555  -47.0162 C.3       10 UNK        -0.0983 
     18 CA         22.2878  -26.4743  -45.7438 C.3       3 UNK         0.0876 
     19 N          21.0931  -25.6237  -45.7935 N.am      3 UNK        -0.4424 
     20 C          20.7727  -24.6522  -44.9272 C.2       2 UNK         0.4918 
     21 O          21.4656  -24.3314  -43.9622 O.2       2 UNK        -0.4875 
     22 CA         19.4386  -23.9309  -45.1602 C.3       2 UNK         0.0481 
     23 CB         19.0192  -23.8906  -46.6492 C.3       2 UNK        -0.1831 
     24 N          18.4315  -24.6011  -44.3439 N.am      2 UNK        -0.4498 
     25 C          17.1702  -24.2010  -44.1346 C.2       1 UNK         0.5027 
     26 O          16.7006  -23.1437  -44.5588 O.2       1 UNK        -0.4969 
     27 C          22.3648  -27.3187  -44.4597 C.2       3 UNK         0.5005 
     28 O          23.4117  -27.3490  -43.8080 O.2       3 UNK        -0.5279 
     29 N          21.2576  -28.0062  -44.1406 N.am      4 UNK        -0.4463 
     30 CA         21.0351  -28.8566  -42.9630 C.3       4 UNK         0.0283 
     31 CB         20.8825  -27.9720  -41.7113 C.3       4 UNK        -0.1875 
     32 C          22.0840  -29.9699  -42.7614 C.2       4 UNK         0.4949 
     33 O          22.2629  -30.4237  -41.6326 O.2       4 UNK        -0.5039 
     34 N          22.7908  -30.3490  -43.8379 N.am      5 UNK        -0.4663 
     35 CA         23.9674  -31.2280  -43.8660 C.3       5 UNK         0.0242 
     36 CB         23.5498  -32.6945  -43.6419 C.3       5 UNK        -0.1982 
     37 C          25.0810  -30.7616  -42.9031 C.2       5 UNK         0.5017 
     38 O          25.6657  -31.5836  -42.1972 O.2       5 UNK        -0.5012 
     39 N          25.3187  -29.4394  -42.8655 N.am      6 UNK        -0.4439 
     40 CA         26.2128  -28.7318  -41.9386 C.3       6 UNK         0.0297 
     41 CB         27.6868  -29.1434  -42.1445 C.3       6 UNK        -0.2006 
     42 C          25.7390  -28.8572  -40.4765 C.2       6 UNK         0.4892 
     43 O          26.5385  -29.1400  -39.5832 O.2       6 UNK        -0.5089 
     44 N          24.4277  -28.6525  -40.2850 N.am      7 UNK        -0.4243 
     45 CA         23.6588  -28.7184  -39.0348 C.3       7 UNK         0.0196 
     46 CB         24.2104  -27.7405  -37.9759 C.3       7 UNK        -0.2007 
     47 C          23.4539  -30.1374  -38.4682 C.2       7 UNK         0.5020 
     48 O          22.8614  -30.2653  -37.3959 O.2       7 UNK        -0.5147 
     49 N          23.8813  -31.1841  -39.1891 N.am      8 UNK        -0.4734 
     50 CA         23.6659  -32.5863  -38.8145 C.3       8 UNK         0.0238 
     51 CB         24.5454  -33.4975  -39.6835 C.3       8 UNK        -0.1912 
     52 C          22.1894  -33.0191  -38.8871 C.2       8 UNK         0.5038 
     53 O          21.7898  -33.8995  -38.1237 O.2       8 UNK        -0.5046 
     54 N          21.4057  -32.3848  -39.7697 N.am      9 UNK        -0.4200 
     55 CA         19.9452  -32.5465  -39.8650 C.3       9 UNK         0.0839 
     56 C          19.1538  -31.7501  -38.7848 C.2       9 UNK         0.5513 
     57 N          19.7876  -30.9594  -37.9251 N.am      9 UNK        -0.7519 
     58 O          17.9322  -31.8591  -38.7194 O.2       9 UNK        -0.4960 
     59 C59        19.4125  -32.2345  -41.2904 C.3       10 UNK        -0.0876 
     60 S60        20.1880  -33.2740  -42.5736 S.3       10 UNK        -0.2414 
     61 C61        18.9797  -33.1807  -43.9295 C.3       10 UNK         0.0169 
     62 H62        17.6478  -26.0906  -39.1464 H         1 UNK         0.0903 
     63 H63        18.1215  -27.2316  -40.4020 H         1 UNK         0.0903 
     64 H64        19.1865  -25.8831  -39.9829 H         1 UNK         0.0903 
     65 H65        17.1345  -26.8562  -42.3920 H         1 UNK         0.3096 
     66 H66        15.5372  -24.5250  -42.8175 H         1 UNK         0.1121 
     67 H67        14.8457  -26.7877  -43.6064 H         1 UNK         0.0849 
     68 H68        14.7880  -25.5778  -44.8462 H         1 UNK         0.0849 
     69 H69        16.7174  -28.5574  -43.3633 H         1 UNK         0.0865 
     70 H70        15.6762  -29.2928  -44.5578 H         1 UNK         0.0865 
     71 H71        17.1409  -31.2230  -43.5081 H         1 UNK         0.1346 
     72 H72        20.6814  -32.0861  -45.7538 H         1 UNK         0.1412 
     73 H73        18.6531  -28.3539  -46.3066 H         1 UNK         0.1426 
     74 H74        20.7063  -30.4066  -48.0522 H         1 UNK         0.0716 
     75 H75        21.8585  -30.0705  -46.7912 H         1 UNK         0.0716 
     76 H76        22.8763  -26.7340  -47.8049 H         1 UNK         0.0695 
     77 H77        23.1817  -28.1516  -46.8683 H         1 UNK         0.0695 
     78 H78        23.1464  -25.7998  -45.7050 H         1 UNK         0.0983 
     79 H79        20.4609  -25.8182  -46.5569 H         1 UNK         0.3095 
     80 H80        19.5528  -22.9061  -44.8015 H         1 UNK         0.0454 
     81 H81        19.8335  -23.5313  -47.2800 H         1 UNK         0.0851 
     82 H82        18.1818  -23.2108  -46.8052 H         1 UNK         0.0851 
     83 H83        18.7145  -24.8703  -47.0193 H         1 UNK         0.0851 
     84 H84        18.7243  -25.4662  -43.9122 H         1 UNK         0.2976 
     85 H85        20.4818  -27.9566  -44.7869 H         1 UNK         0.3116 
     86 H86        20.0860  -29.3658  -43.1236 H         1 UNK         0.0646 
     87 H87        21.8168  -27.4736  -41.4533 H         1 UNK         0.0847 
     88 H88        20.1348  -27.1983  -41.8751 H         1 UNK         0.0847 
     89 H89        20.5662  -28.5563  -40.8460 H         1 UNK         0.0847 
     90 H90        22.5575  -29.9012  -44.7109 H         1 UNK         0.3040 
     91 H91        24.3904  -31.1566  -44.8692 H         1 UNK         0.1015 
     92 H92        24.4027  -33.3679  -43.7334 H         1 UNK         0.0786 
     93 H93        22.8073  -33.0106  -44.3743 H         1 UNK         0.0786 
     94 H94        23.1218  -32.8404  -42.6509 H         1 UNK         0.0786 
     95 H95        24.7318  -28.8358  -43.4360 H         1 UNK         0.3172 
     96 H96        26.1326  -27.6737  -42.1929 H         1 UNK         0.0595 
     97 H97        27.8688  -30.1767  -41.8481 H         1 UNK         0.0839 
     98 H98        28.3509  -28.5166  -41.5482 H         1 UNK         0.0839 
     99 H99        27.9880  -29.0344  -43.1862 H         1 UNK         0.0839 
    100 H100       23.8716  -28.4863  -41.1125 H         1 UNK         0.2998 
    101 H101       22.6579  -28.3730  -39.2950 H         1 UNK         0.0822 
    102 H102       23.5360  -27.6688  -37.1217 H         1 UNK         0.0787 
    103 H103       24.3225  -26.7355  -38.3826 H         1 UNK         0.0787 
    104 H104       25.1799  -28.0596  -37.5927 H         1 UNK         0.0787 
    105 H105       24.3156  -31.0082  -40.0858 H         1 UNK         0.3055 
    106 H106       23.9833  -32.7035  -37.7758 H         1 UNK         0.1106 
    107 H107       25.5987  -33.2276  -39.6043 H         1 UNK         0.0828 
    108 H108       24.4524  -34.5394  -39.3744 H         1 UNK         0.0828 
    109 H109       24.2662  -33.4451  -40.7349 H         1 UNK         0.0828 
    110 H110       21.8148  -31.6779  -40.3779 H         1 UNK         0.2931 
    111 H111       19.7205  -33.5970  -39.6706 H         1 UNK         0.0412 
    112 H112       19.2516  -30.4606  -37.2328 H         1 UNK         0.3472 
    113 H113       20.7953  -30.8766  -37.9343 H         1 UNK         0.3472 
    114 H114       18.3337  -32.3947  -41.3327 H         1 UNK         0.0970 
    115 H115       19.5737  -31.1856  -41.5393 H         1 UNK         0.0970 
    116 H116       19.2551  -33.9132  -44.6895 H         1 UNK         0.0612 
    117 H117       17.9979  -33.4827  -43.5617 H         1 UNK         0.0612 
@<TRIPOS>BOND
     1    1    2 1    
     2    1   62 1    
     3    1   63 1    
     4    1   64 1    
     5    2    3 2    
     6    2    4 am   BACKBONE|DICT|INTERRES
     7    4    5 1    
     8    4   65 1    
     9    5    6 1    
    10    5   25 1    
    11    5   66 1    
    12    6    7 1    
    13    6   67 1    
    14    6   68 1    
    15    7    8 1    
    16    8    9 1    
    17    8   69 1    
    18    8   70 1    
    19    9   10 ar   
    20    9   14 ar   
    21   10   11 ar   
    22   10   71 1    
    23   11   12 ar   
    24   11   61 1    
    25   12   13 ar   
    26   12   72 1    
    27   13   14 ar   
    28   13   15 1    
    29   14   73 1    
    30   15   16 1    
    31   15   74 1    
    32   15   75 1    
    33   16   17 1    
    34   17   18 1    
    35   17   76 1    
    36   17   77 1    
    37   18   19 1    
    38   18   27 1    
    39   18   78 1    
    40   19   20 am   BACKBONE|DICT|INTERRES
    41   19   79 1    
    42   20   21 2    
    43   20   22 1    
    44   22   23 1    
    45   22   24 1    
    46   22   80 1    
    47   23   81 1    
    48   23   82 1    
    49   23   83 1    
    50   24   25 am   BACKBONE|DICT|INTERRES
    51   24   84 1    
    52   25   26 2    
    53   27   28 2    
    54   27   29 am   BACKBONE|DICT|INTERRES
    55   29   30 1    
    56   29   85 1    
    57   30   31 1    
    58   30   32 1    
    59   30   86 1    
    60   31   87 1    
    61   31   88 1    
    62   31   89 1    
    63   32   33 2    
    64   32   34 am   BACKBONE|DICT|INTERRES
    65   34   35 1    
    66   34   90 1    
    67   35   36 1    
    68   35   37 1    
    69   35   91 1    
    70   36   92 1    
    71   36   93 1    
    72   36   94 1    
    73   37   38 2    
    74   37   39 am   BACKBONE|DICT|INTERRES
    75   39   40 1    
    76   39   95 1    
    77   40   41 1    
    78   40   42 1    
    79   40   96 1    
    80   41   97 1    
    81   41   98 1    
    82   41   99 1    
    83   42   43 2    
    84   42   44 am   BACKBONE|DICT|INTERRES
    85   44   45 1    
    86   44  100 1    
    87   45   46 1    
    88   45   47 1    
    89   45  101 1    
    90   46  102 1    
    91   46  103 1    
    92   46  104 1    
    93   47   48 2    
    94   47   49 am   BACKBONE|DICT|INTERRES
    95   49   50 1    
    96   49  105 1    
    97   50   51 1    
    98   50   52 1    
    99   50  106 1    
   100   51  107 1    
   101   51  108 1    
   102   51  109 1    
   103   52   53 2    
   104   52   54 am   BACKBONE|DICT|INTERRES
   105   54   55 1    
   106   54  110 1    
   107   55   56 1    
   108   55   59 1    
   109   55  111 1    
   110   56   57 am   BACKBONE|DICT|INTERRES
   111   56   58 2    
   112   57  112 1    
   113   57  113 1    
   114   59   60 1    
   115   59  114 1    
   116   59  115 1    
   117   60   61 1    
   118   61  116 1    
   119   61  117 1    
@<TRIPOS>SUBSTRUCTURE
     1 UNK         1 GROUP             0       ****    0 ROOT    
