@<TRIPOS>MOLECULE
3R8
117   119    1
SMALL
USER_CHARGES


@<TRIPOS>ATOM
      1 CA         24.1166  -24.6844  -45.9322 C.3       0 UNK        -0.2013 
      2 C          23.5313  -24.8269  -47.3360 C.2       0 UNK         0.4866 
      3 O          23.9900  -24.1469  -48.2520 O.2       0 UNK        -0.5176 
      4 N          22.5385  -25.6983  -47.5653 N.am      1 UNK        -0.4884 
      5 CA         21.8302  -26.5083  -46.5686 C.3       1 UNK         0.0853 
      6 C6         21.1274  -27.7167  -47.2371 C.3       10 UNK        -0.0849 
      7 S7         20.6666  -29.0174  -46.0395 S.3       10 UNK        -0.2776 
      8 C8         18.8469  -29.0178  -46.2132 C.3       10 UNK         0.0316 
      9 C9         18.1076  -29.8774  -45.1868 C.ar      10 UNK        -0.0863 
     10 C10        18.6814  -31.0282  -44.6287 C.ar      10 UNK        -0.1009 
     11 C11        17.9816  -31.7888  -43.6880 C.ar      10 UNK        -0.0712 
     12 C12        16.6896  -31.4117  -43.3202 C.ar      10 UNK        -0.0894 
     13 C13        16.1025  -30.2682  -43.8642 C.ar      10 UNK        -0.0745 
     14 C14        16.8101  -29.5127  -44.8056 C.ar      10 UNK        -0.0972 
     15 C15        14.7266  -29.8305  -43.3843 C.3       10 UNK         0.0209 
     16 S16        14.7872  -29.2381  -41.6590 S.3       10 UNK        -0.2568 
     17 C17        15.6733  -27.6553  -41.8415 C.3       10 UNK        -0.0983 
     18 CA         17.2137  -27.8034  -41.7515 C.3       3 UNK         0.0876 
     19 N          17.8886  -26.6998  -42.4368 N.am      3 UNK        -0.4424 
     20 C          19.2035  -26.6269  -42.6686 C.2       2 UNK         0.4918 
     21 O          20.0368  -27.4327  -42.2439 O.2       2 UNK        -0.4875 
     22 CA         19.6735  -25.4735  -43.5563 C.3       2 UNK         0.0481 
     23 CB         20.3669  -24.3756  -42.7326 C.3       2 UNK        -0.1831 
     24 N          20.6060  -26.0551  -44.5093 N.am      2 UNK        -0.4498 
     25 C          20.8414  -25.6426  -45.7563 C.2       1 UNK         0.5027 
     26 O          20.3163  -24.6500  -46.2664 O.2       1 UNK        -0.4969 
     27 C          17.7229  -27.9754  -40.3092 C.2       3 UNK         0.5005 
     28 O          17.6303  -27.0330  -39.5194 O.2       3 UNK        -0.5279 
     29 N          18.3163  -29.1458  -40.0271 N.am      4 UNK        -0.4463 
     30 CA         19.0054  -29.5656  -38.7962 C.3       4 UNK         0.0283 
     31 CB         18.0463  -29.5617  -37.5903 C.3       4 UNK        -0.1875 
     32 C          20.3014  -28.7934  -38.4694 C.2       4 UNK         0.4949 
     33 O          21.2125  -29.3810  -37.8871 O.2       4 UNK        -0.5039 
     34 N          20.3620  -27.5038  -38.8194 N.am      5 UNK        -0.4663 
     35 CA         21.4618  -26.5898  -38.5165 C.3       5 UNK         0.0242 
     36 CB         20.9783  -25.1440  -38.7139 C.3       5 UNK        -0.1982 
     37 C          22.7381  -26.8458  -39.3336 C.2       5 UNK         0.5017 
     38 O          23.8305  -26.6647  -38.7931 O.2       5 UNK        -0.5012 
     39 N          22.5965  -27.2265  -40.6115 N.am      6 UNK        -0.4439 
     40 CA         23.7323  -27.4821  -41.5013 C.3       6 UNK         0.0297 
     41 CB         23.2876  -27.3522  -42.9651 C.3       6 UNK        -0.2006 
     42 C          24.3423  -28.8682  -41.2607 C.2       6 UNK         0.4892 
     43 O          23.6153  -29.8156  -40.9548 O.2       6 UNK        -0.5089 
     44 N          25.6585  -28.9745  -41.4958 N.am      7 UNK        -0.4243 
     45 CA         26.4401  -30.2161  -41.4176 C.3       7 UNK         0.0196 
     46 CB         27.9266  -29.8964  -41.6419 C.3       7 UNK        -0.2007 
     47 C          25.9723  -31.3113  -42.3937 C.2       7 UNK         0.5020 
     48 O          26.1530  -32.4940  -42.1054 O.2       7 UNK        -0.5147 
     49 N          25.3237  -30.9067  -43.4957 N.am      8 UNK        -0.4734 
     50 CA         24.6292  -31.7821  -44.4464 C.3       8 UNK         0.0238 
     51 CB         24.1256  -30.9338  -45.6262 C.3       8 UNK        -0.1912 
     52 C          23.4643  -32.5808  -43.8257 C.2       8 UNK         0.5038 
     53 O          23.1055  -33.6264  -44.3682 O.2       8 UNK        -0.5046 
     54 N          22.9154  -32.0881  -42.7075 N.am      9 UNK        -0.4200 
     55 CA         21.9091  -32.7564  -41.8751 C.3       9 UNK         0.0839 
     56 C          22.5144  -33.3777  -40.5780 C.2       9 UNK         0.5513 
     57 N          23.8316  -33.4493  -40.4180 N.am      9 UNK        -0.7519 
     58 O          21.7832  -33.8320  -39.7026 O.2       9 UNK        -0.4960 
     59 C59        20.7154  -31.7981  -41.6066 C.3       10 UNK        -0.0876 
     60 S60        19.1436  -32.6876  -41.3434 S.3       10 UNK        -0.2414 
     61 C61        18.6141  -33.0164  -43.0548 C.3       10 UNK         0.0169 
     62 H62        24.5166  -25.6330  -45.5760 H         1 UNK         0.0903 
     63 H63        24.9358  -23.9654  -45.9344 H         1 UNK         0.0903 
     64 H64        23.3688  -24.3250  -45.2262 H         1 UNK         0.0903 
     65 H65        22.1589  -25.7451  -48.5003 H         1 UNK         0.3096 
     66 H66        22.5773  -26.9084  -45.8810 H         1 UNK         0.1121 
     67 H67        21.8035  -28.1837  -47.9554 H         1 UNK         0.0849 
     68 H68        20.2586  -27.3972  -47.8163 H         1 UNK         0.0849 
     69 H69        18.4976  -27.9864  -46.1398 H         1 UNK         0.0865 
     70 H70        18.5859  -29.3665  -47.2132 H         1 UNK         0.0865 
     71 H71        19.6779  -31.3337  -44.9157 H         1 UNK         0.1346 
     72 H72        16.1514  -31.9921  -42.5827 H         1 UNK         0.1412 
     73 H73        16.3569  -28.6246  -45.2250 H         1 UNK         0.1426 
     74 H74        14.0408  -30.6769  -43.4434 H         1 UNK         0.0716 
     75 H75        14.3112  -29.0538  -44.0283 H         1 UNK         0.0716 
     76 H76        15.3020  -26.9535  -41.0922 H         1 UNK         0.0695 
     77 H77        15.3885  -27.2304  -42.8054 H         1 UNK         0.0695 
     78 H78        17.5100  -28.6965  -42.2995 H         1 UNK         0.0983 
     79 H79        17.2917  -25.9673  -42.7910 H         1 UNK         0.3095 
     80 H80        18.8185  -25.0508  -44.0883 H         1 UNK         0.0454 
     81 H81        21.2279  -24.7621  -42.1861 H         1 UNK         0.0851 
     82 H82        19.6813  -23.9444  -42.0023 H         1 UNK         0.0851 
     83 H83        20.7145  -23.5628  -43.3702 H         1 UNK         0.0851 
     84 H84        21.0033  -26.9315  -44.1936 H         1 UNK         0.2976 
     85 H85        18.3619  -29.8264  -40.7738 H         1 UNK         0.3116 
     86 H86        19.3017  -30.6014  -38.9674 H         1 UNK         0.0646 
     87 H87        17.7197  -28.5545  -37.3303 H         1 UNK         0.0847 
     88 H88        18.5316  -29.9805  -36.7077 H         1 UNK         0.0847 
     89 H89        17.1586  -30.1627  -37.7873 H         1 UNK         0.0847 
     90 H90        19.5283  -27.1041  -39.2401 H         1 UNK         0.3040 
     91 H91        21.7222  -26.7189  -37.4634 H         1 UNK         0.1015 
     92 H92        20.6522  -24.9646  -39.7385 H         1 UNK         0.0786 
     93 H93        21.7735  -24.4305  -38.4928 H         1 UNK         0.0786 
     94 H94        20.1432  -24.9124  -38.0525 H         1 UNK         0.0786 
     95 H95        21.6673  -27.4019  -40.9806 H         1 UNK         0.3172 
     96 H96        24.4989  -26.7262  -41.3158 H         1 UNK         0.0595 
     97 H97        24.1169  -27.5406  -43.6479 H         1 UNK         0.0839 
     98 H98        22.9323  -26.3433  -43.1681 H         1 UNK         0.0839 
     99 H99        22.4959  -28.0616  -43.2102 H         1 UNK         0.0839 
    100 H100       26.1693  -28.1419  -41.7539 H         1 UNK         0.2998 
    101 H101       26.3217  -30.6140  -40.4074 H         1 UNK         0.0822 
    102 H102       28.5358  -30.7982  -41.5632 H         1 UNK         0.0787 
    103 H103       28.1039  -29.4689  -42.6297 H         1 UNK         0.0787 
    104 H104       28.2987  -29.1918  -40.8978 H         1 UNK         0.0787 
    105 H105       25.2390  -29.9134  -43.6514 H         1 UNK         0.3055 
    106 H106       25.3529  -32.5087  -44.8223 H         1 UNK         0.1106 
    107 H107       23.6079  -31.5523  -46.3609 H         1 UNK         0.0828 
    108 H108       23.4249  -30.1647  -45.2993 H         1 UNK         0.0828 
    109 H109       24.9491  -30.4416  -46.1437 H         1 UNK         0.0828 
    110 H110       23.2985  -31.2397  -42.3020 H         1 UNK         0.2931 
    111 H111       21.5258  -33.6109  -42.4342 H         1 UNK         0.0412 
    112 H112       24.1970  -33.8628  -39.5750 H         1 UNK         0.3472 
    113 H113       24.4708  -33.1114  -41.1272 H         1 UNK         0.3472 
    114 H114       20.5746  -31.1139  -42.4448 H         1 UNK         0.0970 
    115 H115       20.9217  -31.1586  -40.7465 H         1 UNK         0.0970 
    116 H116       17.8877  -33.8303  -43.0456 H         1 UNK         0.0612 
    117 H117       19.4600  -33.3696  -43.6464 H         1 UNK         0.0612 
@<TRIPOS>BOND
     1    1    2 1    
     2    1   62 1    
     3    1   63 1    
     4    1   64 1    
     5    2    3 2    
     6    2    4 am   BACKBONE|DICT|INTERRES
     7    4    5 1    
     8    4   65 1    
     9    5    6 1    
    10    5   25 1    
    11    5   66 1    
    12    6    7 1    
    13    6   67 1    
    14    6   68 1    
    15    7    8 1    
    16    8    9 1    
    17    8   69 1    
    18    8   70 1    
    19    9   10 ar   
    20    9   14 ar   
    21   10   11 ar   
    22   10   71 1    
    23   11   12 ar   
    24   11   61 1    
    25   12   13 ar   
    26   12   72 1    
    27   13   14 ar   
    28   13   15 1    
    29   14   73 1    
    30   15   16 1    
    31   15   74 1    
    32   15   75 1    
    33   16   17 1    
    34   17   18 1    
    35   17   76 1    
    36   17   77 1    
    37   18   19 1    
    38   18   27 1    
    39   18   78 1    
    40   19   20 am   BACKBONE|DICT|INTERRES
    41   19   79 1    
    42   20   21 2    
    43   20   22 1    
    44   22   23 1    
    45   22   24 1    
    46   22   80 1    
    47   23   81 1    
    48   23   82 1    
    49   23   83 1    
    50   24   25 am   BACKBONE|DICT|INTERRES
    51   24   84 1    
    52   25   26 2    
    53   27   28 2    
    54   27   29 am   BACKBONE|DICT|INTERRES
    55   29   30 1    
    56   29   85 1    
    57   30   31 1    
    58   30   32 1    
    59   30   86 1    
    60   31   87 1    
    61   31   88 1    
    62   31   89 1    
    63   32   33 2    
    64   32   34 am   BACKBONE|DICT|INTERRES
    65   34   35 1    
    66   34   90 1    
    67   35   36 1    
    68   35   37 1    
    69   35   91 1    
    70   36   92 1    
    71   36   93 1    
    72   36   94 1    
    73   37   38 2    
    74   37   39 am   BACKBONE|DICT|INTERRES
    75   39   40 1    
    76   39   95 1    
    77   40   41 1    
    78   40   42 1    
    79   40   96 1    
    80   41   97 1    
    81   41   98 1    
    82   41   99 1    
    83   42   43 2    
    84   42   44 am   BACKBONE|DICT|INTERRES
    85   44   45 1    
    86   44  100 1    
    87   45   46 1    
    88   45   47 1    
    89   45  101 1    
    90   46  102 1    
    91   46  103 1    
    92   46  104 1    
    93   47   48 2    
    94   47   49 am   BACKBONE|DICT|INTERRES
    95   49   50 1    
    96   49  105 1    
    97   50   51 1    
    98   50   52 1    
    99   50  106 1    
   100   51  107 1    
   101   51  108 1    
   102   51  109 1    
   103   52   53 2    
   104   52   54 am   BACKBONE|DICT|INTERRES
   105   54   55 1    
   106   54  110 1    
   107   55   56 1    
   108   55   59 1    
   109   55  111 1    
   110   56   57 am   BACKBONE|DICT|INTERRES
   111   56   58 2    
   112   57  112 1    
   113   57  113 1    
   114   59   60 1    
   115   59  114 1    
   116   59  115 1    
   117   60   61 1    
   118   61  116 1    
   119   61  117 1    
@<TRIPOS>SUBSTRUCTURE
     1 UNK         1 GROUP             0       ****    0 ROOT    
