@<TRIPOS>MOLECULE
3R8
117   119    1
SMALL
USER_CHARGES


@<TRIPOS>ATOM
      1 CA         22.3127  -23.6062  -42.3263 C.3       0 UNK        -0.2013 
      2 C          20.8041  -23.5952  -42.5192 C.2       0 UNK         0.4866 
      3 O          20.1548  -22.5987  -42.1985 O.2       0 UNK        -0.5176 
      4 N          20.2500  -24.6844  -43.0581 N.am      1 UNK        -0.4884 
      5 CA         18.8550  -24.8065  -43.4869 C.3       1 UNK         0.0853 
      6 C6         18.0389  -25.7802  -42.5841 C.3       10 UNK        -0.0849 
      7 S7         18.7351  -27.4670  -42.4365 S.3       10 UNK        -0.2776 
      8 C8         17.2396  -28.5119  -42.3327 C.3       10 UNK         0.0316 
      9 C9         17.5036  -29.8827  -42.9384 C.ar      10 UNK        -0.0863 
     10 C10        17.4781  -31.0484  -42.1666 C.ar      10 UNK        -0.1009 
     11 C11        17.7804  -32.2877  -42.7463 C.ar      10 UNK        -0.0712 
     12 C12        18.1026  -32.3565  -44.1059 C.ar      10 UNK        -0.0894 
     13 C13        18.1487  -31.1932  -44.8765 C.ar      10 UNK        -0.0745 
     14 C14        17.8104  -29.9729  -44.2946 C.ar      10 UNK        -0.0972 
     15 C15        18.6234  -31.2250  -46.3195 C.3       10 UNK         0.0209 
     16 S16        20.4435  -31.3220  -46.4660 S.3       10 UNK        -0.2568 
     17 C17        21.1107  -30.1580  -45.2186 C.3       10 UNK        -0.0983 
     18 CA         21.3121  -28.7150  -45.7527 C.3       3 UNK         0.0876 
     19 N          20.0491  -27.9928  -45.8656 N.am      3 UNK        -0.4424 
     20 C          19.4397  -27.5926  -46.9872 C.2       2 UNK         0.4918 
     21 O          19.8049  -27.9092  -48.1193 O.2       2 UNK        -0.4875 
     22 CA         18.2146  -26.6643  -46.8189 C.3       2 UNK         0.0481 
     23 CB         16.9068  -27.3766  -47.2058 C.3       2 UNK        -0.1831 
     24 N          18.1001  -26.1104  -45.4607 N.am      2 UNK        -0.4498 
     25 C          18.8802  -25.1218  -44.9983 C.2       1 UNK         0.5027 
     26 O          19.6352  -24.4745  -45.7291 O.2       1 UNK        -0.4969 
     27 C          22.2189  -27.8871  -44.8149 C.2       3 UNK         0.5005 
     28 O          21.7678  -26.9040  -44.2151 O.2       3 UNK        -0.5279 
     29 N          23.4951  -28.2834  -44.7310 N.am      4 UNK        -0.4463 
     30 CA         24.5427  -27.6061  -43.9641 C.3       4 UNK         0.0283 
     31 CB         25.8930  -28.2718  -44.2832 C.3       4 UNK        -0.1875 
     32 C          24.3104  -27.6029  -42.4415 C.2       4 UNK         0.4949 
     33 O          23.6967  -28.5289  -41.9025 O.2       4 UNK        -0.5039 
     34 N          24.8893  -26.5813  -41.7917 N.am      5 UNK        -0.4663 
     35 CA         24.9767  -26.3620  -40.3417 C.3       5 UNK         0.0242 
     36 CB         25.9289  -27.4045  -39.7131 C.3       5 UNK        -0.1982 
     37 C          23.6035  -26.3019  -39.6433 C.2       5 UNK         0.5017 
     38 O          22.5930  -26.0018  -40.2830 O.2       5 UNK        -0.5012 
     39 N          23.5760  -26.5929  -38.3363 N.am      6 UNK        -0.4439 
     40 CA         22.3606  -26.7163  -37.5288 C.3       6 UNK         0.0297 
     41 CB         22.7214  -26.5057  -36.0450 C.3       6 UNK        -0.2006 
     42 C          21.6655  -28.0683  -37.7918 C.2       6 UNK         0.4892 
     43 O          21.5482  -28.8858  -36.8766 O.2       6 UNK        -0.5089 
     44 N          21.2505  -28.2727  -39.0512 N.am      7 UNK        -0.4243 
     45 CA         20.6419  -29.4789  -39.6169 C.3       7 UNK         0.0196 
     46 CB         19.2370  -29.7152  -39.0222 C.3       7 UNK        -0.2007 
     47 C          21.5617  -30.7078  -39.4932 C.2       7 UNK         0.5020 
     48 O          21.2285  -31.6619  -38.7878 O.2       7 UNK        -0.5147 
     49 N          22.7099  -30.6714  -40.1883 N.am      8 UNK        -0.4734 
     50 CA         23.6058  -31.8303  -40.3223 C.3       8 UNK         0.0238 
     51 CB         24.9865  -31.3704  -40.8183 C.3       8 UNK        -0.1912 
     52 C          23.0380  -32.9186  -41.2539 C.2       8 UNK         0.5038 
     53 O          23.4546  -34.0733  -41.1542 O.2       8 UNK        -0.5046 
     54 N          22.1054  -32.5251  -42.1320 N.am      9 UNK        -0.4200 
     55 CA         21.3621  -33.3731  -43.0776 C.3       9 UNK         0.0839 
     56 C          22.2187  -33.9762  -44.2319 C.2       9 UNK         0.5513 
     57 N          23.4259  -33.4847  -44.4863 N.am      9 UNK        -0.7519 
     58 O          21.7752  -34.8869  -44.9268 O.2       9 UNK        -0.4960 
     59 C59        20.4580  -34.4376  -42.3843 C.3       10 UNK        -0.0876 
     60 S60        19.3886  -33.7727  -41.0562 S.3       10 UNK        -0.2414 
     61 C61        17.7890  -33.5479  -41.8961 C.3       10 UNK         0.0169 
     62 H62        22.7501  -24.5569  -42.6322 H         1 UNK         0.0903 
     63 H63        22.7736  -22.8144  -42.9156 H         1 UNK         0.0903 
     64 H64        22.5587  -23.4412  -41.2778 H         1 UNK         0.0903 
     65 H65        20.8445  -25.4641  -43.3375 H         1 UNK         0.3096 
     66 H66        18.3664  -23.8318  -43.4227 H         1 UNK         0.1121 
     67 H67        17.9931  -25.3654  -41.5759 H         1 UNK         0.0849 
     68 H68        17.0011  -25.8227  -42.9180 H         1 UNK         0.0849 
     69 H69        16.9311  -28.5949  -41.2896 H         1 UNK         0.0865 
     70 H70        16.4082  -28.0511  -42.8672 H         1 UNK         0.0865 
     71 H71        17.2387  -30.9938  -41.1142 H         1 UNK         0.1346 
     72 H72        18.3649  -33.3055  -44.5532 H         1 UNK         0.1412 
     73 H73        17.8467  -29.0724  -44.8829 H         1 UNK         0.1426 
     74 H74        18.1834  -32.0830  -46.8297 H         1 UNK         0.0716 
     75 H75        18.2719  -30.3444  -46.8580 H         1 UNK         0.0716 
     76 H76        22.0679  -30.5878  -44.9192 H         1 UNK         0.0695 
     77 H77        20.5108  -30.1605  -44.3089 H         1 UNK         0.0695 
     78 H78        21.8071  -28.7528  -46.7258 H         1 UNK         0.0983 
     79 H79        19.7391  -27.5964  -44.9884 H         1 UNK         0.3095 
     80 H80        18.3484  -25.8375  -47.5198 H         1 UNK         0.0454 
     81 H81        16.6630  -28.2017  -46.5392 H         1 UNK         0.0851 
     82 H82        16.0654  -26.6836  -47.1972 H         1 UNK         0.0851 
     83 H83        16.9718  -27.7862  -48.2149 H         1 UNK         0.0851 
     84 H84        17.4904  -26.5911  -44.8155 H         1 UNK         0.2976 
     85 H85        23.7792  -29.1097  -45.2365 H         1 UNK         0.3116 
     86 H86        24.5764  -26.5695  -44.3080 H         1 UNK         0.0646 
     87 H87        26.1191  -28.2278  -45.3490 H         1 UNK         0.0847 
     88 H88        25.9069  -29.3195  -43.9775 H         1 UNK         0.0847 
     89 H89        26.7118  -27.7731  -43.7622 H         1 UNK         0.0847 
     90 H90        25.3429  -25.8738  -42.3526 H         1 UNK         0.3040 
     91 H91        25.4241  -25.3754  -40.2107 H         1 UNK         0.1015 
     92 H92        26.2203  -27.1258  -38.6999 H         1 UNK         0.0786 
     93 H93        26.8501  -27.4969  -40.2888 H         1 UNK         0.0786 
     94 H94        25.4679  -28.3908  -39.6673 H         1 UNK         0.0786 
     95 H95        24.4422  -26.8540  -37.8864 H         1 UNK         0.3172 
     96 H96        21.6600  -25.9272  -37.8138 H         1 UNK         0.0595 
     97 H97        23.4283  -27.2569  -35.6874 H         1 UNK         0.0839 
     98 H98        21.8323  -26.5692  -35.4160 H         1 UNK         0.0839 
     99 H99        23.1631  -25.5221  -35.8788 H         1 UNK         0.0839 
    100 H100       21.4594  -27.5338  -39.7184 H         1 UNK         0.2998 
    101 H101       20.5163  -29.2931  -40.6853 H         1 UNK         0.0822 
    102 H102       18.5705  -28.8804  -39.2408 H         1 UNK         0.0787 
    103 H103       18.7855  -30.6145  -39.4425 H         1 UNK         0.0787 
    104 H104       19.2675  -29.8498  -37.9404 H         1 UNK         0.0787 
    105 H105       22.9513  -29.8423  -40.7304 H         1 UNK         0.3055 
    106 H106       23.7332  -32.2846  -39.3369 H         1 UNK         0.1106 
    107 H107       25.4420  -30.6660  -40.1242 H         1 UNK         0.0828 
    108 H108       25.6697  -32.2161  -40.9087 H         1 UNK         0.0828 
    109 H109       24.9296  -30.8938  -41.7972 H         1 UNK         0.0828 
    110 H110       21.8471  -31.5504  -42.1268 H         1 UNK         0.2931 
    111 H111       20.6990  -32.6761  -43.5846 H         1 UNK         0.0412 
    112 H112       23.8064  -32.7445  -43.9204 H         1 UNK         0.3472 
    113 H113       23.9675  -33.8752  -45.2413 H         1 UNK         0.3472 
    114 H114       21.0786  -35.2210  -41.9464 H         1 UNK         0.0970 
    115 H115       19.8290  -34.9403  -43.1206 H         1 UNK         0.0970 
    116 H116       17.0052  -33.4817  -41.1401 H         1 UNK         0.0612 
    117 H117       17.5556  -34.4267  -42.4990 H         1 UNK         0.0612 
@<TRIPOS>BOND
     1    1    2 1    
     2    1   62 1    
     3    1   63 1    
     4    1   64 1    
     5    2    3 2    
     6    2    4 am   BACKBONE|DICT|INTERRES
     7    4    5 1    
     8    4   65 1    
     9    5    6 1    
    10    5   25 1    
    11    5   66 1    
    12    6    7 1    
    13    6   67 1    
    14    6   68 1    
    15    7    8 1    
    16    8    9 1    
    17    8   69 1    
    18    8   70 1    
    19    9   10 ar   
    20    9   14 ar   
    21   10   11 ar   
    22   10   71 1    
    23   11   12 ar   
    24   11   61 1    
    25   12   13 ar   
    26   12   72 1    
    27   13   14 ar   
    28   13   15 1    
    29   14   73 1    
    30   15   16 1    
    31   15   74 1    
    32   15   75 1    
    33   16   17 1    
    34   17   18 1    
    35   17   76 1    
    36   17   77 1    
    37   18   19 1    
    38   18   27 1    
    39   18   78 1    
    40   19   20 am   BACKBONE|DICT|INTERRES
    41   19   79 1    
    42   20   21 2    
    43   20   22 1    
    44   22   23 1    
    45   22   24 1    
    46   22   80 1    
    47   23   81 1    
    48   23   82 1    
    49   23   83 1    
    50   24   25 am   BACKBONE|DICT|INTERRES
    51   24   84 1    
    52   25   26 2    
    53   27   28 2    
    54   27   29 am   BACKBONE|DICT|INTERRES
    55   29   30 1    
    56   29   85 1    
    57   30   31 1    
    58   30   32 1    
    59   30   86 1    
    60   31   87 1    
    61   31   88 1    
    62   31   89 1    
    63   32   33 2    
    64   32   34 am   BACKBONE|DICT|INTERRES
    65   34   35 1    
    66   34   90 1    
    67   35   36 1    
    68   35   37 1    
    69   35   91 1    
    70   36   92 1    
    71   36   93 1    
    72   36   94 1    
    73   37   38 2    
    74   37   39 am   BACKBONE|DICT|INTERRES
    75   39   40 1    
    76   39   95 1    
    77   40   41 1    
    78   40   42 1    
    79   40   96 1    
    80   41   97 1    
    81   41   98 1    
    82   41   99 1    
    83   42   43 2    
    84   42   44 am   BACKBONE|DICT|INTERRES
    85   44   45 1    
    86   44  100 1    
    87   45   46 1    
    88   45   47 1    
    89   45  101 1    
    90   46  102 1    
    91   46  103 1    
    92   46  104 1    
    93   47   48 2    
    94   47   49 am   BACKBONE|DICT|INTERRES
    95   49   50 1    
    96   49  105 1    
    97   50   51 1    
    98   50   52 1    
    99   50  106 1    
   100   51  107 1    
   101   51  108 1    
   102   51  109 1    
   103   52   53 2    
   104   52   54 am   BACKBONE|DICT|INTERRES
   105   54   55 1    
   106   54  110 1    
   107   55   56 1    
   108   55   59 1    
   109   55  111 1    
   110   56   57 am   BACKBONE|DICT|INTERRES
   111   56   58 2    
   112   57  112 1    
   113   57  113 1    
   114   59   60 1    
   115   59  114 1    
   116   59  115 1    
   117   60   61 1    
   118   61  116 1    
   119   61  117 1    
@<TRIPOS>SUBSTRUCTURE
     1 UNK         1 GROUP             0       ****    0 ROOT    
