@<TRIPOS>MOLECULE
3R8
117   119    1
SMALL
USER_CHARGES


@<TRIPOS>ATOM
      1 CA         14.9699  -22.9319  -42.2206 C.3       0 UNK        -0.2013 
      2 C          15.9487  -23.8002  -42.9961 C.2       0 UNK         0.4866 
      3 O          15.9594  -23.7643  -44.2275 O.2       0 UNK        -0.5176 
      4 N          16.7810  -24.5754  -42.2895 N.am      1 UNK        -0.4884 
      5 CA         17.7826  -25.4915  -42.8515 C.3       1 UNK         0.0853 
      6 C6         18.1255  -26.6397  -41.8660 C.3       10 UNK        -0.0849 
      7 S7         16.6861  -27.7232  -41.5704 S.3       10 UNK        -0.2776 
      8 C8         17.4611  -29.3785  -41.4926 C.3       10 UNK         0.0316 
      9 C9         18.0366  -29.9385  -42.7984 C.ar      10 UNK        -0.0863 
     10 C10        18.6808  -31.1790  -42.7485 C.ar      10 UNK        -0.1009 
     11 C11        19.2459  -31.7450  -43.8952 C.ar      10 UNK        -0.0712 
     12 C12        19.1699  -31.0557  -45.1083 C.ar      10 UNK        -0.0894 
     13 C13        18.5129  -29.8243  -45.1863 C.ar      10 UNK        -0.0745 
     14 C14        17.9386  -29.2798  -44.0324 C.ar      10 UNK        -0.0972 
     15 C15        18.3852  -29.1114  -46.5291 C.3       10 UNK         0.0209 
     16 S16        18.9398  -27.3756  -46.4816 S.3       10 UNK        -0.2568 
     17 C17        20.7225  -27.5662  -46.1435 C.3       10 UNK        -0.0983 
     18 CA         21.5318  -26.2803  -46.4683 C.3       3 UNK         0.0876 
     19 N          21.0551  -25.1560  -45.6659 N.am      3 UNK        -0.4424 
     20 C          20.4999  -24.0292  -46.1153 C.2       2 UNK         0.4918 
     21 O          20.3977  -23.7362  -47.3080 O.2       2 UNK        -0.4875 
     22 CA         19.9056  -23.1105  -45.0281 C.3       2 UNK         0.0481 
     23 CB         19.3289  -21.8035  -45.6019 C.3       2 UNK        -0.1831 
     24 N          18.8509  -23.8125  -44.2903 N.am      2 UNK        -0.4498 
     25 C          19.0373  -24.7300  -43.3318 C.2       1 UNK         0.5027 
     26 O          20.1453  -24.9909  -42.8580 O.2       1 UNK        -0.4969 
     27 C          23.0392  -26.4738  -46.2063 C.2       3 UNK         0.5005 
     28 O          23.6282  -25.7500  -45.3971 O.2       3 UNK        -0.5279 
     29 N          23.6478  -27.4528  -46.8933 N.am      4 UNK        -0.4463 
     30 CA         25.0670  -27.8150  -46.7652 C.3       4 UNK         0.0283 
     31 CB         25.4259  -28.8454  -47.8483 C.3       4 UNK        -0.1875 
     32 C          25.4634  -28.3438  -45.3716 C.2       4 UNK         0.4949 
     33 O          26.6326  -28.2428  -44.9987 O.2       4 UNK        -0.5039 
     34 N          24.4908  -28.8798  -44.6287 N.am      5 UNK        -0.4663 
     35 CA         24.5987  -29.2950  -43.2358 C.3       5 UNK         0.0242 
     36 CB         25.0908  -30.7520  -43.1610 C.3       5 UNK        -0.1982 
     37 C          23.2177  -29.1317  -42.5891 C.2       5 UNK         0.5017 
     38 O          22.2140  -29.0772  -43.3022 O.2       5 UNK        -0.5012 
     39 N          23.1877  -29.0803  -41.2557 N.am      6 UNK        -0.4439 
     40 CA         21.9846  -28.9917  -40.4331 C.3       6 UNK         0.0297 
     41 CB         21.5181  -27.5277  -40.3349 C.3       6 UNK        -0.2006 
     42 C          22.3121  -29.5700  -39.0515 C.2       6 UNK         0.4892 
     43 O          23.4930  -29.7234  -38.7248 O.2       6 UNK        -0.5089 
     44 N          21.2661  -29.8935  -38.2779 N.am      7 UNK        -0.4243 
     45 CA         21.2705  -30.4784  -36.9260 C.3       7 UNK         0.0196 
     46 CB         21.9693  -29.5573  -35.9052 C.3       7 UNK        -0.2007 
     47 C          21.8260  -31.9132  -36.8685 C.2       7 UNK         0.5020 
     48 O          21.1041  -32.8266  -36.4702 O.2       7 UNK        -0.5147 
     49 N          23.0836  -32.0919  -37.2888 N.am      8 UNK        -0.4734 
     50 CA         23.7420  -33.3925  -37.4502 C.3       8 UNK         0.0238 
     51 CB         25.2654  -33.1867  -37.4315 C.3       8 UNK        -0.1912 
     52 C          23.3122  -34.1151  -38.7407 C.2       8 UNK         0.5038 
     53 O          23.4752  -35.3321  -38.8337 O.2       8 UNK        -0.5046 
     54 N          22.7847  -33.3513  -39.7063 N.am      9 UNK        -0.4200 
     55 CA         22.2036  -33.8240  -40.9675 C.3       9 UNK         0.0839 
     56 C          20.9548  -34.7157  -40.7262 C.2       9 UNK         0.5513 
     57 N          20.8891  -35.8844  -41.3486 N.am      9 UNK        -0.7519 
     58 O          20.0318  -34.3324  -40.0110 O.2       9 UNK        -0.4960 
     59 C59        21.8773  -32.6139  -41.8798 C.3       10 UNK        -0.0876 
     60 S60        21.7012  -33.0494  -43.6420 S.3       10 UNK        -0.2414 
     61 C61        19.8918  -33.1233  -43.8390 C.3       10 UNK         0.0169 
     62 H62        13.9464  -23.1808  -42.4995 H         1 UNK         0.0903 
     63 H63        15.0698  -23.0661  -41.1437 H         1 UNK         0.0903 
     64 H64        15.1394  -21.8800  -42.4490 H         1 UNK         0.0903 
     65 H65        16.7346  -24.5553  -41.2804 H         1 UNK         0.3096 
     66 H66        17.3589  -25.9507  -43.7480 H         1 UNK         0.1121 
     67 H67        18.9426  -27.2483  -42.2590 H         1 UNK         0.0849 
     68 H68        18.4754  -26.2432  -40.9112 H         1 UNK         0.0849 
     69 H69        18.2504  -29.3517  -40.7399 H         1 UNK         0.0865 
     70 H70        16.7109  -30.0790  -41.1229 H         1 UNK         0.0865 
     71 H71        18.7315  -31.7145  -41.8102 H         1 UNK         0.1346 
     72 H72        19.6042  -31.4935  -45.9967 H         1 UNK         0.1412 
     73 H73        17.4191  -28.3373  -44.1126 H         1 UNK         0.1426 
     74 H74        18.9424  -29.6372  -47.3061 H         1 UNK         0.0716 
     75 H75        17.3386  -29.1335  -46.8351 H         1 UNK         0.0716 
     76 H76        20.8325  -27.8350  -45.0921 H         1 UNK         0.0695 
     77 H77        21.0869  -28.4168  -46.7214 H         1 UNK         0.0695 
     78 H78        21.4207  -26.0537  -47.5310 H         1 UNK         0.0983 
     79 H79        21.1237  -25.2791  -44.6618 H         1 UNK         0.3095 
     80 H80        20.7107  -22.8476  -44.3389 H         1 UNK         0.0454 
     81 H81        18.5089  -21.9933  -46.2957 H         1 UNK         0.0851 
     82 H82        18.9540  -21.1548  -44.8102 H         1 UNK         0.0851 
     83 H83        20.0929  -21.2442  -46.1434 H         1 UNK         0.0851 
     84 H84        17.8956  -23.6659  -44.6044 H         1 UNK         0.2976 
     85 H85        23.1049  -27.9971  -47.5488 H         1 UNK         0.3116 
     86 H86        25.6548  -26.9126  -46.9464 H         1 UNK         0.0646 
     87 H87        26.4828  -29.1116  -47.7980 H         1 UNK         0.0847 
     88 H88        25.2414  -28.4539  -48.8488 H         1 UNK         0.0847 
     89 H89        24.8538  -29.7672  -47.7348 H         1 UNK         0.0847 
     90 H90        23.5410  -28.8819  -44.9803 H         1 UNK         0.3040 
     91 H91        25.3006  -28.6392  -42.7154 H         1 UNK         0.1015 
     92 H92        26.0806  -30.8580  -43.6053 H         1 UNK         0.0786 
     93 H93        24.4167  -31.4302  -43.6855 H         1 UNK         0.0786 
     94 H94        25.1634  -31.0931  -42.1276 H         1 UNK         0.0786 
     95 H95        24.0404  -29.1846  -40.7172 H         1 UNK         0.3172 
     96 H96        21.1947  -29.5975  -40.8829 H         1 UNK         0.0595 
     97 H97        22.2746  -26.8951  -39.8690 H         1 UNK         0.0839 
     98 H98        20.6074  -27.4405  -39.7415 H         1 UNK         0.0839 
     99 H99        21.3004  -27.1136  -41.3198 H         1 UNK         0.0839 
    100 H100       20.3432  -29.7404  -38.6603 H         1 UNK         0.2998 
    101 H101       20.2214  -30.5422  -36.6317 H         1 UNK         0.0822 
    102 H102       21.5120  -28.5680  -35.8891 H         1 UNK         0.0787 
    103 H103       21.8908  -29.9662  -34.8970 H         1 UNK         0.0787 
    104 H104       23.0308  -29.4299  -36.1189 H         1 UNK         0.0787 
    105 H105       23.5757  -31.2710  -37.6348 H         1 UNK         0.3055 
    106 H106       23.4685  -34.0341  -36.6093 H         1 UNK         0.1106 
    107 H107       25.7897  -34.1385  -37.5290 H         1 UNK         0.0828 
    108 H108       25.5972  -32.5458  -38.2495 H         1 UNK         0.0828 
    109 H109       25.5925  -32.7330  -36.4958 H         1 UNK         0.0828 
    110 H110       22.6806  -32.3697  -39.5058 H         1 UNK         0.2931 
    111 H111       22.9748  -34.4231  -41.4566 H         1 UNK         0.0412 
    112 H112       21.6378  -36.1957  -41.9482 H         1 UNK         0.3472 
    113 H113       20.0797  -36.4697  -41.2124 H         1 UNK         0.3472 
    114 H114       22.6977  -31.8996  -41.8335 H         1 UNK         0.0970 
    115 H115       21.0023  -32.0717  -41.5234 H         1 UNK         0.0970 
    116 H116       19.6691  -33.6632  -44.7605 H         1 UNK         0.0612 
    117 H117       19.4547  -33.7163  -43.0350 H         1 UNK         0.0612 
@<TRIPOS>BOND
     1    1    2 1    
     2    1   62 1    
     3    1   63 1    
     4    1   64 1    
     5    2    3 2    
     6    2    4 am   BACKBONE|DICT|INTERRES
     7    4    5 1    
     8    4   65 1    
     9    5    6 1    
    10    5   25 1    
    11    5   66 1    
    12    6    7 1    
    13    6   67 1    
    14    6   68 1    
    15    7    8 1    
    16    8    9 1    
    17    8   69 1    
    18    8   70 1    
    19    9   10 ar   
    20    9   14 ar   
    21   10   11 ar   
    22   10   71 1    
    23   11   12 ar   
    24   11   61 1    
    25   12   13 ar   
    26   12   72 1    
    27   13   14 ar   
    28   13   15 1    
    29   14   73 1    
    30   15   16 1    
    31   15   74 1    
    32   15   75 1    
    33   16   17 1    
    34   17   18 1    
    35   17   76 1    
    36   17   77 1    
    37   18   19 1    
    38   18   27 1    
    39   18   78 1    
    40   19   20 am   BACKBONE|DICT|INTERRES
    41   19   79 1    
    42   20   21 2    
    43   20   22 1    
    44   22   23 1    
    45   22   24 1    
    46   22   80 1    
    47   23   81 1    
    48   23   82 1    
    49   23   83 1    
    50   24   25 am   BACKBONE|DICT|INTERRES
    51   24   84 1    
    52   25   26 2    
    53   27   28 2    
    54   27   29 am   BACKBONE|DICT|INTERRES
    55   29   30 1    
    56   29   85 1    
    57   30   31 1    
    58   30   32 1    
    59   30   86 1    
    60   31   87 1    
    61   31   88 1    
    62   31   89 1    
    63   32   33 2    
    64   32   34 am   BACKBONE|DICT|INTERRES
    65   34   35 1    
    66   34   90 1    
    67   35   36 1    
    68   35   37 1    
    69   35   91 1    
    70   36   92 1    
    71   36   93 1    
    72   36   94 1    
    73   37   38 2    
    74   37   39 am   BACKBONE|DICT|INTERRES
    75   39   40 1    
    76   39   95 1    
    77   40   41 1    
    78   40   42 1    
    79   40   96 1    
    80   41   97 1    
    81   41   98 1    
    82   41   99 1    
    83   42   43 2    
    84   42   44 am   BACKBONE|DICT|INTERRES
    85   44   45 1    
    86   44  100 1    
    87   45   46 1    
    88   45   47 1    
    89   45  101 1    
    90   46  102 1    
    91   46  103 1    
    92   46  104 1    
    93   47   48 2    
    94   47   49 am   BACKBONE|DICT|INTERRES
    95   49   50 1    
    96   49  105 1    
    97   50   51 1    
    98   50   52 1    
    99   50  106 1    
   100   51  107 1    
   101   51  108 1    
   102   51  109 1    
   103   52   53 2    
   104   52   54 am   BACKBONE|DICT|INTERRES
   105   54   55 1    
   106   54  110 1    
   107   55   56 1    
   108   55   59 1    
   109   55  111 1    
   110   56   57 am   BACKBONE|DICT|INTERRES
   111   56   58 2    
   112   57  112 1    
   113   57  113 1    
   114   59   60 1    
   115   59  114 1    
   116   59  115 1    
   117   60   61 1    
   118   61  116 1    
   119   61  117 1    
@<TRIPOS>SUBSTRUCTURE
     1 UNK         1 GROUP             0       ****    0 ROOT    
