@<TRIPOS>MOLECULE
3R8
117   119    1
SMALL
USER_CHARGES


@<TRIPOS>ATOM
      1 CA         16.8680  -21.7822  -42.2702 C.3       0 UNK        -0.2013 
      2 C          16.8462  -22.6575  -43.5142 C.2       0 UNK         0.4866 
      3 O          17.3898  -22.2679  -44.5477 O.2       0 UNK        -0.5176 
      4 N          16.2226  -23.8392  -43.4241 N.am      1 UNK        -0.4884 
      5 CA         16.1199  -24.8196  -44.5142 C.3       1 UNK         0.0853 
      6 C6         14.9617  -25.8222  -44.2719 C.3       10 UNK        -0.0849 
      7 S7         15.1002  -26.7655  -42.7076 S.3       10 UNK        -0.2776 
      8 C8         15.0183  -28.4943  -43.2807 C.3       10 UNK         0.0316 
      9 C9         16.3615  -29.0278  -43.7664 C.ar      10 UNK        -0.0863 
     10 C10        17.2946  -29.5138  -42.8461 C.ar      10 UNK        -0.1009 
     11 C11        18.4950  -30.0825  -43.2823 C.ar      10 UNK        -0.0712 
     12 C12        18.7635  -30.1554  -44.6534 C.ar      10 UNK        -0.0894 
     13 C13        17.8450  -29.6619  -45.5914 C.ar      10 UNK        -0.0745 
     14 C14        16.6467  -29.1015  -45.1334 C.ar      10 UNK        -0.0972 
     15 C15        18.0598  -29.7872  -47.1028 C.3       10 UNK         0.0209 
     16 S16        19.7934  -30.0085  -47.6423 S.3       10 UNK        -0.2568 
     17 C17        20.3120  -28.3138  -48.1023 C.3       10 UNK        -0.0983 
     18 CA         21.1077  -27.5489  -47.0151 C.3       3 UNK         0.0876 
     19 N          20.2861  -27.3186  -45.8265 N.am      3 UNK        -0.4424 
     20 C          20.4672  -26.3328  -44.9415 C.2       2 UNK         0.4918 
     21 O          21.2920  -25.4267  -45.0701 O.2       2 UNK        -0.4875 
     22 CA         19.5643  -26.3879  -43.6973 C.3       2 UNK         0.0481 
     23 CB         20.3293  -25.9707  -42.4295 C.3       2 UNK        -0.1831 
     24 N          18.3349  -25.5985  -43.7938 N.am      2 UNK        -0.4498 
     25 C          17.4409  -25.5649  -44.7959 C.2       1 UNK         0.5027 
     26 O          17.5852  -26.1110  -45.8896 O.2       1 UNK        -0.4969 
     27 C          22.4421  -28.2425  -46.6585 C.2       3 UNK         0.5005 
     28 O          23.4321  -28.0741  -47.3729 O.2       3 UNK        -0.5279 
     29 N          22.4328  -28.9966  -45.5529 N.am      4 UNK        -0.4463 
     30 CA         23.5799  -29.6459  -44.9268 C.3       4 UNK         0.0283 
     31 CB         23.1489  -31.0598  -44.5027 C.3       4 UNK        -0.1875 
     32 C          24.0602  -28.8077  -43.7288 C.2       4 UNK         0.4949 
     33 O          23.4947  -27.7478  -43.4474 O.2       4 UNK        -0.5039 
     34 N          25.1032  -29.2884  -43.0413 N.am      5 UNK        -0.4663 
     35 CA         25.7937  -28.6197  -41.9316 C.3       5 UNK         0.0242 
     36 CB         27.1689  -29.2875  -41.7439 C.3       5 UNK        -0.1982 
     37 C          24.9781  -28.5487  -40.6203 C.2       5 UNK         0.5017 
     38 O          25.4367  -29.0264  -39.5801 O.2       5 UNK        -0.5012 
     39 N          23.7941  -27.9255  -40.6933 N.am      6 UNK        -0.4439 
     40 CA         22.8569  -27.6273  -39.6058 C.3       6 UNK         0.0297 
     41 CB         23.4185  -26.4994  -38.7106 C.3       6 UNK        -0.2006 
     42 C          22.4434  -28.8933  -38.8339 C.2       6 UNK         0.4892 
     43 O          21.6656  -29.6872  -39.3634 O.2       6 UNK        -0.5089 
     44 N          22.9719  -29.0612  -37.6129 N.am      7 UNK        -0.4243 
     45 CA         22.7574  -30.2256  -36.7509 C.3       7 UNK         0.0196 
     46 CB         23.3427  -29.9421  -35.3584 C.3       7 UNK        -0.2007 
     47 C          23.3419  -31.5269  -37.3264 C.2       7 UNK         0.5020 
     48 O          22.7854  -32.5963  -37.0759 O.2       7 UNK        -0.5147 
     49 N          24.4161  -31.4264  -38.1220 N.am      8 UNK        -0.4734 
     50 CA         25.0009  -32.5381  -38.8753 C.3       8 UNK         0.0238 
     51 CB         26.5195  -32.3217  -39.0045 C.3       8 UNK        -0.1912 
     52 C          24.2883  -32.6858  -40.2327 C.2       8 UNK         0.5038 
     53 O          24.9218  -32.5913  -41.2859 O.2       8 UNK        -0.5046 
     54 N          22.9661  -32.8782  -40.1695 N.am      9 UNK        -0.4200 
     55 CA         22.0767  -33.0841  -41.3148 C.3       9 UNK         0.0839 
     56 C          22.2942  -34.4727  -41.9768 C.2       9 UNK         0.5513 
     57 N          22.1837  -34.5605  -43.2950 N.am      9 UNK        -0.7519 
     58 O          22.5314  -35.4733  -41.3024 O.2       9 UNK        -0.4960 
     59 C59        20.6013  -32.8461  -40.9009 C.3       10 UNK        -0.0876 
     60 S60        19.5139  -32.4574  -42.3137 S.3       10 UNK        -0.2414 
     61 C61        19.4907  -30.6375  -42.2729 C.3       10 UNK         0.0169 
     62 H62        17.8963  -21.5845  -41.9684 H         1 UNK         0.0903 
     63 H63        16.3834  -20.8279  -42.4748 H         1 UNK         0.0903 
     64 H64        16.3527  -22.2510  -41.4319 H         1 UNK         0.0903 
     65 H65        15.7851  -24.1148  -42.5549 H         1 UNK         0.3096 
     66 H66        15.8861  -24.2692  -45.4289 H         1 UNK         0.1121 
     67 H67        14.0157  -25.2792  -44.2466 H         1 UNK         0.0849 
     68 H68        14.8737  -26.5087  -45.1160 H         1 UNK         0.0849 
     69 H69        14.2582  -28.5924  -44.0574 H         1 UNK         0.0865 
     70 H70        14.6705  -29.1133  -42.4522 H         1 UNK         0.0865 
     71 H71        17.0738  -29.4679  -41.7883 H         1 UNK         0.1346 
     72 H72        19.6773  -30.6319  -44.9788 H         1 UNK         0.1412 
     73 H73        15.9204  -28.7400  -45.8486 H         1 UNK         0.1426 
     74 H74        17.6261  -28.9265  -47.6141 H         1 UNK         0.0716 
     75 H75        17.4946  -30.6554  -47.4442 H         1 UNK         0.0716 
     76 H76        19.4355  -27.7319  -48.3913 H         1 UNK         0.0695 
     77 H77        20.9142  -28.3897  -49.0095 H         1 UNK         0.0695 
     78 H78        21.3697  -26.5740  -47.4326 H         1 UNK         0.0983 
     79 H79        19.5152  -27.9588  -45.6889 H         1 UNK         0.3095 
     80 H80        19.2582  -27.4241  -43.5574 H         1 UNK         0.0454 
     81 H81        19.7482  -26.1690  -41.5289 H         1 UNK         0.0851 
     82 H82        20.5838  -24.9102  -42.4418 H         1 UNK         0.0851 
     83 H83        21.2630  -26.5267  -42.3399 H         1 UNK         0.0851 
     84 H84        18.0805  -25.0864  -42.9625 H         1 UNK         0.2976 
     85 H85        21.5828  -28.9942  -45.0113 H         1 UNK         0.3116 
     86 H86        24.4066  -29.7242  -45.6358 H         1 UNK         0.0646 
     87 H87        23.9444  -31.5939  -43.9814 H         1 UNK         0.0847 
     88 H88        22.8772  -31.6604  -45.3710 H         1 UNK         0.0847 
     89 H89        22.2828  -31.0249  -43.8444 H         1 UNK         0.0847 
     90 H90        25.4760  -30.1889  -43.3074 H         1 UNK         0.3040 
     91 H91        25.9764  -27.5841  -42.2274 H         1 UNK         0.1015 
     92 H92        27.0723  -30.3536  -41.5388 H         1 UNK         0.0786 
     93 H93        27.7196  -28.8393  -40.9156 H         1 UNK         0.0786 
     94 H94        27.7865  -29.1755  -42.6352 H         1 UNK         0.0786 
     95 H95        23.5008  -27.6450  -41.6280 H         1 UNK         0.3172 
     96 H96        21.9475  -27.2495  -40.0743 H         1 UNK         0.0595 
     97 H97        24.3798  -26.7590  -38.2656 H         1 UNK         0.0839 
     98 H98        22.7290  -26.2567  -37.9008 H         1 UNK         0.0839 
     99 H99        23.5643  -25.5851  -39.2861 H         1 UNK         0.0839 
    100 H100       23.6204  -28.3631  -37.2790 H         1 UNK         0.2998 
    101 H101       21.6795  -30.3691  -36.6484 H         1 UNK         0.0822 
    102 H102       22.8780  -29.0677  -34.9022 H         1 UNK         0.0787 
    103 H103       23.1739  -30.7845  -34.6859 H         1 UNK         0.0787 
    104 H104       24.4189  -29.7691  -35.4001 H         1 UNK         0.0787 
    105 H105       24.7649  -30.5011  -38.3570 H         1 UNK         0.3055 
    106 H106       24.8502  -33.4740  -38.3322 H         1 UNK         0.1106 
    107 H107       26.9832  -33.1221  -39.5824 H         1 UNK         0.0828 
    108 H108       26.7537  -31.3807  -39.4995 H         1 UNK         0.0828 
    109 H109       26.9997  -32.3094  -38.0261 H         1 UNK         0.0828 
    110 H110       22.5447  -32.9470  -39.2523 H         1 UNK         0.2931 
    111 H111       22.3476  -32.3168  -42.0380 H         1 UNK         0.0412 
    112 H112       21.9457  -33.7542  -43.8499 H         1 UNK         0.3472 
    113 H113       22.3103  -35.4564  -43.7395 H         1 UNK         0.3472 
    114 H114       20.5368  -32.0206  -40.1901 H         1 UNK         0.0970 
    115 H115       20.1997  -33.7142  -40.3746 H         1 UNK         0.0970 
    116 H116       19.2378  -30.3021  -41.2657 H         1 UNK         0.0612 
    117 H117       20.4880  -30.2502  -42.4835 H         1 UNK         0.0612 
@<TRIPOS>BOND
     1    1    2 1    
     2    1   62 1    
     3    1   63 1    
     4    1   64 1    
     5    2    3 2    
     6    2    4 am   BACKBONE|DICT|INTERRES
     7    4    5 1    
     8    4   65 1    
     9    5    6 1    
    10    5   25 1    
    11    5   66 1    
    12    6    7 1    
    13    6   67 1    
    14    6   68 1    
    15    7    8 1    
    16    8    9 1    
    17    8   69 1    
    18    8   70 1    
    19    9   10 ar   
    20    9   14 ar   
    21   10   11 ar   
    22   10   71 1    
    23   11   12 ar   
    24   11   61 1    
    25   12   13 ar   
    26   12   72 1    
    27   13   14 ar   
    28   13   15 1    
    29   14   73 1    
    30   15   16 1    
    31   15   74 1    
    32   15   75 1    
    33   16   17 1    
    34   17   18 1    
    35   17   76 1    
    36   17   77 1    
    37   18   19 1    
    38   18   27 1    
    39   18   78 1    
    40   19   20 am   BACKBONE|DICT|INTERRES
    41   19   79 1    
    42   20   21 2    
    43   20   22 1    
    44   22   23 1    
    45   22   24 1    
    46   22   80 1    
    47   23   81 1    
    48   23   82 1    
    49   23   83 1    
    50   24   25 am   BACKBONE|DICT|INTERRES
    51   24   84 1    
    52   25   26 2    
    53   27   28 2    
    54   27   29 am   BACKBONE|DICT|INTERRES
    55   29   30 1    
    56   29   85 1    
    57   30   31 1    
    58   30   32 1    
    59   30   86 1    
    60   31   87 1    
    61   31   88 1    
    62   31   89 1    
    63   32   33 2    
    64   32   34 am   BACKBONE|DICT|INTERRES
    65   34   35 1    
    66   34   90 1    
    67   35   36 1    
    68   35   37 1    
    69   35   91 1    
    70   36   92 1    
    71   36   93 1    
    72   36   94 1    
    73   37   38 2    
    74   37   39 am   BACKBONE|DICT|INTERRES
    75   39   40 1    
    76   39   95 1    
    77   40   41 1    
    78   40   42 1    
    79   40   96 1    
    80   41   97 1    
    81   41   98 1    
    82   41   99 1    
    83   42   43 2    
    84   42   44 am   BACKBONE|DICT|INTERRES
    85   44   45 1    
    86   44  100 1    
    87   45   46 1    
    88   45   47 1    
    89   45  101 1    
    90   46  102 1    
    91   46  103 1    
    92   46  104 1    
    93   47   48 2    
    94   47   49 am   BACKBONE|DICT|INTERRES
    95   49   50 1    
    96   49  105 1    
    97   50   51 1    
    98   50   52 1    
    99   50  106 1    
   100   51  107 1    
   101   51  108 1    
   102   51  109 1    
   103   52   53 2    
   104   52   54 am   BACKBONE|DICT|INTERRES
   105   54   55 1    
   106   54  110 1    
   107   55   56 1    
   108   55   59 1    
   109   55  111 1    
   110   56   57 am   BACKBONE|DICT|INTERRES
   111   56   58 2    
   112   57  112 1    
   113   57  113 1    
   114   59   60 1    
   115   59  114 1    
   116   59  115 1    
   117   60   61 1    
   118   61  116 1    
   119   61  117 1    
@<TRIPOS>SUBSTRUCTURE
     1 UNK         1 GROUP             0       ****    0 ROOT    
