@<TRIPOS>MOLECULE
3R8
117   119    1
SMALL
USER_CHARGES


@<TRIPOS>ATOM
      1 CA         11.8186  -25.5901  -42.9201 C.3       0 UNK        -0.2013 
      2 C          13.0570  -25.1525  -43.6881 C.2       0 UNK         0.4866 
      3 O          12.9665  -24.2769  -44.5492 O.2       0 UNK        -0.5176 
      4 N          14.2113  -25.7491  -43.3782 N.am      1 UNK        -0.4884 
      5 CA         15.5087  -25.4601  -43.9872 C.3       1 UNK         0.0853 
      6 C6         15.6505  -25.9362  -45.4691 C.3       10 UNK        -0.0849 
      7 S7         14.9809  -27.5685  -45.9720 S.3       10 UNK        -0.2776 
      8 C8         15.3637  -28.7404  -44.6234 C.3       10 UNK         0.0316 
      9 C9         16.8341  -29.1344  -44.4758 C.ar      10 UNK        -0.0863 
     10 C10        17.2972  -29.5072  -43.2106 C.ar      10 UNK        -0.1009 
     11 C11        18.6111  -29.9408  -43.0252 C.ar      10 UNK        -0.0712 
     12 C12        19.4762  -29.9993  -44.1200 C.ar      10 UNK        -0.0894 
     13 C13        19.0330  -29.6330  -45.3933 C.ar      10 UNK        -0.0745 
     14 C14        17.7123  -29.2006  -45.5662 C.ar      10 UNK        -0.0972 
     15 C15        19.9655  -29.7552  -46.5902 C.3       10 UNK         0.0209 
     16 S16        20.8665  -28.2114  -46.9325 S.3       10 UNK        -0.2568 
     17 C17        22.2385  -28.2600  -45.7273 C.3       10 UNK        -0.0983 
     18 CA         22.3026  -26.9670  -44.8749 C.3       3 UNK         0.0876 
     19 N          21.2095  -26.8853  -43.9055 N.am      3 UNK        -0.4424 
     20 C          20.1632  -26.0629  -44.0099 C.2       2 UNK         0.4918 
     21 O          19.9983  -25.2669  -44.9402 O.2       2 UNK        -0.4875 
     22 CA         19.1244  -26.1199  -42.8828 C.3       2 UNK         0.0481 
     23 CB         19.5447  -25.2568  -41.6812 C.3       2 UNK        -0.1831 
     24 N          17.8738  -25.6300  -43.4457 N.am      2 UNK        -0.4498 
     25 C          16.6363  -25.9536  -43.0648 C.2       1 UNK         0.5027 
     26 O          16.3679  -26.6050  -42.0509 O.2       1 UNK        -0.4969 
     27 C          23.6381  -26.8469  -44.1222 C.2       3 UNK         0.5005 
     28 O          23.7025  -27.1282  -42.9210 O.2       3 UNK        -0.5279 
     29 N          24.6795  -26.4298  -44.8578 N.am      4 UNK        -0.4463 
     30 CA         26.0114  -26.0618  -44.3610 C.3       4 UNK         0.0283 
     31 CB         26.8401  -25.4950  -45.5256 C.3       4 UNK        -0.1875 
     32 C          26.7961  -27.1755  -43.6459 C.2       4 UNK         0.4949 
     33 O          27.7296  -26.8624  -42.9059 O.2       4 UNK        -0.5039 
     34 N          26.4067  -28.4434  -43.8351 N.am      5 UNK        -0.4663 
     35 CA         26.9578  -29.6208  -43.1536 C.3       5 UNK         0.0242 
     36 CB         26.5972  -30.8767  -43.9693 C.3       5 UNK        -0.1982 
     37 C          26.4933  -29.7179  -41.6835 C.2       5 UNK         0.5017 
     38 O          25.9325  -30.7377  -41.2795 O.2       5 UNK        -0.5012 
     39 N          26.6912  -28.6294  -40.9242 N.am      6 UNK        -0.4439 
     40 CA         26.3486  -28.4197  -39.5096 C.3       6 UNK         0.0297 
     41 CB         27.2739  -29.2731  -38.6167 C.3       6 UNK        -0.2006 
     42 C          24.8586  -28.6364  -39.1633 C.2       6 UNK         0.4892 
     43 O          24.5421  -28.8637  -37.9943 O.2       6 UNK        -0.5089 
     44 N          23.9795  -28.5966  -40.1787 N.am      7 UNK        -0.4243 
     45 CA         22.5696  -29.0034  -40.1485 C.3       7 UNK         0.0196 
     46 CB         21.7228  -27.9846  -39.3584 C.3       7 UNK        -0.2007 
     47 C          22.3593  -30.4583  -39.6697 C.2       7 UNK         0.5020 
     48 O          21.3151  -30.7679  -39.0945 O.2       7 UNK        -0.5147 
     49 N          23.3356  -31.3429  -39.9225 N.am      8 UNK        -0.4734 
     50 CA         23.3484  -32.7393  -39.4734 C.3       8 UNK         0.0238 
     51 CB         24.8113  -33.2016  -39.3343 C.3       8 UNK        -0.1912 
     52 C          22.5165  -33.6671  -40.3823 C.2       8 UNK         0.5038 
     53 O          23.0090  -34.7129  -40.8105 O.2       8 UNK        -0.5046 
     54 N          21.2711  -33.2689  -40.6644 N.am      9 UNK        -0.4200 
     55 CA         20.2898  -34.0397  -41.4443 C.3       9 UNK         0.0839 
     56 C          19.5611  -35.1612  -40.6468 C.2       9 UNK         0.5513 
     57 N          19.7300  -35.2658  -39.3336 N.am      9 UNK        -0.7519 
     58 O          18.8423  -35.9644  -41.2360 O.2       9 UNK        -0.4960 
     59 C59        19.3024  -33.1136  -42.2021 C.3       10 UNK        -0.0876 
     60 S60        18.3961  -31.9484  -41.1227 S.3       10 UNK        -0.2414 
     61 C61        19.0883  -30.3456  -41.6398 C.3       10 UNK         0.0169 
     62 H62        11.3885  -24.7428  -42.3867 H         1 UNK         0.0903 
     63 H63        11.0678  -25.9763  -43.6090 H         1 UNK         0.0903 
     64 H64        12.0441  -26.3701  -42.1931 H         1 UNK         0.0903 
     65 H65        14.2639  -26.4162  -42.6178 H         1 UNK         0.3096 
     66 H66        15.6141  -24.3724  -43.9856 H         1 UNK         0.1121 
     67 H67        16.6878  -25.8906  -45.8045 H         1 UNK         0.0849 
     68 H68        15.1365  -25.2083  -46.0985 H         1 UNK         0.0849 
     69 H69        14.8023  -29.6553  -44.8166 H         1 UNK         0.0865 
     70 H70        14.9710  -28.3535  -43.6840 H         1 UNK         0.0865 
     71 H71        16.6292  -29.4710  -42.3605 H         1 UNK         0.1346 
     72 H72        20.4908  -30.3457  -43.9838 H         1 UNK         0.1412 
     73 H73        17.3673  -28.9371  -46.5563 H         1 UNK         0.1426 
     74 H74        19.3851  -30.0186  -47.4757 H         1 UNK         0.0716 
     75 H75        20.6742  -30.5720  -46.4450 H         1 UNK         0.0716 
     76 H76        23.1551  -28.3910  -46.3055 H         1 UNK         0.0695 
     77 H77        22.1595  -29.1409  -45.0896 H         1 UNK         0.0695 
     78 H78        22.2589  -26.1085  -45.5494 H         1 UNK         0.0983 
     79 H79        21.3349  -27.4400  -43.0715 H         1 UNK         0.3095 
     80 H80        19.0025  -27.1571  -42.5672 H         1 UNK         0.0454 
     81 H81        19.6630  -24.2091  -41.9602 H         1 UNK         0.0851 
     82 H82        20.4960  -25.5946  -41.2693 H         1 UNK         0.0851 
     83 H83        18.8080  -25.3091  -40.8795 H         1 UNK         0.0851 
     84 H84        18.0145  -25.1089  -44.3036 H         1 UNK         0.2976 
     85 H85        24.5226  -26.2578  -45.8412 H         1 UNK         0.3116 
     86 H86        25.8683  -25.2640  -43.6292 H         1 UNK         0.0646 
     87 H87        26.9909  -26.2358  -46.3118 H         1 UNK         0.0847 
     88 H88        27.8271  -25.1766  -45.1863 H         1 UNK         0.0847 
     89 H89        26.3600  -24.6232  -45.9706 H         1 UNK         0.0847 
     90 H90        25.6113  -28.6023  -44.4357 H         1 UNK         0.3040 
     91 H91        28.0468  -29.5356  -43.1364 H         1 UNK         0.1015 
     92 H92        25.5182  -31.0278  -44.0225 H         1 UNK         0.0786 
     93 H93        27.0302  -31.7722  -43.5211 H         1 UNK         0.0786 
     94 H94        26.9787  -30.8116  -44.9885 H         1 UNK         0.0786 
     95 H95        27.1323  -27.8403  -41.3922 H         1 UNK         0.3172 
     96 H96        26.5571  -27.3697  -39.2999 H         1 UNK         0.0595 
     97 H97        27.1370  -29.0332  -37.5615 H         1 UNK         0.0839 
     98 H98        28.3240  -29.0987  -38.8507 H         1 UNK         0.0839 
     99 H99        27.0760  -30.3390  -38.7362 H         1 UNK         0.0839 
    100 H100       24.3307  -28.3435  -41.0950 H         1 UNK         0.2998 
    101 H101       22.2320  -28.9781  -41.1852 H         1 UNK         0.0822 
    102 H102       20.6573  -28.1917  -39.4663 H         1 UNK         0.0787 
    103 H103       21.9531  -28.0102  -38.2928 H         1 UNK         0.0787 
    104 H104       21.8934  -26.9685  -39.7132 H         1 UNK         0.0787 
    105 H105       24.1647  -31.0299  -40.4216 H         1 UNK         0.3055 
    106 H106       22.8967  -32.7885  -38.4800 H         1 UNK         0.1106 
    107 H107       24.8678  -34.2070  -38.9151 H         1 UNK         0.0828 
    108 H108       25.3209  -33.2204  -40.2985 H         1 UNK         0.0828 
    109 H109       25.3744  -32.5435  -38.6722 H         1 UNK         0.0828 
    110 H110       20.9362  -32.4102  -40.2405 H         1 UNK         0.2931 
    111 H111       20.8472  -34.5723  -42.2174 H         1 UNK         0.0412 
    112 H112       20.3101  -34.6083  -38.8383 H         1 UNK         0.3472 
    113 H113       19.2572  -36.0012  -38.8316 H         1 UNK         0.3472 
    114 H114       18.5729  -33.7014  -42.7623 H         1 UNK         0.0970 
    115 H115       19.8539  -32.5559  -42.9585 H         1 UNK         0.0970 
    116 H116       20.1759  -30.3963  -41.6103 H         1 UNK         0.0612 
    117 H117       18.7944  -29.5824  -40.9177 H         1 UNK         0.0612 
@<TRIPOS>BOND
     1    1    2 1    
     2    1   62 1    
     3    1   63 1    
     4    1   64 1    
     5    2    3 2    
     6    2    4 am   BACKBONE|DICT|INTERRES
     7    4    5 1    
     8    4   65 1    
     9    5    6 1    
    10    5   25 1    
    11    5   66 1    
    12    6    7 1    
    13    6   67 1    
    14    6   68 1    
    15    7    8 1    
    16    8    9 1    
    17    8   69 1    
    18    8   70 1    
    19    9   10 ar   
    20    9   14 ar   
    21   10   11 ar   
    22   10   71 1    
    23   11   12 ar   
    24   11   61 1    
    25   12   13 ar   
    26   12   72 1    
    27   13   14 ar   
    28   13   15 1    
    29   14   73 1    
    30   15   16 1    
    31   15   74 1    
    32   15   75 1    
    33   16   17 1    
    34   17   18 1    
    35   17   76 1    
    36   17   77 1    
    37   18   19 1    
    38   18   27 1    
    39   18   78 1    
    40   19   20 am   BACKBONE|DICT|INTERRES
    41   19   79 1    
    42   20   21 2    
    43   20   22 1    
    44   22   23 1    
    45   22   24 1    
    46   22   80 1    
    47   23   81 1    
    48   23   82 1    
    49   23   83 1    
    50   24   25 am   BACKBONE|DICT|INTERRES
    51   24   84 1    
    52   25   26 2    
    53   27   28 2    
    54   27   29 am   BACKBONE|DICT|INTERRES
    55   29   30 1    
    56   29   85 1    
    57   30   31 1    
    58   30   32 1    
    59   30   86 1    
    60   31   87 1    
    61   31   88 1    
    62   31   89 1    
    63   32   33 2    
    64   32   34 am   BACKBONE|DICT|INTERRES
    65   34   35 1    
    66   34   90 1    
    67   35   36 1    
    68   35   37 1    
    69   35   91 1    
    70   36   92 1    
    71   36   93 1    
    72   36   94 1    
    73   37   38 2    
    74   37   39 am   BACKBONE|DICT|INTERRES
    75   39   40 1    
    76   39   95 1    
    77   40   41 1    
    78   40   42 1    
    79   40   96 1    
    80   41   97 1    
    81   41   98 1    
    82   41   99 1    
    83   42   43 2    
    84   42   44 am   BACKBONE|DICT|INTERRES
    85   44   45 1    
    86   44  100 1    
    87   45   46 1    
    88   45   47 1    
    89   45  101 1    
    90   46  102 1    
    91   46  103 1    
    92   46  104 1    
    93   47   48 2    
    94   47   49 am   BACKBONE|DICT|INTERRES
    95   49   50 1    
    96   49  105 1    
    97   50   51 1    
    98   50   52 1    
    99   50  106 1    
   100   51  107 1    
   101   51  108 1    
   102   51  109 1    
   103   52   53 2    
   104   52   54 am   BACKBONE|DICT|INTERRES
   105   54   55 1    
   106   54  110 1    
   107   55   56 1    
   108   55   59 1    
   109   55  111 1    
   110   56   57 am   BACKBONE|DICT|INTERRES
   111   56   58 2    
   112   57  112 1    
   113   57  113 1    
   114   59   60 1    
   115   59  114 1    
   116   59  115 1    
   117   60   61 1    
   118   61  116 1    
   119   61  117 1    
@<TRIPOS>SUBSTRUCTURE
     1 UNK         1 GROUP             0       ****    0 ROOT    
