@<TRIPOS>MOLECULE
3R8
117   119    1
SMALL
USER_CHARGES


@<TRIPOS>ATOM
      1 CA         16.7134  -23.1323  -41.0800 C.3       0 UNK        -0.2013 
      2 C          17.2889  -23.5134  -42.4358 C.2       0 UNK         0.4866 
      3 O          17.7484  -22.6408  -43.1736 O.2       0 UNK        -0.5176 
      4 N          17.2579  -24.8086  -42.7726 N.am      1 UNK        -0.4884 
      5 CA         17.8186  -25.3706  -44.0069 C.3       1 UNK         0.0853 
      6 C6         17.3701  -26.8374  -44.2276 C.3       10 UNK        -0.0849 
      7 S7         15.5584  -27.0649  -44.1952 S.3       10 UNK        -0.2776 
      8 C8         15.3068  -28.3677  -45.4500 C.3       10 UNK         0.0316 
      9 C9         16.2401  -29.5591  -45.2620 C.ar      10 UNK        -0.0863 
     10 C10        16.2202  -30.2999  -44.0744 C.ar      10 UNK        -0.1009 
     11 C11        17.1059  -31.3663  -43.8851 C.ar      10 UNK        -0.0712 
     12 C12        17.9812  -31.7170  -44.9159 C.ar      10 UNK        -0.0894 
     13 C13        18.0437  -30.9561  -46.0865 C.ar      10 UNK        -0.0745 
     14 C14        17.1564  -29.8924  -46.2651 C.ar      10 UNK        -0.0972 
     15 C15        19.1499  -31.2185  -47.0992 C.3       10 UNK         0.0209 
     16 S16        20.5354  -30.0358  -46.9143 S.3       10 UNK        -0.2568 
     17 C17        20.8569  -30.0936  -45.1148 C.3       10 UNK        -0.0983 
     18 CA         21.7910  -28.9840  -44.5779 C.3       3 UNK         0.0876 
     19 N          21.4142  -27.6532  -45.0628 N.am      3 UNK        -0.4424 
     20 C          22.0975  -26.5235  -44.8335 C.2       2 UNK         0.4918 
     21 O          23.1601  -26.4760  -44.2148 O.2       2 UNK        -0.4875 
     22 CA         21.4472  -25.2184  -45.3291 C.3       2 UNK         0.0481 
     23 CB         21.8076  -24.9623  -46.8005 C.3       2 UNK        -0.1831 
     24 N          19.9869  -25.1987  -45.1638 N.am      2 UNK        -0.4498 
     25 C          19.3597  -25.3099  -43.9831 C.2       1 UNK         0.5027 
     26 O          19.9546  -25.4414  -42.9104 O.2       1 UNK        -0.4969 
     27 C          21.7899  -29.0431  -43.0366 C.2       3 UNK         0.5005 
     28 O          22.7144  -29.5980  -42.4461 O.2       3 UNK        -0.5279 
     29 N          20.7493  -28.4655  -42.4181 N.am      4 UNK        -0.4463 
     30 CA         20.5644  -28.4089  -40.9682 C.3       4 UNK         0.0283 
     31 CB         19.1175  -28.0066  -40.6413 C.3       4 UNK        -0.1875 
     32 C          21.5689  -27.4619  -40.2967 C.2       4 UNK         0.4949 
     33 O          22.0937  -27.7993  -39.2371 O.2       4 UNK        -0.5039 
     34 N          21.8653  -26.3273  -40.9474 N.am      5 UNK        -0.4663 
     35 CA         22.9083  -25.3791  -40.5421 C.3       5 UNK         0.0242 
     36 CB         22.8245  -24.1194  -41.4183 C.3       5 UNK        -0.1982 
     37 C          24.3206  -25.9907  -40.5924 C.2       5 UNK         0.5017 
     38 O          25.1304  -25.7180  -39.7062 O.2       5 UNK        -0.5012 
     39 N          24.5718  -26.8391  -41.5995 N.am      6 UNK        -0.4439 
     40 CA         25.7846  -27.6517  -41.7358 C.3       6 UNK         0.0297 
     41 CB         25.9225  -28.0918  -43.2033 C.3       6 UNK        -0.2006 
     42 C          25.8168  -28.8812  -40.8032 C.2       6 UNK         0.4892 
     43 O          26.8621  -29.5264  -40.7135 O.2       6 UNK        -0.5089 
     44 N          24.6857  -29.1934  -40.1507 N.am      7 UNK        -0.4243 
     45 CA         24.4234  -30.3577  -39.2955 C.3       7 UNK         0.0196 
     46 CB         25.2946  -30.3183  -38.0222 C.3       7 UNK        -0.2007 
     47 C          24.5144  -31.7000  -40.0494 C.2       7 UNK         0.5020 
     48 O          24.8795  -32.7152  -39.4550 O.2       7 UNK        -0.5147 
     49 N          24.1670  -31.6925  -41.3431 N.am      8 UNK        -0.4734 
     50 CA         24.2147  -32.8585  -42.2271 C.3       8 UNK         0.0238 
     51 CB         24.2479  -32.3879  -43.6901 C.3       8 UNK        -0.1912 
     52 C          23.0498  -33.8337  -41.9957 C.2       8 UNK         0.5038 
     53 O          23.2417  -35.0376  -42.1717 O.2       8 UNK        -0.5046 
     54 N          21.8823  -33.3068  -41.6007 N.am      9 UNK        -0.4200 
     55 CA         20.6851  -34.0845  -41.2383 C.3       9 UNK         0.0839 
     56 C          20.4134  -34.1377  -39.7063 C.2       9 UNK         0.5513 
     57 N          21.3172  -33.6635  -38.8562 N.am      9 UNK        -0.7519 
     58 O          19.3789  -34.6427  -39.2775 O.2       9 UNK        -0.4960 
     59 C59        19.4475  -33.6760  -42.0833 C.3       10 UNK        -0.0876 
     60 S60        18.7921  -31.9997  -41.7572 S.3       10 UNK        -0.2414 
     61 C61        17.1482  -32.1080  -42.5544 C.3       10 UNK         0.0169 
     62 H62        15.8964  -22.4222  -41.2049 H         1 UNK         0.0903 
     63 H63        16.3303  -23.9987  -40.5412 H         1 UNK         0.0903 
     64 H64        17.4819  -22.6639  -40.4656 H         1 UNK         0.0903 
     65 H65        16.8595  -25.4810  -42.1335 H         1 UNK         0.3096 
     66 H66        17.4616  -24.7638  -44.8422 H         1 UNK         0.1121 
     67 H67        17.7933  -27.4956  -43.4661 H         1 UNK         0.0849 
     68 H68        17.7502  -27.1970  -45.1856 H         1 UNK         0.0849 
     69 H69        15.4341  -27.9275  -46.4403 H         1 UNK         0.0865 
     70 H70        14.2732  -28.7128  -45.4009 H         1 UNK         0.0865 
     71 H71        15.5353  -30.0206  -43.2853 H         1 UNK         0.1346 
     72 H72        18.6789  -32.5287  -44.7724 H         1 UNK         0.1412 
     73 H73        17.2126  -29.2994  -47.1680 H         1 UNK         0.1426 
     74 H74        18.7499  -31.1466  -48.1115 H         1 UNK         0.0716 
     75 H75        19.5335  -32.2344  -46.9922 H         1 UNK         0.0716 
     76 H76        21.2450  -31.0828  -44.8661 H         1 UNK         0.0695 
     77 H77        19.9026  -30.0013  -44.5994 H         1 UNK         0.0695 
     78 H78        22.8077  -29.1868  -44.9210 H         1 UNK         0.0983 
     79 H79        20.5725  -27.6067  -45.6172 H         1 UNK         0.3095 
     80 H80        21.8561  -24.4001  -44.7332 H         1 UNK         0.0454 
     81 H81        21.4009  -25.7307  -47.4592 H         1 UNK         0.0851 
     82 H82        22.8896  -24.9539  -46.9402 H         1 UNK         0.0851 
     83 H83        21.4333  -23.9961  -47.1391 H         1 UNK         0.0851 
     84 H84        19.4377  -25.0972  -46.0058 H         1 UNK         0.2976 
     85 H85        20.0615  -27.9890  -42.9803 H         1 UNK         0.3116 
     86 H86        20.7332  -29.4120  -40.5697 H         1 UNK         0.0646 
     87 H87        18.4035  -28.7047  -41.0793 H         1 UNK         0.0847 
     88 H88        18.8791  -27.0066  -41.0040 H         1 UNK         0.0847 
     89 H89        18.9502  -28.0085  -39.5635 H         1 UNK         0.0847 
     90 H90        21.3275  -26.0918  -41.7784 H         1 UNK         0.3040 
     91 H91        22.7111  -25.0914  -39.5071 H         1 UNK         0.1015 
     92 H92        23.5589  -23.3764  -41.1044 H         1 UNK         0.0786 
     93 H93        21.8409  -23.6538  -41.3504 H         1 UNK         0.0786 
     94 H94        23.0152  -24.3437  -42.4680 H         1 UNK         0.0786 
     95 H95        23.8705  -26.9452  -42.3256 H         1 UNK         0.3172 
     96 H96        26.6464  -27.0299  -41.4852 H         1 UNK         0.0595 
     97 H97        25.0932  -28.7284  -43.5130 H         1 UNK         0.0839 
     98 H98        26.8422  -28.6573  -43.3588 H         1 UNK         0.0839 
     99 H99        25.9534  -27.2333  -43.8745 H         1 UNK         0.0839 
    100 H100       23.8842  -28.5946  -40.3045 H         1 UNK         0.2998 
    101 H101       23.3828  -30.2665  -38.9809 H         1 UNK         0.0822 
    102 H102       25.1994  -29.3622  -37.5074 H         1 UNK         0.0787 
    103 H103       24.9939  -31.0952  -37.3181 H         1 UNK         0.0787 
    104 H104       26.3498  -30.4758  -38.2473 H         1 UNK         0.0787 
    105 H105       23.8059  -30.8270  -41.7458 H         1 UNK         0.3055 
    106 H106       25.1406  -33.4024  -42.0254 H         1 UNK         0.1106 
    107 H107       23.3439  -31.8431  -43.9600 H         1 UNK         0.0828 
    108 H108       24.3331  -33.2359  -44.3710 H         1 UNK         0.0828 
    109 H109       25.1005  -31.7347  -43.8770 H         1 UNK         0.0828 
    110 H110       21.8164  -32.3071  -41.4747 H         1 UNK         0.2931 
    111 H111       20.8684  -35.1295  -41.4937 H         1 UNK         0.0412 
    112 H112       22.1975  -33.3045  -39.1897 H         1 UNK         0.3472 
    113 H113       21.1342  -33.7134  -37.8661 H         1 UNK         0.3472 
    114 H114       19.6963  -33.7542  -43.1416 H         1 UNK         0.0970 
    115 H115       18.6480  -34.4003  -41.9179 H         1 UNK         0.0970 
    116 H116       16.4129  -31.6909  -41.8647 H         1 UNK         0.0612 
    117 H117       16.8595  -33.1476  -42.7120 H         1 UNK         0.0612 
@<TRIPOS>BOND
     1    1    2 1    
     2    1   62 1    
     3    1   63 1    
     4    1   64 1    
     5    2    3 2    
     6    2    4 am   BACKBONE|DICT|INTERRES
     7    4    5 1    
     8    4   65 1    
     9    5    6 1    
    10    5   25 1    
    11    5   66 1    
    12    6    7 1    
    13    6   67 1    
    14    6   68 1    
    15    7    8 1    
    16    8    9 1    
    17    8   69 1    
    18    8   70 1    
    19    9   10 ar   
    20    9   14 ar   
    21   10   11 ar   
    22   10   71 1    
    23   11   12 ar   
    24   11   61 1    
    25   12   13 ar   
    26   12   72 1    
    27   13   14 ar   
    28   13   15 1    
    29   14   73 1    
    30   15   16 1    
    31   15   74 1    
    32   15   75 1    
    33   16   17 1    
    34   17   18 1    
    35   17   76 1    
    36   17   77 1    
    37   18   19 1    
    38   18   27 1    
    39   18   78 1    
    40   19   20 am   BACKBONE|DICT|INTERRES
    41   19   79 1    
    42   20   21 2    
    43   20   22 1    
    44   22   23 1    
    45   22   24 1    
    46   22   80 1    
    47   23   81 1    
    48   23   82 1    
    49   23   83 1    
    50   24   25 am   BACKBONE|DICT|INTERRES
    51   24   84 1    
    52   25   26 2    
    53   27   28 2    
    54   27   29 am   BACKBONE|DICT|INTERRES
    55   29   30 1    
    56   29   85 1    
    57   30   31 1    
    58   30   32 1    
    59   30   86 1    
    60   31   87 1    
    61   31   88 1    
    62   31   89 1    
    63   32   33 2    
    64   32   34 am   BACKBONE|DICT|INTERRES
    65   34   35 1    
    66   34   90 1    
    67   35   36 1    
    68   35   37 1    
    69   35   91 1    
    70   36   92 1    
    71   36   93 1    
    72   36   94 1    
    73   37   38 2    
    74   37   39 am   BACKBONE|DICT|INTERRES
    75   39   40 1    
    76   39   95 1    
    77   40   41 1    
    78   40   42 1    
    79   40   96 1    
    80   41   97 1    
    81   41   98 1    
    82   41   99 1    
    83   42   43 2    
    84   42   44 am   BACKBONE|DICT|INTERRES
    85   44   45 1    
    86   44  100 1    
    87   45   46 1    
    88   45   47 1    
    89   45  101 1    
    90   46  102 1    
    91   46  103 1    
    92   46  104 1    
    93   47   48 2    
    94   47   49 am   BACKBONE|DICT|INTERRES
    95   49   50 1    
    96   49  105 1    
    97   50   51 1    
    98   50   52 1    
    99   50  106 1    
   100   51  107 1    
   101   51  108 1    
   102   51  109 1    
   103   52   53 2    
   104   52   54 am   BACKBONE|DICT|INTERRES
   105   54   55 1    
   106   54  110 1    
   107   55   56 1    
   108   55   59 1    
   109   55  111 1    
   110   56   57 am   BACKBONE|DICT|INTERRES
   111   56   58 2    
   112   57  112 1    
   113   57  113 1    
   114   59   60 1    
   115   59  114 1    
   116   59  115 1    
   117   60   61 1    
   118   61  116 1    
   119   61  117 1    
@<TRIPOS>SUBSTRUCTURE
     1 UNK         1 GROUP             0       ****    0 ROOT    
