@<TRIPOS>MOLECULE
3R8
117   119    1
SMALL
USER_CHARGES


@<TRIPOS>ATOM
      1 CA         19.7152  -26.7108  -38.7910 C.3       0 UNK        -0.2013 
      2 C          19.5072  -25.9958  -40.1177 C.2       0 UNK         0.4866 
      3 O          19.6293  -24.7721  -40.1804 O.2       0 UNK        -0.5176 
      4 N          19.1785  -26.7471  -41.1739 N.am      1 UNK        -0.4884 
      5 CA         18.9234  -26.2310  -42.5236 C.3       1 UNK         0.0853 
      6 C6         18.1250  -27.2470  -43.3792 C.3       10 UNK        -0.0849 
      7 S7         16.5461  -27.7409  -42.6074 S.3       10 UNK        -0.2776 
      8 C8         15.7005  -28.5853  -43.9875 C.3       10 UNK         0.0316 
      9 C9         16.5617  -29.6605  -44.6410 C.ar      10 UNK        -0.0863 
     10 C10        17.0693  -30.7210  -43.8848 C.ar      10 UNK        -0.1009 
     11 C11        17.8981  -31.6902  -44.4683 C.ar      10 UNK        -0.0712 
     12 C12        18.1850  -31.5967  -45.8354 C.ar      10 UNK        -0.0894 
     13 C13        17.6669  -30.5530  -46.6087 C.ar      10 UNK        -0.0745 
     14 C14        16.8551  -29.5893  -46.0045 C.ar      10 UNK        -0.0972 
     15 C15        17.9671  -30.4703  -48.1010 C.3       10 UNK         0.0209 
     16 S16        19.6680  -29.9174  -48.4578 S.3       10 UNK        -0.2568 
     17 C17        19.6934  -28.2325  -47.7439 C.3       10 UNK        -0.0983 
     18 CA         21.0567  -27.7303  -47.1900 C.3       3 UNK         0.0876 
     19 N          20.8536  -26.4865  -46.4342 N.am      3 UNK        -0.4424 
     20 C          21.8140  -25.6925  -45.9396 C.2       2 UNK         0.4918 
     21 O          23.0171  -25.8711  -46.1243 O.2       2 UNK        -0.4875 
     22 CA         21.3469  -24.5485  -45.0188 C.3       2 UNK         0.0481 
     23 CB         20.9958  -23.3002  -45.8427 C.3       2 UNK        -0.1831 
     24 N          20.2057  -24.9223  -44.1697 N.am      2 UNK        -0.4498 
     25 C          20.2472  -25.8808  -43.2319 C.2       1 UNK         0.5027 
     26 O          21.2647  -26.5302  -42.9786 O.2       1 UNK        -0.4969 
     27 C          21.8198  -28.7912  -46.3572 C.2       3 UNK         0.5005 
     28 O          22.6610  -29.5088  -46.9006 O.2       3 UNK        -0.5279 
     29 N          21.5530  -28.8284  -45.0450 N.am      4 UNK        -0.4463 
     30 CA         22.2105  -29.6951  -44.0668 C.3       4 UNK         0.0283 
     31 CB         21.2022  -30.0214  -42.9531 C.3       4 UNK        -0.1875 
     32 C          23.4985  -29.0770  -43.4851 C.2       4 UNK         0.4949 
     33 O          24.0308  -29.6172  -42.5166 O.2       4 UNK        -0.5039 
     34 N          23.9677  -27.9519  -44.0496 N.am      5 UNK        -0.4663 
     35 CA         25.1487  -27.1774  -43.6445 C.3       5 UNK         0.0242 
     36 CB         26.4419  -27.9739  -43.9207 C.3       5 UNK        -0.1982 
     37 C          25.0654  -26.6510  -42.1973 C.2       5 UNK         0.5017 
     38 O          26.0862  -26.5779  -41.5114 O.2       5 UNK        -0.5012 
     39 N          23.8435  -26.3078  -41.7622 N.am      6 UNK        -0.4439 
     40 CA         23.4636  -25.8383  -40.4255 C.3       6 UNK         0.0297 
     41 CB         24.1851  -24.5244  -40.0573 C.3       6 UNK        -0.2006 
     42 C          23.5711  -26.9071  -39.3179 C.2       6 UNK         0.4892 
     43 O          23.4765  -26.5545  -38.1409 O.2       6 UNK        -0.5089 
     44 N          23.7238  -28.1849  -39.6909 N.am      7 UNK        -0.4243 
     45 CA         23.6293  -29.3289  -38.7845 C.3       7 UNK         0.0196 
     46 CB         24.6275  -30.4087  -39.2349 C.3       7 UNK        -0.2007 
     47 C          22.1979  -29.8832  -38.8017 C.2       7 UNK         0.5020 
     48 O          21.4342  -29.6075  -39.7293 O.2       7 UNK        -0.5147 
     49 N          21.8626  -30.7094  -37.8046 N.am      8 UNK        -0.4734 
     50 CA         20.5721  -31.4006  -37.6868 C.3       8 UNK         0.0238 
     51 CB         20.3090  -31.7117  -36.2009 C.3       8 UNK        -0.1912 
     52 C          20.4934  -32.6573  -38.5825 C.2       8 UNK         0.5038 
     53 O          20.1194  -33.7301  -38.1033 O.2       8 UNK        -0.5046 
     54 N          20.8561  -32.4977  -39.8619 N.am      9 UNK        -0.4200 
     55 CA         20.9183  -33.5382  -40.9029 C.3       9 UNK         0.0839 
     56 C          21.9469  -34.6672  -40.5805 C.2       9 UNK         0.5513 
     57 N          21.8405  -35.8350  -41.2019 N.am      9 UNK        -0.7519 
     58 O          22.8873  -34.4780  -39.8112 O.2       9 UNK        -0.4960 
     59 C59        19.5072  -34.0524  -41.3191 C.3       10 UNK        -0.0876 
     60 S60        18.4099  -32.6960  -41.8561 S.3       10 UNK        -0.2414 
     61 C61        18.5073  -32.8501  -43.6745 C.3       10 UNK         0.0169 
     62 H62        19.6064  -27.7906  -38.8892 H         1 UNK         0.0903 
     63 H63        20.7108  -26.5046  -38.4015 H         1 UNK         0.0903 
     64 H64        18.9863  -26.3628  -38.0600 H         1 UNK         0.0903 
     65 H65        19.1145  -27.7498  -41.0713 H         1 UNK         0.3096 
     66 H66        18.3339  -25.3159  -42.4308 H         1 UNK         0.1121 
     67 H67        17.9047  -26.8305  -44.3640 H         1 UNK         0.0849 
     68 H68        18.7131  -28.1512  -43.5505 H         1 UNK         0.0849 
     69 H69        14.7831  -29.0426  -43.6144 H         1 UNK         0.0865 
     70 H70        15.3928  -27.8359  -44.7185 H         1 UNK         0.0865 
     71 H71        16.8236  -30.7644  -42.8337 H         1 UNK         0.1346 
     72 H72        18.8185  -32.3383  -46.3031 H         1 UNK         0.1412 
     73 H73        16.4566  -28.7778  -46.5983 H         1 UNK         0.1426 
     74 H74        17.2653  -29.7999  -48.5997 H         1 UNK         0.0716 
     75 H75        17.8173  -31.4528  -48.5508 H         1 UNK         0.0716 
     76 H76        19.3351  -27.5426  -48.5095 H         1 UNK         0.0695 
     77 H77        18.9554  -28.1889  -46.9446 H         1 UNK         0.0695 
     78 H78        21.6956  -27.4915  -48.0431 H         1 UNK         0.0983 
     79 H79        19.8953  -26.2340  -46.2464 H         1 UNK         0.3095 
     80 H80        22.1808  -24.2955  -44.3604 H         1 UNK         0.0454 
     81 H81        21.8381  -22.9948  -46.4652 H         1 UNK         0.0851 
     82 H82        20.1477  -23.4743  -46.5060 H         1 UNK         0.0851 
     83 H83        20.7508  -22.4556  -45.1985 H         1 UNK         0.0851 
     84 H84        19.3414  -24.4227  -44.3266 H         1 UNK         0.2976 
     85 H85        20.9121  -28.1480  -44.6648 H         1 UNK         0.3116 
     86 H86        22.4923  -30.6327  -44.5500 H         1 UNK         0.0646 
     87 H87        21.6237  -30.7333  -42.2447 H         1 UNK         0.0847 
     88 H88        20.2912  -30.4642  -43.3535 H         1 UNK         0.0847 
     89 H89        20.9233  -29.1334  -42.3858 H         1 UNK         0.0847 
     90 H90        23.4506  -27.5633  -44.8290 H         1 UNK         0.3040 
     91 H91        25.1654  -26.2920  -44.2823 H         1 UNK         0.1015 
     92 H92        26.5276  -28.8451  -43.2704 H         1 UNK         0.0786 
     93 H93        27.3256  -27.3566  -43.7546 H         1 UNK         0.0786 
     94 H94        26.4808  -28.3206  -44.9534 H         1 UNK         0.0786 
     95 H95        23.0559  -26.4489  -42.3931 H         1 UNK         0.3172 
     96 H96        22.4018  -25.6053  -40.5013 H         1 UNK         0.0595 
     97 H97        23.7627  -24.0886  -39.1511 H         1 UNK         0.0839 
     98 H98        25.2481  -24.6808  -39.8733 H         1 UNK         0.0839 
     99 H99        24.0849  -23.7809  -40.8479 H         1 UNK         0.0839 
    100 H100       23.7482  -28.4080  -40.6792 H         1 UNK         0.2998 
    101 H101       23.8776  -29.0247  -37.7655 H         1 UNK         0.0822 
    102 H102       24.6568  -31.2374  -38.5266 H         1 UNK         0.0787 
    103 H103       24.3628  -30.8259  -40.2071 H         1 UNK         0.0787 
    104 H104       25.6391  -30.0087  -39.3073 H         1 UNK         0.0787 
    105 H105       22.5548  -30.9295  -37.1022 H         1 UNK         0.3055 
    106 H106       19.7806  -30.7280  -38.0262 H         1 UNK         0.1106 
    107 H107       20.3245  -30.8047  -35.5963 H         1 UNK         0.0828 
    108 H108       19.3287  -32.1705  -36.0643 H         1 UNK         0.0828 
    109 H109       21.0510  -32.4002  -35.7948 H         1 UNK         0.0828 
    110 H110       21.1409  -31.5667  -40.1438 H         1 UNK         0.2931 
    111 H111       21.3430  -33.0377  -41.7731 H         1 UNK         0.0412 
    112 H112       22.5215  -36.5525  -41.0060 H         1 UNK         0.3472 
    113 H113       21.1011  -36.0176  -41.8612 H         1 UNK         0.3472 
    114 H114       19.5728  -34.7787  -42.1297 H         1 UNK         0.0970 
    115 H115       19.0312  -34.5732  -40.4867 H         1 UNK         0.0970 
    116 H116       18.0156  -33.7766  -43.9737 H         1 UNK         0.0612 
    117 H117       19.5586  -32.9475  -43.9505 H         1 UNK         0.0612 
@<TRIPOS>BOND
     1    1    2 1    
     2    1   62 1    
     3    1   63 1    
     4    1   64 1    
     5    2    3 2    
     6    2    4 am   BACKBONE|DICT|INTERRES
     7    4    5 1    
     8    4   65 1    
     9    5    6 1    
    10    5   25 1    
    11    5   66 1    
    12    6    7 1    
    13    6   67 1    
    14    6   68 1    
    15    7    8 1    
    16    8    9 1    
    17    8   69 1    
    18    8   70 1    
    19    9   10 ar   
    20    9   14 ar   
    21   10   11 ar   
    22   10   71 1    
    23   11   12 ar   
    24   11   61 1    
    25   12   13 ar   
    26   12   72 1    
    27   13   14 ar   
    28   13   15 1    
    29   14   73 1    
    30   15   16 1    
    31   15   74 1    
    32   15   75 1    
    33   16   17 1    
    34   17   18 1    
    35   17   76 1    
    36   17   77 1    
    37   18   19 1    
    38   18   27 1    
    39   18   78 1    
    40   19   20 am   BACKBONE|DICT|INTERRES
    41   19   79 1    
    42   20   21 2    
    43   20   22 1    
    44   22   23 1    
    45   22   24 1    
    46   22   80 1    
    47   23   81 1    
    48   23   82 1    
    49   23   83 1    
    50   24   25 am   BACKBONE|DICT|INTERRES
    51   24   84 1    
    52   25   26 2    
    53   27   28 2    
    54   27   29 am   BACKBONE|DICT|INTERRES
    55   29   30 1    
    56   29   85 1    
    57   30   31 1    
    58   30   32 1    
    59   30   86 1    
    60   31   87 1    
    61   31   88 1    
    62   31   89 1    
    63   32   33 2    
    64   32   34 am   BACKBONE|DICT|INTERRES
    65   34   35 1    
    66   34   90 1    
    67   35   36 1    
    68   35   37 1    
    69   35   91 1    
    70   36   92 1    
    71   36   93 1    
    72   36   94 1    
    73   37   38 2    
    74   37   39 am   BACKBONE|DICT|INTERRES
    75   39   40 1    
    76   39   95 1    
    77   40   41 1    
    78   40   42 1    
    79   40   96 1    
    80   41   97 1    
    81   41   98 1    
    82   41   99 1    
    83   42   43 2    
    84   42   44 am   BACKBONE|DICT|INTERRES
    85   44   45 1    
    86   44  100 1    
    87   45   46 1    
    88   45   47 1    
    89   45  101 1    
    90   46  102 1    
    91   46  103 1    
    92   46  104 1    
    93   47   48 2    
    94   47   49 am   BACKBONE|DICT|INTERRES
    95   49   50 1    
    96   49  105 1    
    97   50   51 1    
    98   50   52 1    
    99   50  106 1    
   100   51  107 1    
   101   51  108 1    
   102   51  109 1    
   103   52   53 2    
   104   52   54 am   BACKBONE|DICT|INTERRES
   105   54   55 1    
   106   54  110 1    
   107   55   56 1    
   108   55   59 1    
   109   55  111 1    
   110   56   57 am   BACKBONE|DICT|INTERRES
   111   56   58 2    
   112   57  112 1    
   113   57  113 1    
   114   59   60 1    
   115   59  114 1    
   116   59  115 1    
   117   60   61 1    
   118   61  116 1    
   119   61  117 1    
@<TRIPOS>SUBSTRUCTURE
     1 UNK         1 GROUP             0       ****    0 ROOT    
