@<TRIPOS>MOLECULE
3R8
117   119    1
SMALL
USER_CHARGES


@<TRIPOS>ATOM
      1 CA         19.1224  -27.0825  -41.4785 C.3       0 UNK        -0.2013 
      2 C          18.5705  -26.4215  -42.7311 C.2       0 UNK         0.4866 
      3 O          19.0793  -26.6696  -43.8233 O.2       0 UNK        -0.5176 
      4 N          17.5544  -25.5667  -42.5552 N.am      1 UNK        -0.4884 
      5 CA         16.8769  -24.7347  -43.5600 C.3       1 UNK         0.0853 
      6 C6         15.5570  -25.3679  -44.1054 C.3       10 UNK        -0.0849 
      7 S7         15.6623  -26.6700  -45.3887 S.3       10 UNK        -0.2776 
      8 C8         15.3763  -28.2321  -44.4870 C.3       10 UNK         0.0316 
      9 C9         16.6367  -29.0856  -44.4445 C.ar      10 UNK        -0.0863 
     10 C10        17.1512  -29.5365  -43.2249 C.ar      10 UNK        -0.1009 
     11 C11        18.3519  -30.2527  -43.1847 C.ar      10 UNK        -0.0712 
     12 C12        19.0303  -30.5294  -44.3761 C.ar      10 UNK        -0.0894 
     13 C13        18.5125  -30.1062  -45.6031 C.ar      10 UNK        -0.0745 
     14 C14        17.3063  -29.4039  -45.6309 C.ar      10 UNK        -0.0972 
     15 C15        19.2729  -30.3703  -46.8957 C.3       10 UNK         0.0209 
     16 S16        19.8467  -28.8295  -47.6877 S.3       10 UNK        -0.2568 
     17 C17        20.9689  -28.1603  -46.4153 C.3       10 UNK        -0.0983 
     18 CA         21.2291  -26.6425  -46.5782 C.3       3 UNK         0.0876 
     19 N          19.9973  -25.8438  -46.5383 N.am      3 UNK        -0.4424 
     20 C          19.8802  -24.6204  -47.0740 C.2       2 UNK         0.4918 
     21 O          20.7990  -24.0455  -47.6593 O.2       2 UNK        -0.4875 
     22 CA         18.5152  -23.9125  -46.9761 C.3       2 UNK         0.0481 
     23 CB         17.7405  -24.0736  -48.2939 C.3       2 UNK        -0.1831 
     24 N          17.6776  -24.3890  -45.8757 N.am      2 UNK        -0.4498 
     25 C          17.8411  -24.0819  -44.5845 C.2       1 UNK         0.5027 
     26 O          18.7148  -23.3133  -44.1764 O.2       1 UNK        -0.4969 
     27 C          22.2304  -26.1695  -45.5087 C.2       3 UNK         0.5005 
     28 O          23.4301  -26.1120  -45.7830 O.2       3 UNK        -0.5279 
     29 N          21.7103  -25.8613  -44.3101 N.am      4 UNK        -0.4463 
     30 CA         22.4283  -25.4729  -43.0903 C.3       4 UNK         0.0283 
     31 CB         23.1288  -24.1099  -43.2711 C.3       4 UNK        -0.1875 
     32 C          23.3738  -26.5781  -42.5751 C.2       4 UNK         0.4949 
     33 O          24.4532  -26.2766  -42.0642 O.2       4 UNK        -0.5039 
     34 N          22.9502  -27.8436  -42.7229 N.am      5 UNK        -0.4663 
     35 CA         23.7230  -29.0333  -42.3462 C.3       5 UNK         0.0242 
     36 CB         23.0662  -30.2829  -42.9573 C.3       5 UNK        -0.1982 
     37 C          23.9037  -29.2016  -40.8271 C.2       5 UNK         0.5017 
     38 O          24.9272  -29.7393  -40.4025 O.2       5 UNK        -0.5012 
     39 N          22.9176  -28.7376  -40.0428 N.am      6 UNK        -0.4439 
     40 CA         22.8724  -28.7554  -38.5755 C.3       6 UNK         0.0297 
     41 CB         23.8456  -27.7005  -38.0011 C.3       6 UNK        -0.2006 
     42 C          23.0793  -30.1764  -38.0135 C.2       6 UNK         0.4892 
     43 O          22.2280  -31.0366  -38.2384 O.2       6 UNK        -0.5089 
     44 N          24.2093  -30.4152  -37.3336 N.am      7 UNK        -0.4243 
     45 CA         24.6032  -31.7145  -36.7803 C.3       7 UNK         0.0196 
     46 CB         25.8784  -31.5387  -35.9403 C.3       7 UNK        -0.2007 
     47 C          24.8050  -32.8169  -37.8376 C.2       7 UNK         0.5020 
     48 O          24.6424  -33.9930  -37.5116 O.2       7 UNK        -0.5147 
     49 N          25.1263  -32.4362  -39.0834 N.am      8 UNK        -0.4734 
     50 CA         25.2836  -33.3628  -40.2094 C.3       8 UNK         0.0238 
     51 CB         26.1777  -32.7207  -41.2840 C.3       8 UNK        -0.1912 
     52 C          23.9451  -33.8368  -40.8091 C.2       8 UNK         0.5038 
     53 O          23.9659  -34.7214  -41.6660 O.2       8 UNK        -0.5046 
     54 N          22.8151  -33.2654  -40.3634 N.am      9 UNK        -0.4200 
     55 CA         21.4594  -33.6930  -40.7480 C.3       9 UNK         0.0839 
     56 C          21.0382  -35.0813  -40.1777 C.2       9 UNK         0.5513 
     57 N          21.7123  -35.6150  -39.1645 N.am      9 UNK        -0.7519 
     58 O          20.0909  -35.6897  -40.6679 O.2       9 UNK        -0.4960 
     59 C59        20.4054  -32.5994  -40.4179 C.3       10 UNK        -0.0876 
     60 S60        19.1010  -32.4706  -41.6884 S.3       10 UNK        -0.2414 
     61 C61        18.9609  -30.6638  -41.8540 C.3       10 UNK         0.0169 
     62 H62        19.5199  -26.3341  -40.7935 H         1 UNK         0.0903 
     63 H63        18.3428  -27.6450  -40.9658 H         1 UNK         0.0903 
     64 H64        19.9269  -27.7702  -41.7332 H         1 UNK         0.0903 
     65 H65        17.2298  -25.4160  -41.6101 H         1 UNK         0.3096 
     66 H66        16.5424  -23.8752  -42.9758 H         1 UNK         0.1121 
     67 H67        14.9468  -24.5710  -44.5343 H         1 UNK         0.0849 
     68 H68        14.9639  -25.7412  -43.2697 H         1 UNK         0.0849 
     69 H69        15.0058  -28.0300  -43.4815 H         1 UNK         0.0865 
     70 H70        14.5914  -28.7931  -44.9957 H         1 UNK         0.0865 
     71 H71        16.6383  -29.2962  -42.3039 H         1 UNK         0.1346 
     72 H72        19.9706  -31.0624  -44.3422 H         1 UNK         0.1412 
     73 H73        16.9146  -29.0587  -46.5780 H         1 UNK         0.1426 
     74 H74        18.6222  -30.9038  -47.5898 H         1 UNK         0.0716 
     75 H75        20.1319  -31.0193  -46.7178 H         1 UNK         0.0716 
     76 H76        21.9053  -28.7190  -46.4716 H         1 UNK         0.0695 
     77 H77        20.5524  -28.3607  -45.4275 H         1 UNK         0.0695 
     78 H78        21.7020  -26.4922  -47.5515 H         1 UNK         0.0983 
     79 H79        19.2241  -26.2374  -46.0157 H         1 UNK         0.3095 
     80 H80        18.7069  -22.8481  -46.8250 H         1 UNK         0.0454 
     81 H81        16.8038  -23.5163  -48.2751 H         1 UNK         0.0851 
     82 H82        17.5061  -25.1191  -48.4988 H         1 UNK         0.0851 
     83 H83        18.3216  -23.6986  -49.1375 H         1 UNK         0.0851 
     84 H84        16.9573  -25.0655  -46.1019 H         1 UNK         0.2976 
     85 H85        20.7051  -26.0001  -44.2003 H         1 UNK         0.3116 
     86 H86        21.6663  -25.3463  -42.3203 H         1 UNK         0.0646 
     87 H87        23.9520  -24.1677  -43.9837 H         1 UNK         0.0847 
     88 H88        23.5424  -23.7544  -42.3267 H         1 UNK         0.0847 
     89 H89        22.4312  -23.3505  -43.6244 H         1 UNK         0.0847 
     90 H90        22.0620  -27.9978  -43.1770 H         1 UNK         0.3040 
     91 H91        24.7216  -28.9301  -42.7770 H         1 UNK         0.1015 
     92 H92        22.0642  -30.4499  -42.5659 H         1 UNK         0.0786 
     93 H93        23.6478  -31.1789  -42.7392 H         1 UNK         0.0786 
     94 H94        22.9943  -30.2040  -44.0423 H         1 UNK         0.0786 
     95 H95        22.1153  -28.3331  -40.5015 H         1 UNK         0.3172 
     96 H96        21.8613  -28.4611  -38.2905 H         1 UNK         0.0595 
     97 H97        24.8807  -27.8893  -38.2880 H         1 UNK         0.0839 
     98 H98        23.7987  -27.6686  -36.9115 H         1 UNK         0.0839 
     99 H99        23.5890  -26.7027  -38.3574 H         1 UNK         0.0839 
    100 H100       24.8673  -29.6572  -37.2247 H         1 UNK         0.2998 
    101 H101       23.8001  -32.0467  -36.1188 H         1 UNK         0.0822 
    102 H102       26.1825  -32.4846  -35.4895 H         1 UNK         0.0787 
    103 H103       26.7137  -31.1826  -36.5448 H         1 UNK         0.0787 
    104 H104       25.7244  -30.8296  -35.1266 H         1 UNK         0.0787 
    105 H105       25.2027  -31.4456  -39.2968 H         1 UNK         0.3055 
    106 H106       25.7957  -34.2576  -39.8477 H         1 UNK         0.1106 
    107 H107       25.7120  -31.8457  -41.7349 H         1 UNK         0.0828 
    108 H108       27.1379  -32.4129  -40.8698 H         1 UNK         0.0828 
    109 H109       26.3862  -33.4257  -42.0899 H         1 UNK         0.0828 
    110 H110       22.8734  -32.5586  -39.6401 H         1 UNK         0.2931 
    111 H111       21.4888  -33.8111  -41.8333 H         1 UNK         0.0412 
    112 H112       22.4938  -35.1283  -38.7519 H         1 UNK         0.3472 
    113 H113       21.4343  -36.5158  -38.8074 H         1 UNK         0.3472 
    114 H114       20.8965  -31.6294  -40.3486 H         1 UNK         0.0970 
    115 H115       19.9483  -32.7560  -39.4387 H         1 UNK         0.0970 
    116 H116       18.3743  -30.2811  -41.0175 H         1 UNK         0.0612 
    117 H117       19.9427  -30.1997  -41.7776 H         1 UNK         0.0612 
@<TRIPOS>BOND
     1    1    2 1    
     2    1   62 1    
     3    1   63 1    
     4    1   64 1    
     5    2    3 2    
     6    2    4 am   BACKBONE|DICT|INTERRES
     7    4    5 1    
     8    4   65 1    
     9    5    6 1    
    10    5   25 1    
    11    5   66 1    
    12    6    7 1    
    13    6   67 1    
    14    6   68 1    
    15    7    8 1    
    16    8    9 1    
    17    8   69 1    
    18    8   70 1    
    19    9   10 ar   
    20    9   14 ar   
    21   10   11 ar   
    22   10   71 1    
    23   11   12 ar   
    24   11   61 1    
    25   12   13 ar   
    26   12   72 1    
    27   13   14 ar   
    28   13   15 1    
    29   14   73 1    
    30   15   16 1    
    31   15   74 1    
    32   15   75 1    
    33   16   17 1    
    34   17   18 1    
    35   17   76 1    
    36   17   77 1    
    37   18   19 1    
    38   18   27 1    
    39   18   78 1    
    40   19   20 am   BACKBONE|DICT|INTERRES
    41   19   79 1    
    42   20   21 2    
    43   20   22 1    
    44   22   23 1    
    45   22   24 1    
    46   22   80 1    
    47   23   81 1    
    48   23   82 1    
    49   23   83 1    
    50   24   25 am   BACKBONE|DICT|INTERRES
    51   24   84 1    
    52   25   26 2    
    53   27   28 2    
    54   27   29 am   BACKBONE|DICT|INTERRES
    55   29   30 1    
    56   29   85 1    
    57   30   31 1    
    58   30   32 1    
    59   30   86 1    
    60   31   87 1    
    61   31   88 1    
    62   31   89 1    
    63   32   33 2    
    64   32   34 am   BACKBONE|DICT|INTERRES
    65   34   35 1    
    66   34   90 1    
    67   35   36 1    
    68   35   37 1    
    69   35   91 1    
    70   36   92 1    
    71   36   93 1    
    72   36   94 1    
    73   37   38 2    
    74   37   39 am   BACKBONE|DICT|INTERRES
    75   39   40 1    
    76   39   95 1    
    77   40   41 1    
    78   40   42 1    
    79   40   96 1    
    80   41   97 1    
    81   41   98 1    
    82   41   99 1    
    83   42   43 2    
    84   42   44 am   BACKBONE|DICT|INTERRES
    85   44   45 1    
    86   44  100 1    
    87   45   46 1    
    88   45   47 1    
    89   45  101 1    
    90   46  102 1    
    91   46  103 1    
    92   46  104 1    
    93   47   48 2    
    94   47   49 am   BACKBONE|DICT|INTERRES
    95   49   50 1    
    96   49  105 1    
    97   50   51 1    
    98   50   52 1    
    99   50  106 1    
   100   51  107 1    
   101   51  108 1    
   102   51  109 1    
   103   52   53 2    
   104   52   54 am   BACKBONE|DICT|INTERRES
   105   54   55 1    
   106   54  110 1    
   107   55   56 1    
   108   55   59 1    
   109   55  111 1    
   110   56   57 am   BACKBONE|DICT|INTERRES
   111   56   58 2    
   112   57  112 1    
   113   57  113 1    
   114   59   60 1    
   115   59  114 1    
   116   59  115 1    
   117   60   61 1    
   118   61  116 1    
   119   61  117 1    
@<TRIPOS>SUBSTRUCTURE
     1 UNK         1 GROUP             0       ****    0 ROOT    
