@<TRIPOS>MOLECULE
3R8
117   119    1
SMALL
USER_CHARGES


@<TRIPOS>ATOM
      1 CA         19.3084  -26.7092  -42.0994 C.3       0 UNK        -0.2013 
      2 C          18.3186  -25.7931  -42.8010 C.2       0 UNK         0.4866 
      3 O          18.4017  -24.5760  -42.6387 O.2       0 UNK        -0.5176 
      4 N          17.3804  -26.3561  -43.5787 N.am      1 UNK        -0.4884 
      5 CA         16.3844  -25.5818  -44.3360 C.3       1 UNK         0.0853 
      6 C6         15.1172  -26.4111  -44.6767 C.3       10 UNK        -0.0849 
      7 S7         15.2964  -27.6507  -46.0112 S.3       10 UNK        -0.2776 
      8 C8         15.2454  -29.2318  -45.1113 C.3       10 UNK         0.0316 
      9 C9         16.5995  -29.5913  -44.5190 C.ar      10 UNK        -0.0863 
     10 C10        16.7811  -29.6408  -43.1340 C.ar      10 UNK        -0.1009 
     11 C11        18.0138  -30.0092  -42.5842 C.ar      10 UNK        -0.0712 
     12 C12        19.0771  -30.3113  -43.4490 C.ar      10 UNK        -0.0894 
     13 C13        18.9046  -30.2765  -44.8357 C.ar      10 UNK        -0.0745 
     14 C14        17.6635  -29.9170  -45.3640 C.ar      10 UNK        -0.0972 
     15 C15        20.0452  -30.6702  -45.7648 C.3       10 UNK         0.0209 
     16 S16        20.7431  -29.2501  -46.6664 S.3       10 UNK        -0.2568 
     17 C17        21.5496  -28.3193  -45.3230 C.3       10 UNK        -0.0983 
     18 CA         21.8406  -26.8314  -45.6715 C.3       3 UNK         0.0876 
     19 N          20.6244  -26.0975  -46.0135 N.am      3 UNK        -0.4424 
     20 C          20.1831  -25.7856  -47.2366 C.2       2 UNK         0.4918 
     21 O          20.7909  -26.0483  -48.2754 O.2       2 UNK        -0.4875 
     22 CA         18.8109  -25.0894  -47.2961 C.3       2 UNK         0.0481 
     23 CB         18.0813  -25.3102  -48.6352 C.3       2 UNK        -0.1831 
     24 N          17.9802  -25.5618  -46.1892 N.am      2 UNK        -0.4498 
     25 C          17.0098  -24.8842  -45.5654 C.2       1 UNK         0.5027 
     26 O          16.6302  -23.7595  -45.8953 O.2       1 UNK        -0.4969 
     27 C          22.4708  -26.1222  -44.4589 C.2       3 UNK         0.5005 
     28 O          21.8623  -25.2058  -43.8967 O.2       3 UNK        -0.5279 
     29 N          23.6503  -26.5893  -44.0307 N.am      4 UNK        -0.4463 
     30 CA         24.2081  -26.2668  -42.7170 C.3       4 UNK         0.0283 
     31 CB         25.6921  -26.6665  -42.6741 C.3       4 UNK        -0.1875 
     32 C          23.4185  -27.0160  -41.6322 C.2       4 UNK         0.4949 
     33 O          23.2365  -28.2296  -41.7509 O.2       4 UNK        -0.5039 
     34 N          22.9811  -26.3025  -40.5884 N.am      5 UNK        -0.4663 
     35 CA         22.2435  -26.8569  -39.4472 C.3       5 UNK         0.0242 
     36 CB         21.4359  -25.7290  -38.7783 C.3       5 UNK        -0.1982 
     37 C          23.1912  -27.5781  -38.4680 C.2       5 UNK         0.5017 
     38 O          23.3493  -27.1505  -37.3227 O.2       5 UNK        -0.5012 
     39 N          23.8360  -28.6370  -38.9635 N.am      6 UNK        -0.4439 
     40 CA         24.8311  -29.4478  -38.2725 C.3       6 UNK         0.0297 
     41 CB         26.2231  -28.7899  -38.4000 C.3       6 UNK        -0.2006 
     42 C          24.7455  -30.8821  -38.8152 C.2       6 UNK         0.4892 
     43 O          23.6421  -31.4233  -38.9023 O.2       6 UNK        -0.5089 
     44 N          25.8889  -31.4745  -39.1881 N.am      7 UNK        -0.4243 
     45 CA         26.0503  -32.8668  -39.6332 C.3       7 UNK         0.0196 
     46 CB         27.5416  -33.1278  -39.9037 C.3       7 UNK        -0.2007 
     47 C          25.2033  -33.2960  -40.8491 C.2       7 UNK         0.5020 
     48 O          25.0562  -34.4967  -41.0781 O.2       7 UNK        -0.5147 
     49 N          24.6510  -32.3312  -41.5973 N.am      8 UNK        -0.4734 
     50 CA         23.7183  -32.5621  -42.7028 C.3       8 UNK         0.0238 
     51 CB         23.5612  -31.2635  -43.5099 C.3       8 UNK        -0.1912 
     52 C          22.3387  -33.0885  -42.2565 C.2       8 UNK         0.5038 
     53 O          21.6317  -33.6530  -43.0925 O.2       8 UNK        -0.5046 
     54 N          21.9737  -32.9066  -40.9788 N.am      9 UNK        -0.4200 
     55 CA         20.7045  -33.3837  -40.4041 C.3       9 UNK         0.0839 
     56 C          20.7415  -33.7000  -38.8834 C.2       9 UNK         0.5513 
     57 N          21.7595  -33.3101  -38.1283 N.am      9 UNK        -0.7519 
     58 O          19.8299  -34.3499  -38.3773 O.2       9 UNK        -0.4960 
     59 C59        19.4883  -32.5034  -40.8007 C.3       10 UNK        -0.0876 
     60 S60        19.6895  -30.7349  -40.3847 S.3       10 UNK        -0.2414 
     61 C61        18.1322  -30.0585  -41.0569 C.3       10 UNK         0.0169 
     62 H62        18.9589  -26.9428  -41.0950 H         1 UNK         0.0903 
     63 H63        19.4569  -27.6366  -42.6471 H         1 UNK         0.0903 
     64 H64        20.2774  -26.2204  -42.0083 H         1 UNK         0.0903 
     65 H65        17.3349  -27.3624  -43.6802 H         1 UNK         0.3096 
     66 H66        16.0477  -24.7748  -43.6802 H         1 UNK         0.1121 
     67 H67        14.7409  -26.8947  -43.7740 H         1 UNK         0.0849 
     68 H68        14.3213  -25.7303  -44.9841 H         1 UNK         0.0849 
     69 H69        14.4687  -29.2023  -44.3456 H         1 UNK         0.0865 
     70 H70        14.9494  -30.0179  -45.8075 H         1 UNK         0.0865 
     71 H71        15.9543  -29.4049  -42.4772 H         1 UNK         0.1346 
     72 H72        20.0444  -30.5885  -43.0555 H         1 UNK         0.1412 
     73 H73        17.5245  -29.8945  -46.4367 H         1 UNK         0.1426 
     74 H74        19.6761  -31.3957  -46.4910 H         1 UNK         0.0716 
     75 H75        20.8380  -31.1750  -45.2125 H         1 UNK         0.0716 
     76 H76        22.4720  -28.8474  -45.0767 H         1 UNK         0.0695 
     77 H77        20.9224  -28.3774  -44.4328 H         1 UNK         0.0695 
     78 H78        22.5520  -26.7772  -46.4985 H         1 UNK         0.0983 
     79 H79        20.1502  -25.7036  -45.2118 H         1 UNK         0.3095 
     80 H80        18.9962  -24.0209  -47.1702 H         1 UNK         0.0454 
     81 H81        18.6698  -24.9309  -49.4714 H         1 UNK         0.0851 
     82 H82        17.1223  -24.7927  -48.6562 H         1 UNK         0.0851 
     83 H83        17.8944  -26.3690  -48.8178 H         1 UNK         0.0851 
     84 H84        18.1892  -26.4932  -45.8554 H         1 UNK         0.2976 
     85 H85        24.0793  -27.3605  -44.5215 H         1 UNK         0.3116 
     86 H86        24.1331  -25.1901  -42.5490 H         1 UNK         0.0646 
     87 H87        25.8295  -27.7370  -42.8335 H         1 UNK         0.0847 
     88 H88        26.2683  -26.1370  -43.4331 H         1 UNK         0.0847 
     89 H89        26.1323  -26.4238  -41.7060 H         1 UNK         0.0847 
     90 H90        23.1943  -25.3157  -40.5492 H         1 UNK         0.3040 
     91 H91        21.5309  -27.6009  -39.8127 H         1 UNK         0.1015 
     92 H92        20.7336  -25.2755  -39.4782 H         1 UNK         0.0786 
     93 H93        20.8527  -26.1119  -37.9396 H         1 UNK         0.0786 
     94 H94        22.0832  -24.9400  -38.3933 H         1 UNK         0.0786 
     95 H95        23.6236  -28.9047  -39.9212 H         1 UNK         0.3172 
     96 H96        24.5701  -29.5057  -37.2139 H         1 UNK         0.0595 
     97 H97        26.5456  -28.7155  -39.4395 H         1 UNK         0.0839 
     98 H98        26.9814  -29.3458  -37.8471 H         1 UNK         0.0839 
     99 H99        26.2166  -27.7804  -37.9883 H         1 UNK         0.0839 
    100 H100       26.7405  -30.9388  -39.1015 H         1 UNK         0.2998 
    101 H101       25.7395  -33.5029  -38.8018 H         1 UNK         0.0822 
    102 H102       27.7118  -34.1638  -40.2009 H         1 UNK         0.0787 
    103 H103       28.1457  -32.9474  -39.0142 H         1 UNK         0.0787 
    104 H104       27.9221  -32.4928  -40.7048 H         1 UNK         0.0787 
    105 H105       24.8194  -31.3712  -41.3350 H         1 UNK         0.3055 
    106 H106       24.1577  -33.3195  -43.3559 H         1 UNK         0.1106 
    107 H107       23.0002  -30.5111  -42.9555 H         1 UNK         0.0828 
    108 H108       24.5266  -30.8359  -43.7807 H         1 UNK         0.0828 
    109 H109       23.0230  -31.4511  -44.4388 H         1 UNK         0.0828 
    110 H110       22.5977  -32.4184  -40.3468 H         1 UNK         0.2931 
    111 H111       20.5273  -34.3654  -40.8488 H         1 UNK         0.0412 
    112 H112       21.7513  -33.5517  -37.1504 H         1 UNK         0.3472 
    113 H113       22.4839  -32.6874  -38.4777 H         1 UNK         0.3472 
    114 H114       19.3186  -32.5943  -41.8736 H         1 UNK         0.0970 
    115 H115       18.5734  -32.8745  -40.3348 H         1 UNK         0.0970 
    116 H116       18.0066  -29.0493  -40.6657 H         1 UNK         0.0612 
    117 H117       17.3043  -30.6436  -40.6537 H         1 UNK         0.0612 
@<TRIPOS>BOND
     1    1    2 1    
     2    1   62 1    
     3    1   63 1    
     4    1   64 1    
     5    2    3 2    
     6    2    4 am   BACKBONE|DICT|INTERRES
     7    4    5 1    
     8    4   65 1    
     9    5    6 1    
    10    5   25 1    
    11    5   66 1    
    12    6    7 1    
    13    6   67 1    
    14    6   68 1    
    15    7    8 1    
    16    8    9 1    
    17    8   69 1    
    18    8   70 1    
    19    9   10 ar   
    20    9   14 ar   
    21   10   11 ar   
    22   10   71 1    
    23   11   12 ar   
    24   11   61 1    
    25   12   13 ar   
    26   12   72 1    
    27   13   14 ar   
    28   13   15 1    
    29   14   73 1    
    30   15   16 1    
    31   15   74 1    
    32   15   75 1    
    33   16   17 1    
    34   17   18 1    
    35   17   76 1    
    36   17   77 1    
    37   18   19 1    
    38   18   27 1    
    39   18   78 1    
    40   19   20 am   BACKBONE|DICT|INTERRES
    41   19   79 1    
    42   20   21 2    
    43   20   22 1    
    44   22   23 1    
    45   22   24 1    
    46   22   80 1    
    47   23   81 1    
    48   23   82 1    
    49   23   83 1    
    50   24   25 am   BACKBONE|DICT|INTERRES
    51   24   84 1    
    52   25   26 2    
    53   27   28 2    
    54   27   29 am   BACKBONE|DICT|INTERRES
    55   29   30 1    
    56   29   85 1    
    57   30   31 1    
    58   30   32 1    
    59   30   86 1    
    60   31   87 1    
    61   31   88 1    
    62   31   89 1    
    63   32   33 2    
    64   32   34 am   BACKBONE|DICT|INTERRES
    65   34   35 1    
    66   34   90 1    
    67   35   36 1    
    68   35   37 1    
    69   35   91 1    
    70   36   92 1    
    71   36   93 1    
    72   36   94 1    
    73   37   38 2    
    74   37   39 am   BACKBONE|DICT|INTERRES
    75   39   40 1    
    76   39   95 1    
    77   40   41 1    
    78   40   42 1    
    79   40   96 1    
    80   41   97 1    
    81   41   98 1    
    82   41   99 1    
    83   42   43 2    
    84   42   44 am   BACKBONE|DICT|INTERRES
    85   44   45 1    
    86   44  100 1    
    87   45   46 1    
    88   45   47 1    
    89   45  101 1    
    90   46  102 1    
    91   46  103 1    
    92   46  104 1    
    93   47   48 2    
    94   47   49 am   BACKBONE|DICT|INTERRES
    95   49   50 1    
    96   49  105 1    
    97   50   51 1    
    98   50   52 1    
    99   50  106 1    
   100   51  107 1    
   101   51  108 1    
   102   51  109 1    
   103   52   53 2    
   104   52   54 am   BACKBONE|DICT|INTERRES
   105   54   55 1    
   106   54  110 1    
   107   55   56 1    
   108   55   59 1    
   109   55  111 1    
   110   56   57 am   BACKBONE|DICT|INTERRES
   111   56   58 2    
   112   57  112 1    
   113   57  113 1    
   114   59   60 1    
   115   59  114 1    
   116   59  115 1    
   117   60   61 1    
   118   61  116 1    
   119   61  117 1    
@<TRIPOS>SUBSTRUCTURE
     1 UNK         1 GROUP             0       ****    0 ROOT    
