@<TRIPOS>MOLECULE
3R8
117   119    1
SMALL
USER_CHARGES


@<TRIPOS>ATOM
      1 CA         16.9014  -30.2915  -38.5054 C.3       0 UNK        -0.2013 
      2 C          16.6599  -29.0736  -39.3845 C.2       0 UNK         0.4866 
      3 O          15.6323  -28.4094  -39.2465 O.2       0 UNK        -0.5176 
      4 N          17.6057  -28.7744  -40.2775 N.am      1 UNK        -0.4884 
      5 CA         17.6058  -27.6367  -41.1985 C.3       1 UNK         0.0853 
      6 C6         16.4951  -27.6796  -42.2945 C.3       10 UNK        -0.0849 
      7 S7         16.2944  -29.2598  -43.1951 S.3       10 UNK        -0.2776 
      8 C8         17.2096  -28.9754  -44.7558 C.3       10 UNK         0.0316 
      9 C9         18.6159  -29.5779  -44.8181 C.ar      10 UNK        -0.0863 
     10 C10        19.2460  -30.1478  -43.7050 C.ar      10 UNK        -0.1009 
     11 C11        20.5265  -30.6927  -43.8005 C.ar      10 UNK        -0.0712 
     12 C12        21.1915  -30.6697  -45.0272 C.ar      10 UNK        -0.0894 
     13 C13        20.5817  -30.1054  -46.1509 C.ar      10 UNK        -0.0745 
     14 C14        19.2979  -29.5613  -46.0397 C.ar      10 UNK        -0.0972 
     15 C15        21.3098  -30.1077  -47.4852 C.3       10 UNK         0.0209 
     16 S16        22.5835  -28.8116  -47.5628 S.3       10 UNK        -0.2568 
     17 C17        21.6001  -27.3195  -47.9631 C.3       10 UNK        -0.0983 
     18 CA         21.7845  -26.1134  -47.0005 C.3       3 UNK         0.0876 
     19 N          21.5334  -26.4496  -45.6017 N.am      3 UNK        -0.4424 
     20 C          20.4087  -26.2339  -44.9189 C.2       2 UNK         0.4918 
     21 O          19.3529  -25.8250  -45.4074 O.2       2 UNK        -0.4875 
     22 CA         20.5286  -26.4412  -43.4075 C.3       2 UNK         0.0481 
     23 CB         21.1628  -25.2044  -42.7447 C.3       2 UNK        -0.1831 
     24 N          19.2245  -26.6923  -42.8059 N.am      2 UNK        -0.4498 
     25 C          19.0447  -27.4517  -41.7185 C.2       1 UNK         0.5027 
     26 O          19.9760  -27.9953  -41.1138 O.2       1 UNK        -0.4969 
     27 C          23.1715  -25.4410  -47.0489 C.2       3 UNK         0.5005 
     28 O          24.1103  -25.9666  -47.6492 O.2       3 UNK        -0.5279 
     29 N          23.2984  -24.3237  -46.3143 N.am      4 UNK        -0.4463 
     30 CA         24.5277  -23.6138  -45.9221 C.3       4 UNK         0.0283 
     31 CB         25.4086  -23.2146  -47.1231 C.3       4 UNK        -0.1875 
     32 C          25.3205  -24.3833  -44.8503 C.2       4 UNK         0.4949 
     33 O          25.6158  -23.8169  -43.7980 O.2       4 UNK        -0.5039 
     34 N          25.5873  -25.6712  -45.0991 N.am      5 UNK        -0.4663 
     35 CA         25.9621  -26.6480  -44.0756 C.3       5 UNK         0.0242 
     36 CB         26.6146  -27.8633  -44.7528 C.3       5 UNK        -0.1982 
     37 C          24.6986  -27.0699  -43.3082 C.2       5 UNK         0.5017 
     38 O          23.6600  -27.2648  -43.9430 O.2       5 UNK        -0.5012 
     39 N          24.8008  -27.1935  -41.9810 N.am      6 UNK        -0.4439 
     40 CA         23.6904  -27.5113  -41.0809 C.3       6 UNK         0.0297 
     41 CB         23.4623  -26.3171  -40.1379 C.3       6 UNK        -0.2006 
     42 C          24.0216  -28.7626  -40.2625 C.2       6 UNK         0.4892 
     43 O          25.1947  -28.9957  -39.9590 O.2       6 UNK        -0.5089 
     44 N          22.9808  -29.5110  -39.8829 N.am      7 UNK        -0.4243 
     45 CA         23.0393  -30.6947  -39.0265 C.3       7 UNK         0.0196 
     46 CB         23.7383  -31.8680  -39.7482 C.3       7 UNK        -0.2007 
     47 C          21.6118  -31.0763  -38.6138 C.2       7 UNK         0.5020 
     48 O          20.6424  -30.5203  -39.1372 O.2       7 UNK        -0.5147 
     49 N          21.4928  -32.0591  -37.7143 N.am      8 UNK        -0.4734 
     50 CA         20.2228  -32.6448  -37.2704 C.3       8 UNK         0.0238 
     51 CB         20.4224  -33.2668  -35.8750 C.3       8 UNK        -0.1912 
     52 C          19.6565  -33.6517  -38.2962 C.2       8 UNK         0.5038 
     53 O          19.3613  -34.7940  -37.9391 O.2       8 UNK        -0.5046 
     54 N          19.5424  -33.2172  -39.5571 N.am      9 UNK        -0.4200 
     55 CA         18.9756  -33.9791  -40.6783 C.3       9 UNK         0.0839 
     56 C          17.4654  -34.2851  -40.4816 C.2       9 UNK         0.5513 
     57 N          17.0029  -35.4399  -40.9402 N.am      9 UNK        -0.7519 
     58 O          16.7069  -33.4703  -39.9606 O.2       9 UNK        -0.4960 
     59 C59        19.2073  -33.2583  -42.0311 C.3       10 UNK        -0.0876 
     60 S60        20.9764  -33.0872  -42.4575 S.3       10 UNK        -0.2414 
     61 C61        21.1957  -31.2818  -42.5697 C.3       10 UNK         0.0169 
     62 H62        16.0613  -30.9816  -38.5806 H         1 UNK         0.0903 
     63 H63        17.8023  -30.8290  -38.7998 H         1 UNK         0.0903 
     64 H64        17.0072  -29.9908  -37.4635 H         1 UNK         0.0903 
     65 H65        18.4818  -29.2860  -40.2835 H         1 UNK         0.3096 
     66 H66        17.4223  -26.7474  -40.5915 H         1 UNK         0.1121 
     67 H67        16.5896  -26.8550  -43.0015 H         1 UNK         0.0849 
     68 H68        15.5367  -27.4951  -41.8072 H         1 UNK         0.0849 
     69 H69        16.6176  -29.4109  -45.5621 H         1 UNK         0.0865 
     70 H70        17.2678  -27.9076  -44.9698 H         1 UNK         0.0865 
     71 H71        18.7536  -30.1630  -42.7456 H         1 UNK         0.1346 
     72 H72        22.1856  -31.0878  -45.1076 H         1 UNK         0.1412 
     73 H73        18.8259  -29.1243  -46.9092 H         1 UNK         0.1426 
     74 H74        20.6112  -29.9931  -48.3155 H         1 UNK         0.0716 
     75 H75        21.7908  -31.0765  -47.6283 H         1 UNK         0.0716 
     76 H76        20.5434  -27.5874  -47.9847 H         1 UNK         0.0695 
     77 H77        21.8423  -27.0210  -48.9844 H         1 UNK         0.0695 
     78 H78        21.0740  -25.3446  -47.3130 H         1 UNK         0.0983 
     79 H79        22.3452  -26.7963  -45.0882 H         1 UNK         0.3095 
     80 H80        21.1619  -27.3156  -43.2508 H         1 UNK         0.0454 
     81 H81        22.1840  -25.0481  -43.0938 H         1 UNK         0.0851 
     82 H82        21.2018  -25.3129  -41.6620 H         1 UNK         0.0851 
     83 H83        20.5980  -24.2975  -42.9637 H         1 UNK         0.0851 
     84 H84        18.4376  -26.3022  -43.3066 H         1 UNK         0.2976 
     85 H85        22.4645  -23.9950  -45.8464 H         1 UNK         0.3116 
     86 H86        24.1881  -22.6875  -45.4555 H         1 UNK         0.0646 
     87 H87        25.8662  -24.0767  -47.6085 H         1 UNK         0.0847 
     88 H88        24.8344  -22.6718  -47.8738 H         1 UNK         0.0847 
     89 H89        26.2215  -22.5622  -46.8023 H         1 UNK         0.0847 
     90 H90        25.2551  -26.0448  -45.9832 H         1 UNK         0.3040 
     91 H91        26.6782  -26.1950  -43.3862 H         1 UNK         0.1015 
     92 H92        26.9148  -28.6074  -44.0139 H         1 UNK         0.0786 
     93 H93        27.5086  -27.5758  -45.3066 H         1 UNK         0.0786 
     94 H94        25.9311  -28.3515  -45.4495 H         1 UNK         0.0786 
     95 H95        25.7069  -27.1134  -41.5391 H         1 UNK         0.3172 
     96 H96        22.7752  -27.6996  -41.6440 H         1 UNK         0.0595 
     97 H97        24.2959  -26.1815  -39.4473 H         1 UNK         0.0839 
     98 H98        22.5615  -26.4612  -39.5397 H         1 UNK         0.0839 
     99 H99        23.3427  -25.3861  -40.6910 H         1 UNK         0.0839 
    100 H100       22.0358  -29.2297  -40.1284 H         1 UNK         0.2998 
    101 H101       23.5946  -30.4385  -38.1219 H         1 UNK         0.0822 
    102 H102       23.7959  -32.7507  -39.1108 H         1 UNK         0.0787 
    103 H103       24.7614  -31.6200  -40.0295 H         1 UNK         0.0787 
    104 H104       23.2079  -32.1589  -40.6535 H         1 UNK         0.0787 
    105 H105       22.3330  -32.4902  -37.3551 H         1 UNK         0.3055 
    106 H106       19.4831  -31.8472  -37.1703 H         1 UNK         0.1106 
    107 H107       20.7759  -32.5266  -35.1571 H         1 UNK         0.0828 
    108 H108       19.4846  -33.6668  -35.4869 H         1 UNK         0.0828 
    109 H109       21.1425  -34.0858  -35.8961 H         1 UNK         0.0828 
    110 H110       19.8201  -32.2623  -39.7504 H         1 UNK         0.2931 
    111 H111       19.5057  -34.9334  -40.7110 H         1 UNK         0.0412 
    112 H112       17.6155  -36.1111  -41.3776 H         1 UNK         0.3472 
    113 H113       16.0222  -35.6505  -40.8367 H         1 UNK         0.3472 
    114 H114       18.7360  -33.8128  -42.8450 H         1 UNK         0.0970 
    115 H115       18.7218  -32.2836  -42.0163 H         1 UNK         0.0970 
    116 H116       20.8070  -30.8080  -41.6698 H         1 UNK         0.0612 
    117 H117       22.2624  -31.0548  -42.5955 H         1 UNK         0.0612 
@<TRIPOS>BOND
     1    1    2 1    
     2    1   62 1    
     3    1   63 1    
     4    1   64 1    
     5    2    3 2    
     6    2    4 am   BACKBONE|DICT|INTERRES
     7    4    5 1    
     8    4   65 1    
     9    5    6 1    
    10    5   25 1    
    11    5   66 1    
    12    6    7 1    
    13    6   67 1    
    14    6   68 1    
    15    7    8 1    
    16    8    9 1    
    17    8   69 1    
    18    8   70 1    
    19    9   10 ar   
    20    9   14 ar   
    21   10   11 ar   
    22   10   71 1    
    23   11   12 ar   
    24   11   61 1    
    25   12   13 ar   
    26   12   72 1    
    27   13   14 ar   
    28   13   15 1    
    29   14   73 1    
    30   15   16 1    
    31   15   74 1    
    32   15   75 1    
    33   16   17 1    
    34   17   18 1    
    35   17   76 1    
    36   17   77 1    
    37   18   19 1    
    38   18   27 1    
    39   18   78 1    
    40   19   20 am   BACKBONE|DICT|INTERRES
    41   19   79 1    
    42   20   21 2    
    43   20   22 1    
    44   22   23 1    
    45   22   24 1    
    46   22   80 1    
    47   23   81 1    
    48   23   82 1    
    49   23   83 1    
    50   24   25 am   BACKBONE|DICT|INTERRES
    51   24   84 1    
    52   25   26 2    
    53   27   28 2    
    54   27   29 am   BACKBONE|DICT|INTERRES
    55   29   30 1    
    56   29   85 1    
    57   30   31 1    
    58   30   32 1    
    59   30   86 1    
    60   31   87 1    
    61   31   88 1    
    62   31   89 1    
    63   32   33 2    
    64   32   34 am   BACKBONE|DICT|INTERRES
    65   34   35 1    
    66   34   90 1    
    67   35   36 1    
    68   35   37 1    
    69   35   91 1    
    70   36   92 1    
    71   36   93 1    
    72   36   94 1    
    73   37   38 2    
    74   37   39 am   BACKBONE|DICT|INTERRES
    75   39   40 1    
    76   39   95 1    
    77   40   41 1    
    78   40   42 1    
    79   40   96 1    
    80   41   97 1    
    81   41   98 1    
    82   41   99 1    
    83   42   43 2    
    84   42   44 am   BACKBONE|DICT|INTERRES
    85   44   45 1    
    86   44  100 1    
    87   45   46 1    
    88   45   47 1    
    89   45  101 1    
    90   46  102 1    
    91   46  103 1    
    92   46  104 1    
    93   47   48 2    
    94   47   49 am   BACKBONE|DICT|INTERRES
    95   49   50 1    
    96   49  105 1    
    97   50   51 1    
    98   50   52 1    
    99   50  106 1    
   100   51  107 1    
   101   51  108 1    
   102   51  109 1    
   103   52   53 2    
   104   52   54 am   BACKBONE|DICT|INTERRES
   105   54   55 1    
   106   54  110 1    
   107   55   56 1    
   108   55   59 1    
   109   55  111 1    
   110   56   57 am   BACKBONE|DICT|INTERRES
   111   56   58 2    
   112   57  112 1    
   113   57  113 1    
   114   59   60 1    
   115   59  114 1    
   116   59  115 1    
   117   60   61 1    
   118   61  116 1    
   119   61  117 1    
@<TRIPOS>SUBSTRUCTURE
     1 UNK         1 GROUP             0       ****    0 ROOT    
