@<TRIPOS>MOLECULE
3R8
117   119    1
SMALL
USER_CHARGES


@<TRIPOS>ATOM
      1 CA         19.0597  -24.2913  -48.2119 C.3       0 UNK        -0.2013 
      2 C          17.7946  -24.2214  -47.3601 C.2       0 UNK         0.4866 
      3 O          17.0401  -23.2586  -47.4814 O.2       0 UNK        -0.5176 
      4 N          17.5093  -25.2038  -46.4925 N.am      1 UNK        -0.4884 
      5 CA         18.3116  -26.4016  -46.2044 C.3       1 UNK         0.0853 
      6 C6         17.5242  -27.4235  -45.3479 C.3       10 UNK        -0.0849 
      7 S7         16.0543  -28.1125  -46.1721 S.3       10 UNK        -0.2776 
      8 C8         15.2422  -28.9684  -44.7743 C.3       10 UNK         0.0316 
      9 C9         16.2097  -29.8226  -43.9592 C.ar      10 UNK        -0.0863 
     10 C10        16.8786  -30.8948  -44.5589 C.ar      10 UNK        -0.1009 
     11 C11        17.7996  -31.6499  -43.8296 C.ar      10 UNK        -0.0712 
     12 C12        18.0313  -31.3419  -42.4879 C.ar      10 UNK        -0.0894 
     13 C13        17.3787  -30.2724  -41.8697 C.ar      10 UNK        -0.0745 
     14 C14        16.4576  -29.5214  -42.6137 C.ar      10 UNK        -0.0972 
     15 C15        17.7071  -29.9803  -40.4026 C.3       10 UNK         0.0209 
     16 S16        17.3509  -28.2869  -39.8123 S.3       10 UNK        -0.2568 
     17 C17        18.4019  -27.1407  -40.7798 C.3       10 UNK        -0.0983 
     18 CA         19.6675  -27.6956  -41.4994 C.3       3 UNK         0.0876 
     19 N          20.1196  -26.7770  -42.5460 N.am      3 UNK        -0.4424 
     20 C          20.5914  -25.5307  -42.3950 C.2       2 UNK         0.4918 
     21 O          20.9172  -25.0541  -41.3075 O.2       2 UNK        -0.4875 
     22 CA         20.6269  -24.6269  -43.6502 C.3       2 UNK         0.0481 
     23 CB         22.0454  -24.4894  -44.2343 C.3       2 UNK        -0.1831 
     24 N          19.6382  -24.9986  -44.6789 N.am      2 UNK        -0.4498 
     25 C          19.6229  -26.0919  -45.4574 C.2       1 UNK         0.5027 
     26 O          20.5466  -26.9016  -45.5135 O.2       1 UNK        -0.4969 
     27 C          20.8394  -28.0856  -40.5799 C.2       3 UNK         0.5005 
     28 O          21.7407  -28.7908  -41.0365 O.2       3 UNK        -0.5279 
     29 N          20.8490  -27.6075  -39.3285 N.am      4 UNK        -0.4463 
     30 CA         21.9334  -27.8151  -38.3626 C.3       4 UNK         0.0283 
     31 CB         21.5531  -27.1754  -37.0188 C.3       4 UNK        -0.1875 
     32 C          23.2989  -27.2885  -38.8435 C.2       4 UNK         0.4949 
     33 O          24.3202  -27.9058  -38.5434 O.2       4 UNK        -0.5039 
     34 N          23.2969  -26.2020  -39.6310 N.am      5 UNK        -0.4663 
     35 CA         24.4976  -25.6440  -40.2635 C.3       5 UNK         0.0242 
     36 CB         24.2368  -24.1813  -40.6552 C.3       5 UNK        -0.1982 
     37 C          24.9995  -26.4686  -41.4662 C.2       5 UNK         0.5017 
     38 O          26.1443  -26.2815  -41.8775 O.2       5 UNK        -0.5012 
     39 N          24.1654  -27.3836  -41.9816 N.am      6 UNK        -0.4439 
     40 CA         24.5222  -28.3957  -42.9800 C.3       6 UNK         0.0297 
     41 CB         23.4143  -28.4673  -44.0484 C.3       6 UNK        -0.2006 
     42 C          24.7548  -29.7728  -42.3266 C.2       6 UNK         0.4892 
     43 O          24.7283  -30.7815  -43.0330 O.2       6 UNK        -0.5089 
     44 N          24.9393  -29.8050  -40.9949 N.am      7 UNK        -0.4243 
     45 CA         25.1200  -30.9923  -40.1485 C.3       7 UNK         0.0196 
     46 CB         26.4842  -31.6568  -40.4311 C.3       7 UNK        -0.2007 
     47 C          23.9426  -31.9831  -40.2419 C.2       7 UNK         0.5020 
     48 O          24.1546  -33.1965  -40.2075 O.2       7 UNK        -0.5147 
     49 N          22.7240  -31.4447  -40.4065 N.am      8 UNK        -0.4734 
     50 CA         21.4631  -32.1601  -40.6334 C.3       8 UNK         0.0238 
     51 CB         21.0211  -32.9134  -39.3619 C.3       8 UNK        -0.1912 
     52 C          21.4855  -33.0528  -41.8915 C.2       8 UNK         0.5038 
     53 O          20.8390  -34.1011  -41.9092 O.2       8 UNK        -0.5046 
     54 N          22.2333  -32.6130  -42.9128 N.am      9 UNK        -0.4200 
     55 CA         22.4938  -33.3129  -44.1806 C.3       9 UNK         0.0839 
     56 C          23.4423  -34.5429  -44.0447 C.2       9 UNK         0.5513 
     57 N          24.1125  -34.7537  -42.9167 N.am      9 UNK        -0.7519 
     58 O          23.5984  -35.3101  -44.9915 O.2       9 UNK        -0.4960 
     59 C59        21.2134  -33.6351  -45.0105 C.3       10 UNK        -0.0876 
     60 S60        20.1095  -32.1937  -45.2334 S.3       10 UNK        -0.2414 
     61 C61        18.5607  -32.7917  -44.4824 C.3       10 UNK         0.0169 
     62 H62        19.9433  -24.0785  -47.6109 H         1 UNK         0.0903 
     63 H63        19.1765  -25.2672  -48.6810 H         1 UNK         0.0903 
     64 H64        19.0184  -23.5512  -49.0110 H         1 UNK         0.0903 
     65 H65        16.6411  -25.1432  -45.9788 H         1 UNK         0.3096 
     66 H66        18.5777  -26.8844  -47.1467 H         1 UNK         0.1121 
     67 H67        17.2146  -26.9766  -44.4003 H         1 UNK         0.0849 
     68 H68        18.1644  -28.2711  -45.0907 H         1 UNK         0.0849 
     69 H69        14.7600  -28.2221  -44.1410 H         1 UNK         0.0865 
     70 H70        14.4425  -29.6017  -45.1610 H         1 UNK         0.0865 
     71 H71        16.7013  -31.1233  -45.6012 H         1 UNK         0.1346 
     72 H72        18.7314  -31.9411  -41.9250 H         1 UNK         0.1412 
     73 H73        15.9373  -28.6937  -42.1528 H         1 UNK         0.1426 
     74 H74        17.1291  -30.6728  -39.7894 H         1 UNK         0.0716 
     75 H75        18.7536  -30.2032  -40.1955 H         1 UNK         0.0716 
     76 H76        18.6513  -26.2882  -40.1459 H         1 UNK         0.0695 
     77 H77        17.7345  -26.7274  -41.5380 H         1 UNK         0.0695 
     78 H78        19.3993  -28.6008  -42.0397 H         1 UNK         0.0983 
     79 H79        20.0134  -27.1074  -43.4965 H         1 UNK         0.3095 
     80 H80        20.3244  -23.6345  -43.3129 H         1 UNK         0.0454 
     81 H81        22.0494  -23.8470  -45.1146 H         1 UNK         0.0851 
     82 H82        22.4684  -25.4492  -44.5213 H         1 UNK         0.0851 
     83 H83        22.7249  -24.0422  -43.5106 H         1 UNK         0.0851 
     84 H84        18.8085  -24.4205  -44.6985 H         1 UNK         0.2976 
     85 H85        20.0754  -27.0302  -39.0305 H         1 UNK         0.3116 
     86 H86        22.0344  -28.8920  -38.2115 H         1 UNK         0.0646 
     87 H87        20.6350  -27.6061  -36.6188 H         1 UNK         0.0847 
     88 H88        22.3347  -27.3373  -36.2750 H         1 UNK         0.0847 
     89 H89        21.4086  -26.0981  -37.1096 H         1 UNK         0.0847 
     90 H90        22.4115  -25.7693  -39.8715 H         1 UNK         0.3040 
     91 H91        25.3043  -25.6486  -39.5265 H         1 UNK         0.1015 
     92 H92        23.3977  -24.0889  -41.3415 H         1 UNK         0.0786 
     93 H93        25.1088  -23.7419  -41.1417 H         1 UNK         0.0786 
     94 H94        24.0162  -23.5725  -39.7783 H         1 UNK         0.0786 
     95 H95        23.2556  -27.5092  -41.5503 H         1 UNK         0.3172 
     96 H96        25.4532  -28.1228  -43.4803 H         1 UNK         0.0595 
     97 H97        22.4461  -28.7252  -43.6187 H         1 UNK         0.0839 
     98 H98        23.6414  -29.2172  -44.8072 H         1 UNK         0.0839 
     99 H99        23.3084  -27.5199  -44.5720 H         1 UNK         0.0839 
    100 H100       24.9105  -28.9265  -40.4930 H         1 UNK         0.2998 
    101 H101       25.1319  -30.6346  -39.1177 H         1 UNK         0.0822 
    102 H102       26.6837  -32.4594  -39.7200 H         1 UNK         0.0787 
    103 H103       26.5228  -32.0914  -41.4306 H         1 UNK         0.0787 
    104 H104       27.3002  -30.9394  -40.3451 H         1 UNK         0.0787 
    105 H105       22.6538  -30.4331  -40.4877 H         1 UNK         0.3055 
    106 H106       20.7220  -31.3876  -40.8341 H         1 UNK         0.1106 
    107 H107       20.9900  -32.2494  -38.4982 H         1 UNK         0.0828 
    108 H108       20.0216  -33.3332  -39.4820 H         1 UNK         0.0828 
    109 H109       21.6939  -33.7389  -39.1276 H         1 UNK         0.0828 
    110 H110       22.7823  -31.7731  -42.7781 H         1 UNK         0.2931 
    111 H111       23.0693  -32.5948  -44.7659 H         1 UNK         0.0412 
    112 H112       24.7288  -35.5483  -42.8534 H         1 UNK         0.3472 
    113 H113       24.0065  -34.1357  -42.1211 H         1 UNK         0.3472 
    114 H114       20.6683  -34.4649  -44.5591 H         1 UNK         0.0970 
    115 H115       21.4946  -33.9812  -46.0066 H         1 UNK         0.0970 
    116 H116       18.7694  -33.5569  -43.7338 H         1 UNK         0.0612 
    117 H117       17.9499  -33.2700  -45.2494 H         1 UNK         0.0612 
@<TRIPOS>BOND
     1    1    2 1    
     2    1   62 1    
     3    1   63 1    
     4    1   64 1    
     5    2    3 2    
     6    2    4 am   BACKBONE|DICT|INTERRES
     7    4    5 1    
     8    4   65 1    
     9    5    6 1    
    10    5   25 1    
    11    5   66 1    
    12    6    7 1    
    13    6   67 1    
    14    6   68 1    
    15    7    8 1    
    16    8    9 1    
    17    8   69 1    
    18    8   70 1    
    19    9   10 ar   
    20    9   14 ar   
    21   10   11 ar   
    22   10   71 1    
    23   11   12 ar   
    24   11   61 1    
    25   12   13 ar   
    26   12   72 1    
    27   13   14 ar   
    28   13   15 1    
    29   14   73 1    
    30   15   16 1    
    31   15   74 1    
    32   15   75 1    
    33   16   17 1    
    34   17   18 1    
    35   17   76 1    
    36   17   77 1    
    37   18   19 1    
    38   18   27 1    
    39   18   78 1    
    40   19   20 am   BACKBONE|DICT|INTERRES
    41   19   79 1    
    42   20   21 2    
    43   20   22 1    
    44   22   23 1    
    45   22   24 1    
    46   22   80 1    
    47   23   81 1    
    48   23   82 1    
    49   23   83 1    
    50   24   25 am   BACKBONE|DICT|INTERRES
    51   24   84 1    
    52   25   26 2    
    53   27   28 2    
    54   27   29 am   BACKBONE|DICT|INTERRES
    55   29   30 1    
    56   29   85 1    
    57   30   31 1    
    58   30   32 1    
    59   30   86 1    
    60   31   87 1    
    61   31   88 1    
    62   31   89 1    
    63   32   33 2    
    64   32   34 am   BACKBONE|DICT|INTERRES
    65   34   35 1    
    66   34   90 1    
    67   35   36 1    
    68   35   37 1    
    69   35   91 1    
    70   36   92 1    
    71   36   93 1    
    72   36   94 1    
    73   37   38 2    
    74   37   39 am   BACKBONE|DICT|INTERRES
    75   39   40 1    
    76   39   95 1    
    77   40   41 1    
    78   40   42 1    
    79   40   96 1    
    80   41   97 1    
    81   41   98 1    
    82   41   99 1    
    83   42   43 2    
    84   42   44 am   BACKBONE|DICT|INTERRES
    85   44   45 1    
    86   44  100 1    
    87   45   46 1    
    88   45   47 1    
    89   45  101 1    
    90   46  102 1    
    91   46  103 1    
    92   46  104 1    
    93   47   48 2    
    94   47   49 am   BACKBONE|DICT|INTERRES
    95   49   50 1    
    96   49  105 1    
    97   50   51 1    
    98   50   52 1    
    99   50  106 1    
   100   51  107 1    
   101   51  108 1    
   102   51  109 1    
   103   52   53 2    
   104   52   54 am   BACKBONE|DICT|INTERRES
   105   54   55 1    
   106   54  110 1    
   107   55   56 1    
   108   55   59 1    
   109   55  111 1    
   110   56   57 am   BACKBONE|DICT|INTERRES
   111   56   58 2    
   112   57  112 1    
   113   57  113 1    
   114   59   60 1    
   115   59  114 1    
   116   59  115 1    
   117   60   61 1    
   118   61  116 1    
   119   61  117 1    
@<TRIPOS>SUBSTRUCTURE
     1 UNK         1 GROUP             0       ****    0 ROOT    
