@<TRIPOS>MOLECULE
3R8
117   119    1
SMALL
USER_CHARGES


@<TRIPOS>ATOM
      1 CA         15.1102  -24.5199  -48.4771 C.3       0 UNK        -0.2013 
      2 C          16.4751  -25.1660  -48.6626 C.2       0 UNK         0.4866 
      3 O          16.8479  -25.4995  -49.7880 O.2       0 UNK        -0.5176 
      4 N          17.2241  -25.3398  -47.5706 N.am      1 UNK        -0.4884 
      5 CA         18.5650  -25.9227  -47.5388 C.3       1 UNK         0.0853 
      6 C6         18.5591  -27.4700  -47.7058 C.3       10 UNK        -0.0849 
      7 S7         17.6289  -28.3667  -46.4131 S.3       10 UNK        -0.2776 
      8 C8         19.0031  -28.9987  -45.3949 C.3       10 UNK         0.0316 
      9 C9         18.5966  -29.3279  -43.9645 C.ar      10 UNK        -0.0863 
     10 C10        19.0935  -30.4820  -43.3558 C.ar      10 UNK        -0.1009 
     11 C11        18.7859  -30.7826  -42.0263 C.ar      10 UNK        -0.0712 
     12 C12        17.9603  -29.9166  -41.3014 C.ar      10 UNK        -0.0894 
     13 C13        17.4566  -28.7548  -41.8972 C.ar      10 UNK        -0.0745 
     14 C14        17.7822  -28.4643  -43.2249 C.ar      10 UNK        -0.0972 
     15 C15        16.5645  -27.8077  -41.1088 C.3       10 UNK         0.0209 
     16 S16        17.5324  -26.6932  -40.0435 S.3       10 UNK        -0.2568 
     17 C17        18.3628  -25.6017  -41.2550 C.3       10 UNK        -0.0983 
     18 CA         19.8039  -26.0606  -41.6155 C.3       3 UNK         0.0876 
     19 N          20.2089  -25.5541  -42.9297 N.am      3 UNK        -0.4424 
     20 C          21.1015  -26.1320  -43.7421 C.2       2 UNK         0.4918 
     21 O          21.6329  -27.2216  -43.5172 O.2       2 UNK        -0.4875 
     22 CA         21.4469  -25.3585  -45.0308 C.3       2 UNK         0.0481 
     23 CB         22.9132  -25.5685  -45.4500 C.3       2 UNK        -0.1831 
     24 N          20.5812  -25.7309  -46.1519 N.am      2 UNK        -0.4498 
     25 C          19.2779  -25.4371  -46.2602 C.2       1 UNK         0.5027 
     26 O          18.6469  -24.7992  -45.4106 O.2       1 UNK        -0.4969 
     27 C          20.8662  -25.7420  -40.5338 C.2       3 UNK         0.5005 
     28 O          22.0357  -25.5201  -40.8546 O.2       3 UNK        -0.5279 
     29 N          20.4624  -25.7911  -39.2552 N.am      4 UNK        -0.4463 
     30 CA         21.3088  -25.6964  -38.0544 C.3       4 UNK         0.0283 
     31 CB         21.9071  -24.2810  -37.9087 C.3       4 UNK        -0.1875 
     32 C          22.3792  -26.8077  -38.0011 C.2       4 UNK         0.4949 
     33 O          23.4817  -26.5853  -37.4998 O.2       4 UNK        -0.5039 
     34 N          22.0239  -27.9775  -38.5553 N.am      5 UNK        -0.4663 
     35 CA         22.8446  -29.1767  -38.7498 C.3       5 UNK         0.0242 
     36 CB         23.2656  -29.7848  -37.3949 C.3       5 UNK        -0.1982 
     37 C          24.0400  -28.9906  -39.7081 C.2       5 UNK         0.5017 
     38 O          24.9291  -29.8419  -39.7080 O.2       5 UNK        -0.5012 
     39 N          24.0453  -27.9347  -40.5397 N.am      6 UNK        -0.4439 
     40 CA         25.0990  -27.6819  -41.5320 C.3       6 UNK         0.0297 
     41 CB         24.9462  -26.2708  -42.1153 C.3       6 UNK        -0.2006 
     42 C          25.1400  -28.7425  -42.6474 C.2       6 UNK         0.4892 
     43 O          26.2256  -29.1967  -43.0090 O.2       6 UNK        -0.5089 
     44 N          23.9597  -29.1569  -43.1297 N.am      7 UNK        -0.4243 
     45 CA         23.7815  -30.2796  -44.0591 C.3       7 UNK         0.0196 
     46 CB         22.4986  -30.0493  -44.8713 C.3       7 UNK        -0.2007 
     47 C          23.7687  -31.6603  -43.3658 C.2       7 UNK         0.5020 
     48 O          23.6293  -32.6737  -44.0516 O.2       7 UNK        -0.5147 
     49 N          23.9161  -31.6854  -42.0329 N.am      8 UNK        -0.4734 
     50 CA         24.0761  -32.8299  -41.1231 C.3       8 UNK         0.0238 
     51 CB         25.3561  -33.6223  -41.4532 C.3       8 UNK        -0.1912 
     52 C          22.8715  -33.7775  -40.9826 C.2       8 UNK         0.5038 
     53 O          22.5737  -34.1784  -39.8572 O.2       8 UNK        -0.5046 
     54 N          22.2256  -34.1429  -42.0977 N.am      9 UNK        -0.4200 
     55 CA         21.1842  -35.1865  -42.1927 C.3       9 UNK         0.0839 
     56 C          21.6964  -36.6255  -41.8629 C.2       9 UNK         0.5513 
     57 N          22.9933  -36.8992  -41.9482 N.am      9 UNK        -0.7519 
     58 O          20.9118  -37.5208  -41.5590 O.2       9 UNK        -0.4960 
     59 C59        19.8686  -34.8166  -41.4395 C.3       10 UNK        -0.0876 
     60 S60        18.9149  -33.5296  -42.3052 S.3       10 UNK        -0.2414 
     61 C61        19.3711  -32.0311  -41.3799 C.3       10 UNK         0.0169 
     62 H62        14.9120  -24.2795  -47.4327 H         1 UNK         0.0903 
     63 H63        15.0491  -23.5982  -49.0551 H         1 UNK         0.0903 
     64 H64        14.3267  -25.1930  -48.8241 H         1 UNK         0.0903 
     65 H65        16.9125  -25.0084  -46.6649 H         1 UNK         0.3096 
     66 H66        19.1254  -25.4945  -48.3733 H         1 UNK         0.1121 
     67 H67        19.5777  -27.8568  -47.7644 H         1 UNK         0.0849 
     68 H68        18.1096  -27.7264  -48.6662 H         1 UNK         0.0849 
     69 H69        19.4197  -29.8772  -45.8904 H         1 UNK         0.0865 
     70 H70        19.8059  -28.2654  -45.3498 H         1 UNK         0.0865 
     71 H71        19.7300  -31.1548  -43.9139 H         1 UNK         0.1346 
     72 H72        17.7167  -30.1379  -40.2712 H         1 UNK         0.1412 
     73 H73        17.4103  -27.5568  -43.6807 H         1 UNK         0.1426 
     74 H74        15.8836  -28.3871  -40.4835 H         1 UNK         0.0716 
     75 H75        15.9342  -27.2198  -41.7780 H         1 UNK         0.0716 
     76 H76        18.3633  -24.5794  -40.8719 H         1 UNK         0.0695 
     77 H77        17.7433  -25.5719  -42.1529 H         1 UNK         0.0695 
     78 H78        19.7936  -27.1497  -41.6915 H         1 UNK         0.0983 
     79 H79        19.8001  -24.6767  -43.2183 H         1 UNK         0.3095 
     80 H80        21.3115  -24.2923  -44.8369 H         1 UNK         0.0454 
     81 H81        23.1424  -26.6196  -45.6303 H         1 UNK         0.0851 
     82 H82        23.5927  -25.2131  -44.6761 H         1 UNK         0.0851 
     83 H83        23.1509  -25.0135  -46.3576 H         1 UNK         0.0851 
     84 H84        21.0211  -26.2628  -46.8887 H         1 UNK         0.2976 
     85 H85        19.4808  -25.9879  -39.0919 H         1 UNK         0.3116 
     86 H86        20.6514  -25.8666  -37.2006 H         1 UNK         0.0646 
     87 H87        22.6350  -24.0650  -38.6914 H         1 UNK         0.0847 
     88 H88        22.4189  -24.1699  -36.9521 H         1 UNK         0.0847 
     89 H89        21.1322  -23.5159  -37.9506 H         1 UNK         0.0847 
     90 H90        21.0859  -28.0352  -38.9269 H         1 UNK         0.3040 
     91 H91        22.1946  -29.9037  -39.2398 H         1 UNK         0.1015 
     92 H92        23.9868  -29.1543  -36.8740 H         1 UNK         0.0786 
     93 H93        23.7297  -30.7627  -37.5299 H         1 UNK         0.0786 
     94 H94        22.4069  -29.9259  -36.7387 H         1 UNK         0.0786 
     95 H95        23.2950  -27.2537  -40.4880 H         1 UNK         0.3172 
     96 H96        26.0578  -27.7205  -41.0104 H         1 UNK         0.0595 
     97 H97        25.7176  -26.0653  -42.8586 H         1 UNK         0.0839 
     98 H98        25.0294  -25.5099  -41.3390 H         1 UNK         0.0839 
     99 H99        23.9798  -26.1440  -42.5997 H         1 UNK         0.0839 
    100 H100       23.1183  -28.6657  -42.8476 H         1 UNK         0.2998 
    101 H101       24.6189  -30.2935  -44.7599 H         1 UNK         0.0822 
    102 H102       22.2870  -30.8847  -45.5401 H         1 UNK         0.0787 
    103 H103       21.6413  -29.9211  -44.2144 H         1 UNK         0.0787 
    104 H104       22.5781  -29.1534  -45.4870 H         1 UNK         0.0787 
    105 H105       24.0376  -30.7877  -41.5831 H         1 UNK         0.3055 
    106 H106       24.2223  -32.3921  -40.1342 H         1 UNK         0.1106 
    107 H107       25.5188  -34.4214  -40.7286 H         1 UNK         0.0828 
    108 H108       25.3106  -34.0833  -42.4402 H         1 UNK         0.0828 
    109 H109       26.2355  -32.9786  -41.4253 H         1 UNK         0.0828 
    110 H110       22.5664  -33.7594  -42.9759 H         1 UNK         0.2931 
    111 H111       20.9404  -35.2440  -43.2542 H         1 UNK         0.0412 
    112 H112       23.6504  -36.1874  -42.2231 H         1 UNK         0.3472 
    113 H113       23.3144  -37.8332  -41.7456 H         1 UNK         0.3472 
    114 H114       20.0614  -34.5204  -40.4080 H         1 UNK         0.0970 
    115 H115       19.2012  -35.6771  -41.3731 H         1 UNK         0.0970 
    116 H116       19.0345  -32.1321  -40.3470 H         1 UNK         0.0612 
    117 H117       20.4570  -31.9358  -41.3519 H         1 UNK         0.0612 
@<TRIPOS>BOND
     1    1    2 1    
     2    1   62 1    
     3    1   63 1    
     4    1   64 1    
     5    2    3 2    
     6    2    4 am   BACKBONE|DICT|INTERRES
     7    4    5 1    
     8    4   65 1    
     9    5    6 1    
    10    5   25 1    
    11    5   66 1    
    12    6    7 1    
    13    6   67 1    
    14    6   68 1    
    15    7    8 1    
    16    8    9 1    
    17    8   69 1    
    18    8   70 1    
    19    9   10 ar   
    20    9   14 ar   
    21   10   11 ar   
    22   10   71 1    
    23   11   12 ar   
    24   11   61 1    
    25   12   13 ar   
    26   12   72 1    
    27   13   14 ar   
    28   13   15 1    
    29   14   73 1    
    30   15   16 1    
    31   15   74 1    
    32   15   75 1    
    33   16   17 1    
    34   17   18 1    
    35   17   76 1    
    36   17   77 1    
    37   18   19 1    
    38   18   27 1    
    39   18   78 1    
    40   19   20 am   BACKBONE|DICT|INTERRES
    41   19   79 1    
    42   20   21 2    
    43   20   22 1    
    44   22   23 1    
    45   22   24 1    
    46   22   80 1    
    47   23   81 1    
    48   23   82 1    
    49   23   83 1    
    50   24   25 am   BACKBONE|DICT|INTERRES
    51   24   84 1    
    52   25   26 2    
    53   27   28 2    
    54   27   29 am   BACKBONE|DICT|INTERRES
    55   29   30 1    
    56   29   85 1    
    57   30   31 1    
    58   30   32 1    
    59   30   86 1    
    60   31   87 1    
    61   31   88 1    
    62   31   89 1    
    63   32   33 2    
    64   32   34 am   BACKBONE|DICT|INTERRES
    65   34   35 1    
    66   34   90 1    
    67   35   36 1    
    68   35   37 1    
    69   35   91 1    
    70   36   92 1    
    71   36   93 1    
    72   36   94 1    
    73   37   38 2    
    74   37   39 am   BACKBONE|DICT|INTERRES
    75   39   40 1    
    76   39   95 1    
    77   40   41 1    
    78   40   42 1    
    79   40   96 1    
    80   41   97 1    
    81   41   98 1    
    82   41   99 1    
    83   42   43 2    
    84   42   44 am   BACKBONE|DICT|INTERRES
    85   44   45 1    
    86   44  100 1    
    87   45   46 1    
    88   45   47 1    
    89   45  101 1    
    90   46  102 1    
    91   46  103 1    
    92   46  104 1    
    93   47   48 2    
    94   47   49 am   BACKBONE|DICT|INTERRES
    95   49   50 1    
    96   49  105 1    
    97   50   51 1    
    98   50   52 1    
    99   50  106 1    
   100   51  107 1    
   101   51  108 1    
   102   51  109 1    
   103   52   53 2    
   104   52   54 am   BACKBONE|DICT|INTERRES
   105   54   55 1    
   106   54  110 1    
   107   55   56 1    
   108   55   59 1    
   109   55  111 1    
   110   56   57 am   BACKBONE|DICT|INTERRES
   111   56   58 2    
   112   57  112 1    
   113   57  113 1    
   114   59   60 1    
   115   59  114 1    
   116   59  115 1    
   117   60   61 1    
   118   61  116 1    
   119   61  117 1    
@<TRIPOS>SUBSTRUCTURE
     1 UNK         1 GROUP             0       ****    0 ROOT    
