@<TRIPOS>MOLECULE
3R8
117   119    1
SMALL
USER_CHARGES


@<TRIPOS>ATOM
      1 CA         15.5398  -23.3799  -42.3059 C.3       0 UNK        -0.2013 
      2 C          15.1908  -23.7668  -43.7411 C.2       0 UNK         0.4866 
      3 O          14.6060  -22.9485  -44.4487 O.2       0 UNK        -0.5176 
      4 N          15.4973  -24.9782  -44.2313 N.am      1 UNK        -0.4884 
      5 CA         16.2203  -26.0993  -43.6107 C.3       1 UNK         0.0853 
      6 C6         15.5623  -26.6016  -42.2911 C.3       10 UNK        -0.0849 
      7 S7         15.9725  -28.3041  -41.7606 S.3       10 UNK        -0.2776 
      8 C8         15.4108  -29.3550  -43.1409 C.3       10 UNK         0.0316 
      9 C9         16.5591  -29.7043  -44.0798 C.ar      10 UNK        -0.0863 
     10 C10        17.6201  -30.4925  -43.6224 C.ar      10 UNK        -0.1009 
     11 C11        18.6863  -30.8137  -44.4676 C.ar      10 UNK        -0.0712 
     12 C12        18.6755  -30.3577  -45.7885 C.ar      10 UNK        -0.0894 
     13 C13        17.6136  -29.5813  -46.2635 C.ar      10 UNK        -0.0745 
     14 C14        16.5561  -29.2648  -45.4068 C.ar      10 UNK        -0.0972 
     15 C15        17.5852  -29.1040  -47.7079 C.3       10 UNK         0.0209 
     16 S16        18.3628  -27.4683  -47.8975 S.3       10 UNK        -0.2568 
     17 C17        20.1345  -27.9053  -47.8882 C.3       10 UNK        -0.0983 
     18 CA         20.9406  -27.2062  -46.7658 C.3       3 UNK         0.0876 
     19 N          20.3436  -27.3747  -45.4337 N.am      3 UNK        -0.4424 
     20 C          20.6712  -26.6341  -44.3652 C.2       2 UNK         0.4918 
     21 O          21.4794  -25.7050  -44.3965 O.2       2 UNK        -0.4875 
     22 CA         19.9466  -26.9876  -43.0539 C.3       2 UNK         0.0481 
     23 CB         20.4399  -26.1683  -41.8432 C.3       2 UNK        -0.1831 
     24 N          18.4878  -26.9171  -43.1791 N.am      2 UNK        -0.4498 
     25 C          17.7452  -25.8539  -43.5191 C.2       1 UNK         0.5027 
     26 O          18.2139  -24.7416  -43.7715 O.2       1 UNK        -0.4969 
     27 C          22.4117  -27.6735  -46.8092 C.2       3 UNK         0.5005 
     28 O          23.1999  -27.1152  -47.5750 O.2       3 UNK        -0.5279 
     29 N          22.7464  -28.6863  -45.9966 N.am      4 UNK        -0.4463 
     30 CA         24.1031  -29.1903  -45.7836 C.3       4 UNK         0.0283 
     31 CB         24.0748  -30.7330  -45.7974 C.3       4 UNK        -0.1875 
     32 C          24.6631  -28.5952  -44.4772 C.2       4 UNK         0.4949 
     33 O          24.3491  -27.4511  -44.1431 O.2       4 UNK        -0.5039 
     34 N          25.4901  -29.3609  -43.7544 N.am      5 UNK        -0.4663 
     35 CA         25.9947  -28.9894  -42.4322 C.3       5 UNK         0.0242 
     36 CB         27.1346  -29.9422  -42.0358 C.3       5 UNK        -0.1982 
     37 C          24.8668  -29.0458  -41.3915 C.2       5 UNK         0.5017 
     38 O          24.1671  -30.0580  -41.3191 O.2       5 UNK        -0.5012 
     39 N          24.7397  -27.9964  -40.5685 N.am      6 UNK        -0.4439 
     40 CA         23.7403  -27.9028  -39.4962 C.3       6 UNK         0.0297 
     41 CB         23.7913  -26.5039  -38.8628 C.3       6 UNK        -0.2006 
     42 C          23.8885  -28.9930  -38.4187 C.2       6 UNK         0.4892 
     43 O          22.8850  -29.4154  -37.8469 O.2       6 UNK        -0.5089 
     44 N          25.1249  -29.4620  -38.1981 N.am      7 UNK        -0.4243 
     45 CA         25.4456  -30.5929  -37.3246 C.3       7 UNK         0.0196 
     46 CB         26.9672  -30.6481  -37.1120 C.3       7 UNK        -0.2007 
     47 C          24.9289  -31.9444  -37.8546 C.2       7 UNK         0.5020 
     48 O          24.6918  -32.8469  -37.0514 O.2       7 UNK        -0.5147 
     49 N          24.7669  -32.0675  -39.1798 N.am      8 UNK        -0.4734 
     50 CA         24.2012  -33.2479  -39.8332 C.3       8 UNK         0.0238 
     51 CB         24.8540  -33.4436  -41.2128 C.3       8 UNK        -0.1912 
     52 C          22.6767  -33.1251  -39.9617 C.2       8 UNK         0.5038 
     53 O          21.9691  -34.0857  -39.6557 O.2       8 UNK        -0.5046 
     54 N          22.2034  -31.9556  -40.4134 N.am      9 UNK        -0.4200 
     55 CA         20.7771  -31.6584  -40.6092 C.3       9 UNK         0.0839 
     56 C          19.9590  -31.5047  -39.2973 C.2       9 UNK         0.5513 
     57 N          20.5507  -31.0887  -38.1854 N.am      9 UNK        -0.7519 
     58 O          18.7616  -31.7769  -39.2902 O.2       9 UNK        -0.4960 
     59 C59        20.5625  -30.4380  -41.5396 C.3       10 UNK        -0.0876 
     60 S60        21.1826  -30.7210  -43.2336 S.3       10 UNK        -0.2414 
     61 C61        19.8287  -31.6898  -43.9737 C.3       10 UNK         0.0169 
     62 H62        16.5202  -23.7406  -42.0024 H         1 UNK         0.0903 
     63 H63        14.7905  -23.7673  -41.6166 H         1 UNK         0.0903 
     64 H64        15.5533  -22.2950  -42.2032 H         1 UNK         0.0903 
     65 H65        15.2540  -25.1437  -45.1983 H         1 UNK         0.3096 
     66 H66        16.1103  -26.8865  -44.3499 H         1 UNK         0.1121 
     67 H67        15.8171  -25.9458  -41.4587 H         1 UNK         0.0849 
     68 H68        14.4758  -26.5530  -42.3821 H         1 UNK         0.0849 
     69 H69        15.0016  -30.2796  -42.7311 H         1 UNK         0.0865 
     70 H70        14.5897  -28.8709  -43.6722 H         1 UNK         0.0865 
     71 H71        17.6079  -30.8602  -42.6055 H         1 UNK         0.1346 
     72 H72        19.4868  -30.6277  -46.4498 H         1 UNK         0.1412 
     73 H73        15.7272  -28.6797  -45.7817 H         1 UNK         0.1426 
     74 H74        18.0717  -29.8284  -48.3631 H         1 UNK         0.0716 
     75 H75        16.5521  -29.0383  -48.0526 H         1 UNK         0.0716 
     76 H76        20.5397  -27.6248  -48.8625 H         1 UNK         0.0695 
     77 H77        20.2480  -28.9879  -47.8285 H         1 UNK         0.0695 
     78 H78        20.9433  -26.1356  -46.9835 H         1 UNK         0.0983 
     79 H79        19.6264  -28.0811  -45.3462 H         1 UNK         0.3095 
     80 H80        20.1797  -28.0301  -42.8530 H         1 UNK         0.0454 
     81 H81        19.9543  -26.4902  -40.9222 H         1 UNK         0.0851 
     82 H82        20.2498  -25.1020  -41.9688 H         1 UNK         0.0851 
     83 H83        21.5146  -26.2922  -41.7031 H         1 UNK         0.0851 
     84 H84        17.9933  -27.7790  -42.9826 H         1 UNK         0.2976 
     85 H85        22.0413  -29.0393  -45.3651 H         1 UNK         0.3116 
     86 H86        24.7570  -28.8601  -46.5931 H         1 UNK         0.0646 
     87 H87        23.5679  -31.1089  -46.6864 H         1 UNK         0.0847 
     88 H88        25.0828  -31.1488  -45.8133 H         1 UNK         0.0847 
     89 H89        23.5612  -31.1424  -44.9272 H         1 UNK         0.0847 
     90 H90        25.6815  -30.3013  -44.0668 H         1 UNK         0.3040 
     91 H91        26.3911  -27.9728  -42.4839 H         1 UNK         0.1015 
     92 H92        26.7969  -30.9779  -41.9774 H         1 UNK         0.0786 
     93 H93        27.5446  -29.6781  -41.0601 H         1 UNK         0.0786 
     94 H94        27.9552  -29.8979  -42.7523 H         1 UNK         0.0786 
     95 H95        25.3509  -27.2012  -40.6909 H         1 UNK         0.3172 
     96 H96        22.7569  -28.0314  -39.9532 H         1 UNK         0.0595 
     97 H97        24.7626  -26.2978  -38.4114 H         1 UNK         0.0839 
     98 H98        23.0401  -26.4046  -38.0778 H         1 UNK         0.0839 
     99 H99        23.5893  -25.7261  -39.5997 H         1 UNK         0.0839 
    100 H100       25.8911  -29.0453  -38.7060 H         1 UNK         0.2998 
    101 H101       24.9692  -30.4173  -36.3574 H         1 UNK         0.0822 
    102 H102       27.3399  -29.7266  -36.6640 H         1 UNK         0.0787 
    103 H103       27.2377  -31.4646  -36.4408 H         1 UNK         0.0787 
    104 H104       27.5010  -30.8074  -38.0500 H         1 UNK         0.0787 
    105 H105       24.9218  -31.2595  -39.7701 H         1 UNK         0.3055 
    106 H106       24.4153  -34.1363  -39.2341 H         1 UNK         0.1106 
    107 H107       25.9346  -33.5572  -41.1267 H         1 UNK         0.0828 
    108 H108       24.4718  -34.3429  -41.6976 H         1 UNK         0.0828 
    109 H109       24.6577  -32.6072  -41.8841 H         1 UNK         0.0828 
    110 H110       22.8595  -31.2299  -40.6892 H         1 UNK         0.2931 
    111 H111       20.3488  -32.5264  -41.1135 H         1 UNK         0.0412 
    112 H112       20.0026  -31.0036  -37.3446 H         1 UNK         0.3472 
    113 H113       21.5112  -30.7616  -38.1875 H         1 UNK         0.3472 
    114 H114       19.5104  -30.1590  -41.5900 H         1 UNK         0.0970 
    115 H115       21.0782  -29.5676  -41.1305 H         1 UNK         0.0970 
    116 H116       20.2363  -32.2638  -44.8071 H         1 UNK         0.0612 
    117 H117       19.4582  -32.4258  -43.2597 H         1 UNK         0.0612 
@<TRIPOS>BOND
     1    1    2 1    
     2    1   62 1    
     3    1   63 1    
     4    1   64 1    
     5    2    3 2    
     6    2    4 am   BACKBONE|DICT|INTERRES
     7    4    5 1    
     8    4   65 1    
     9    5    6 1    
    10    5   25 1    
    11    5   66 1    
    12    6    7 1    
    13    6   67 1    
    14    6   68 1    
    15    7    8 1    
    16    8    9 1    
    17    8   69 1    
    18    8   70 1    
    19    9   10 ar   
    20    9   14 ar   
    21   10   11 ar   
    22   10   71 1    
    23   11   12 ar   
    24   11   61 1    
    25   12   13 ar   
    26   12   72 1    
    27   13   14 ar   
    28   13   15 1    
    29   14   73 1    
    30   15   16 1    
    31   15   74 1    
    32   15   75 1    
    33   16   17 1    
    34   17   18 1    
    35   17   76 1    
    36   17   77 1    
    37   18   19 1    
    38   18   27 1    
    39   18   78 1    
    40   19   20 am   BACKBONE|DICT|INTERRES
    41   19   79 1    
    42   20   21 2    
    43   20   22 1    
    44   22   23 1    
    45   22   24 1    
    46   22   80 1    
    47   23   81 1    
    48   23   82 1    
    49   23   83 1    
    50   24   25 am   BACKBONE|DICT|INTERRES
    51   24   84 1    
    52   25   26 2    
    53   27   28 2    
    54   27   29 am   BACKBONE|DICT|INTERRES
    55   29   30 1    
    56   29   85 1    
    57   30   31 1    
    58   30   32 1    
    59   30   86 1    
    60   31   87 1    
    61   31   88 1    
    62   31   89 1    
    63   32   33 2    
    64   32   34 am   BACKBONE|DICT|INTERRES
    65   34   35 1    
    66   34   90 1    
    67   35   36 1    
    68   35   37 1    
    69   35   91 1    
    70   36   92 1    
    71   36   93 1    
    72   36   94 1    
    73   37   38 2    
    74   37   39 am   BACKBONE|DICT|INTERRES
    75   39   40 1    
    76   39   95 1    
    77   40   41 1    
    78   40   42 1    
    79   40   96 1    
    80   41   97 1    
    81   41   98 1    
    82   41   99 1    
    83   42   43 2    
    84   42   44 am   BACKBONE|DICT|INTERRES
    85   44   45 1    
    86   44  100 1    
    87   45   46 1    
    88   45   47 1    
    89   45  101 1    
    90   46  102 1    
    91   46  103 1    
    92   46  104 1    
    93   47   48 2    
    94   47   49 am   BACKBONE|DICT|INTERRES
    95   49   50 1    
    96   49  105 1    
    97   50   51 1    
    98   50   52 1    
    99   50  106 1    
   100   51  107 1    
   101   51  108 1    
   102   51  109 1    
   103   52   53 2    
   104   52   54 am   BACKBONE|DICT|INTERRES
   105   54   55 1    
   106   54  110 1    
   107   55   56 1    
   108   55   59 1    
   109   55  111 1    
   110   56   57 am   BACKBONE|DICT|INTERRES
   111   56   58 2    
   112   57  112 1    
   113   57  113 1    
   114   59   60 1    
   115   59  114 1    
   116   59  115 1    
   117   60   61 1    
   118   61  116 1    
   119   61  117 1    
@<TRIPOS>SUBSTRUCTURE
     1 UNK         1 GROUP             0       ****    0 ROOT    
