@<TRIPOS>MOLECULE
3R8
117   119    1
SMALL
USER_CHARGES


@<TRIPOS>ATOM
      1 CA         14.0005  -25.3216  -48.5611 C.3       0 UNK        -0.2013 
      2 C          14.0078  -24.3512  -47.3819 C.2       0 UNK         0.4866 
      3 O          13.3584  -23.3097  -47.4573 O.2       0 UNK        -0.5176 
      4 N          14.7011  -24.6417  -46.2720 N.am      1 UNK        -0.4884 
      5 CA         15.5809  -25.7941  -46.0431 C.3       1 UNK         0.0853 
      6 C6         16.0417  -25.8725  -44.5667 C.3       10 UNK        -0.0849 
      7 S7         14.6884  -26.1491  -43.3760 S.3       10 UNK        -0.2776 
      8 C8         15.1619  -27.7532  -42.6264 C.3       10 UNK         0.0316 
      9 C9         16.5749  -27.8252  -42.0347 C.ar      10 UNK        -0.0863 
     10 C10        17.1947  -29.0747  -41.9254 C.ar      10 UNK        -0.1009 
     11 C11        18.4895  -29.1920  -41.4102 C.ar      10 UNK        -0.0712 
     12 C12        19.1725  -28.0463  -40.9981 C.ar      10 UNK        -0.0894 
     13 C13        18.5775  -26.7872  -41.1193 C.ar      10 UNK        -0.0745 
     14 C14        17.2729  -26.6862  -41.6109 C.ar      10 UNK        -0.0972 
     15 C15        19.3497  -25.5300  -40.7457 C.3       10 UNK         0.0209 
     16 S16        20.8711  -25.3380  -41.7327 S.3       10 UNK        -0.2568 
     17 C17        20.2359  -25.2480  -43.4477 C.3       10 UNK        -0.0983 
     18 CA         20.3857  -26.5667  -44.2551 C.3       3 UNK         0.0876 
     19 N          19.7776  -26.4435  -45.5815 N.am      3 UNK        -0.4424 
     20 C          19.5759  -27.4535  -46.4390 C.2       2 UNK         0.4918 
     21 O          19.9146  -28.6183  -46.2262 O.2       2 UNK        -0.4875 
     22 CA         18.7559  -27.1096  -47.6951 C.3       2 UNK         0.0481 
     23 CB         18.8056  -28.2178  -48.7631 C.3       2 UNK        -0.1831 
     24 N          17.3719  -26.9153  -47.2648 N.am      2 UNK        -0.4498 
     25 C          16.8470  -25.7340  -46.9193 C.2       1 UNK         0.5027 
     26 O          17.3768  -24.6475  -47.1641 O.2       1 UNK        -0.4969 
     27 C          21.8544  -27.0319  -44.3496 C.2       3 UNK         0.5005 
     28 O          22.6411  -26.4406  -45.0939 O.2       3 UNK        -0.5279 
     29 N          22.1900  -28.0550  -43.5584 N.am      4 UNK        -0.4463 
     30 CA         23.5370  -28.5766  -43.3534 C.3       4 UNK         0.0283 
     31 CB         23.8289  -29.7026  -44.3621 C.3       4 UNK        -0.1875 
     32 C          23.6621  -29.0155  -41.8885 C.2       4 UNK         0.4949 
     33 O          24.0781  -30.1409  -41.6065 O.2       4 UNK        -0.5039 
     34 N          23.2707  -28.1146  -40.9732 N.am      5 UNK        -0.4663 
     35 CA         23.2085  -28.3325  -39.5218 C.3       5 UNK         0.0242 
     36 CB         22.6531  -27.0745  -38.8363 C.3       5 UNK        -0.1982 
     37 C          24.5418  -28.7424  -38.8749 C.2       5 UNK         0.5017 
     38 O          24.5242  -29.4835  -37.8930 O.2       5 UNK        -0.5012 
     39 N          25.6668  -28.3126  -39.4643 N.am      6 UNK        -0.4439 
     40 CA         27.0270  -28.7039  -39.0756 C.3       6 UNK         0.0297 
     41 CB         28.0409  -27.8853  -39.8908 C.3       6 UNK        -0.2006 
     42 C          27.3106  -30.2126  -39.2262 C.2       6 UNK         0.4892 
     43 O          28.1626  -30.7355  -38.5073 O.2       6 UNK        -0.5089 
     44 N          26.5853  -30.8793  -40.1341 N.am      7 UNK        -0.4243 
     45 CA         26.6062  -32.3280  -40.3438 C.3       7 UNK         0.0196 
     46 CB         26.8505  -32.5934  -41.8406 C.3       7 UNK        -0.2007 
     47 C          25.2905  -32.9847  -39.8839 C.2       7 UNK         0.5020 
     48 O          25.0836  -34.1655  -40.1658 O.2       7 UNK        -0.5147 
     49 N          24.3985  -32.2114  -39.2410 N.am      8 UNK        -0.4734 
     50 CA         23.0224  -32.5578  -38.8515 C.3       8 UNK         0.0238 
     51 CB         23.0353  -33.5722  -37.6889 C.3       8 UNK        -0.1912 
     52 C          22.1430  -33.0236  -40.0336 C.2       8 UNK         0.5038 
     53 O          21.2205  -33.8150  -39.8306 O.2       8 UNK        -0.5046 
     54 N          22.4655  -32.5488  -41.2458 N.am      9 UNK        -0.4200 
     55 CA         21.9320  -33.0158  -42.5360 C.3       9 UNK         0.0839 
     56 C          22.2367  -34.5120  -42.8635 C.2       9 UNK         0.5513 
     57 N          23.2172  -35.1483  -42.2325 N.am      9 UNK        -0.7519 
     58 O          21.5988  -35.1036  -43.7310 O.2       9 UNK        -0.4960 
     59 C59        20.4407  -32.6345  -42.7534 C.3       10 UNK        -0.0876 
     60 S60        20.1825  -30.8294  -42.8113 S.3       10 UNK        -0.2414 
     61 C61        19.1619  -30.5527  -41.3345 C.3       10 UNK         0.0169 
     62 H62        14.9336  -25.2557  -49.1198 H         1 UNK         0.0903 
     63 H63        13.8521  -26.3510  -48.2381 H         1 UNK         0.0903 
     64 H64        13.1881  -25.0777  -49.2456 H         1 UNK         0.0903 
     65 H65        14.6742  -23.9788  -45.5106 H         1 UNK         0.3096 
     66 H66        15.0278  -26.7051  -46.2798 H         1 UNK         0.1121 
     67 H67        16.7776  -26.6700  -44.4467 H         1 UNK         0.0849 
     68 H68        16.5565  -24.9539  -44.2766 H         1 UNK         0.0849 
     69 H69        14.4459  -27.9909  -41.8388 H         1 UNK         0.0865 
     70 H70        15.0454  -28.5253  -43.3887 H         1 UNK         0.0865 
     71 H71        16.6724  -29.9629  -42.2549 H         1 UNK         0.1346 
     72 H72        20.1798  -28.1314  -40.6157 H         1 UNK         0.1412 
     73 H73        16.8134  -25.7108  -41.6850 H         1 UNK         0.1426 
     74 H74        19.6122  -25.5731  -39.6881 H         1 UNK         0.0716 
     75 H75        18.7338  -24.6382  -40.8721 H         1 UNK         0.0716 
     76 H76        19.1871  -24.9486  -43.4161 H         1 UNK         0.0695 
     77 H77        20.7611  -24.4362  -43.9543 H         1 UNK         0.0695 
     78 H78        19.8169  -27.3402  -43.7342 H         1 UNK         0.0983 
     79 H79        19.4774  -25.5178  -45.8523 H         1 UNK         0.3095 
     80 H80        19.1628  -26.1967  -48.1353 H         1 UNK         0.0454 
     81 H81        18.4054  -29.1624  -48.3926 H         1 UNK         0.0851 
     82 H82        18.2344  -27.9381  -49.6484 H         1 UNK         0.0851 
     83 H83        19.8316  -28.4019  -49.0841 H         1 UNK         0.0851 
     84 H84        16.8812  -27.7585  -46.9999 H         1 UNK         0.2976 
     85 H85        21.4699  -28.4976  -43.0015 H         1 UNK         0.3116 
     86 H86        24.2685  -27.7798  -43.5029 H         1 UNK         0.0646 
     87 H87        24.8105  -30.1455  -44.1889 H         1 UNK         0.0847 
     88 H88        23.8190  -29.3259  -45.3848 H         1 UNK         0.0847 
     89 H89        23.0891  -30.4991  -44.2968 H         1 UNK         0.0847 
     90 H90        22.9485  -27.2147  -41.3035 H         1 UNK         0.3040 
     91 H91        22.5076  -29.1520  -39.3488 H         1 UNK         0.1015 
     92 H92        21.6372  -26.8589  -39.1626 H         1 UNK         0.0786 
     93 H93        23.2662  -26.1964  -39.0429 H         1 UNK         0.0786 
     94 H94        22.6179  -27.2005  -37.7530 H         1 UNK         0.0786 
     95 H95        25.5760  -27.7062  -40.2667 H         1 UNK         0.3172 
     96 H96        27.1534  -28.4524  -38.0205 H         1 UNK         0.0595 
     97 H97        27.9127  -26.8151  -39.7272 H         1 UNK         0.0839 
     98 H98        27.9491  -28.0769  -40.9608 H         1 UNK         0.0839 
     99 H99        29.0636  -28.1337  -39.6030 H         1 UNK         0.0839 
    100 H100       25.8880  -30.3738  -40.6713 H         1 UNK         0.2998 
    101 H101       27.4137  -32.7903  -39.7726 H         1 UNK         0.0822 
    102 H102       27.7815  -32.1367  -42.1766 H         1 UNK         0.0787 
    103 H103       26.9243  -33.6623  -42.0455 H         1 UNK         0.0787 
    104 H104       26.0413  -32.1974  -42.4562 H         1 UNK         0.0787 
    105 H105       24.6767  -31.2629  -39.0178 H         1 UNK         0.3055 
    106 H106       22.5652  -31.6383  -38.4831 H         1 UNK         0.1106 
    107 H107       23.4250  -34.5411  -38.0029 H         1 UNK         0.0828 
    108 H108       23.6471  -33.2169  -36.8598 H         1 UNK         0.0828 
    109 H109       22.0301  -33.7369  -37.2991 H         1 UNK         0.0828 
    110 H110       23.2091  -31.8603  -41.3095 H         1 UNK         0.2931 
    111 H111       22.5091  -32.4742  -43.2841 H         1 UNK         0.0412 
    112 H112       23.4058  -36.1098  -42.4670 H         1 UNK         0.3472 
    113 H113       23.7707  -34.6905  -41.5147 H         1 UNK         0.3472 
    114 H114       19.8100  -33.0916  -41.9901 H         1 UNK         0.0970 
    115 H115       20.0796  -33.0243  -43.7065 H         1 UNK         0.0970 
    116 H116       18.4064  -31.3357  -41.2531 H         1 UNK         0.0612 
    117 H117       19.7861  -30.6241  -40.4424 H         1 UNK         0.0612 
@<TRIPOS>BOND
     1    1    2 1    
     2    1   62 1    
     3    1   63 1    
     4    1   64 1    
     5    2    3 2    
     6    2    4 am   BACKBONE|DICT|INTERRES
     7    4    5 1    
     8    4   65 1    
     9    5    6 1    
    10    5   25 1    
    11    5   66 1    
    12    6    7 1    
    13    6   67 1    
    14    6   68 1    
    15    7    8 1    
    16    8    9 1    
    17    8   69 1    
    18    8   70 1    
    19    9   10 ar   
    20    9   14 ar   
    21   10   11 ar   
    22   10   71 1    
    23   11   12 ar   
    24   11   61 1    
    25   12   13 ar   
    26   12   72 1    
    27   13   14 ar   
    28   13   15 1    
    29   14   73 1    
    30   15   16 1    
    31   15   74 1    
    32   15   75 1    
    33   16   17 1    
    34   17   18 1    
    35   17   76 1    
    36   17   77 1    
    37   18   19 1    
    38   18   27 1    
    39   18   78 1    
    40   19   20 am   BACKBONE|DICT|INTERRES
    41   19   79 1    
    42   20   21 2    
    43   20   22 1    
    44   22   23 1    
    45   22   24 1    
    46   22   80 1    
    47   23   81 1    
    48   23   82 1    
    49   23   83 1    
    50   24   25 am   BACKBONE|DICT|INTERRES
    51   24   84 1    
    52   25   26 2    
    53   27   28 2    
    54   27   29 am   BACKBONE|DICT|INTERRES
    55   29   30 1    
    56   29   85 1    
    57   30   31 1    
    58   30   32 1    
    59   30   86 1    
    60   31   87 1    
    61   31   88 1    
    62   31   89 1    
    63   32   33 2    
    64   32   34 am   BACKBONE|DICT|INTERRES
    65   34   35 1    
    66   34   90 1    
    67   35   36 1    
    68   35   37 1    
    69   35   91 1    
    70   36   92 1    
    71   36   93 1    
    72   36   94 1    
    73   37   38 2    
    74   37   39 am   BACKBONE|DICT|INTERRES
    75   39   40 1    
    76   39   95 1    
    77   40   41 1    
    78   40   42 1    
    79   40   96 1    
    80   41   97 1    
    81   41   98 1    
    82   41   99 1    
    83   42   43 2    
    84   42   44 am   BACKBONE|DICT|INTERRES
    85   44   45 1    
    86   44  100 1    
    87   45   46 1    
    88   45   47 1    
    89   45  101 1    
    90   46  102 1    
    91   46  103 1    
    92   46  104 1    
    93   47   48 2    
    94   47   49 am   BACKBONE|DICT|INTERRES
    95   49   50 1    
    96   49  105 1    
    97   50   51 1    
    98   50   52 1    
    99   50  106 1    
   100   51  107 1    
   101   51  108 1    
   102   51  109 1    
   103   52   53 2    
   104   52   54 am   BACKBONE|DICT|INTERRES
   105   54   55 1    
   106   54  110 1    
   107   55   56 1    
   108   55   59 1    
   109   55  111 1    
   110   56   57 am   BACKBONE|DICT|INTERRES
   111   56   58 2    
   112   57  112 1    
   113   57  113 1    
   114   59   60 1    
   115   59  114 1    
   116   59  115 1    
   117   60   61 1    
   118   61  116 1    
   119   61  117 1    
@<TRIPOS>SUBSTRUCTURE
     1 UNK         1 GROUP             0       ****    0 ROOT    
