@<TRIPOS>MOLECULE
3R8
117   119    1
SMALL
USER_CHARGES


@<TRIPOS>ATOM
      1 CA         20.6411  -29.4938  -49.4988 C.3       0 UNK        -0.2013 
      2 C          20.1058  -29.1941  -48.1069 C.2       0 UNK         0.4866 
      3 O          20.8545  -29.2798  -47.1353 O.2       0 UNK        -0.5176 
      4 N          18.8149  -28.8533  -48.0061 N.am      1 UNK        -0.4884 
      5 CA         18.1154  -28.4974  -46.7661 C.3       1 UNK         0.0853 
      6 C6         16.5933  -28.3557  -47.0097 C.3       10 UNK        -0.0849 
      7 S7         15.8314  -29.9954  -47.2585 S.3       10 UNK        -0.2776 
      8 C8         14.8421  -30.2047  -45.7397 C.3       10 UNK         0.0316 
      9 C9         15.6370  -29.9318  -44.4677 C.ar      10 UNK        -0.0863 
     10 C10        16.6460  -30.8077  -44.0570 C.ar      10 UNK        -0.1009 
     11 C11        17.3659  -30.5554  -42.8858 C.ar      10 UNK        -0.0712 
     12 C12        17.0670  -29.4215  -42.1248 C.ar      10 UNK        -0.0894 
     13 C13        16.0527  -28.5370  -42.5160 C.ar      10 UNK        -0.0745 
     14 C14        15.3483  -28.8032  -43.6935 C.ar      10 UNK        -0.0972 
     15 C15        15.6785  -27.2895  -41.7097 C.3       10 UNK         0.0209 
     16 S16        16.1712  -27.3303  -39.9507 S.3       10 UNK        -0.2568 
     17 C17        17.4408  -26.0248  -39.8526 C.3       10 UNK        -0.0983 
     18 CA         18.8091  -26.4664  -40.4349 C.3       3 UNK         0.0876 
     19 N          18.8878  -26.2204  -41.8779 N.am      3 UNK        -0.4424 
     20 C          19.8679  -26.6674  -42.6698 C.2       2 UNK         0.4918 
     21 O          20.7744  -27.4073  -42.2859 O.2       2 UNK        -0.4875 
     22 CA         19.8037  -26.2399  -44.1394 C.3       2 UNK         0.0481 
     23 CB         21.2077  -25.9461  -44.7076 C.3       2 UNK        -0.1831 
     24 N          19.1558  -27.3100  -44.8898 N.am      2 UNK        -0.4498 
     25 C          18.7013  -27.2143  -46.1454 C.2       1 UNK         0.5027 
     26 O          18.7247  -26.1771  -46.8128 O.2       1 UNK        -0.4969 
     27 C          19.9777  -25.7726  -39.7045 C.2       3 UNK         0.5005 
     28 O          20.3170  -24.6337  -40.0346 O.2       3 UNK        -0.5279 
     29 N          20.5606  -26.4859  -38.7295 N.am      4 UNK        -0.4463 
     30 CA         21.6955  -26.1008  -37.8775 C.3       4 UNK         0.0283 
     31 CB         21.3806  -24.8302  -37.0598 C.3       4 UNK        -0.1875 
     32 C          23.0547  -25.9942  -38.5999 C.2       4 UNK         0.4949 
     33 O          24.0460  -25.6576  -37.9504 O.2       4 UNK        -0.5039 
     34 N          23.1227  -26.3253  -39.8976 N.am      5 UNK        -0.4663 
     35 CA         24.3452  -26.3010  -40.7088 C.3       5 UNK         0.0242 
     36 CB         23.9630  -26.0971  -42.1858 C.3       5 UNK        -0.1982 
     37 C          25.1984  -27.5648  -40.4900 C.2       5 UNK         0.5017 
     38 O          25.4531  -28.3093  -41.4373 O.2       5 UNK        -0.5012 
     39 N          25.5815  -27.8133  -39.2284 N.am      6 UNK        -0.4439 
     40 CA         26.4041  -28.9339  -38.7421 C.3       6 UNK         0.0297 
     41 CB         27.8631  -28.7609  -39.2148 C.3       6 UNK        -0.2006 
     42 C          25.8467  -30.3353  -39.0823 C.2       6 UNK         0.4892 
     43 O          26.6168  -31.2940  -39.1575 O.2       6 UNK        -0.5089 
     44 N          24.5244  -30.4191  -39.3003 N.am      7 UNK        -0.4243 
     45 CA         23.7644  -31.5824  -39.7761 C.3       7 UNK         0.0196 
     46 CB         23.7797  -32.7193  -38.7319 C.3       7 UNK        -0.2007 
     47 C          24.1724  -32.0653  -41.1856 C.2       7 UNK         0.5020 
     48 O          23.9099  -33.2196  -41.5286 O.2       7 UNK        -0.5147 
     49 N          24.7689  -31.1809  -42.0032 N.am      8 UNK        -0.4734 
     50 CA         25.2122  -31.4743  -43.3743 C.3       8 UNK         0.0238 
     51 CB         26.0547  -30.3014  -43.9002 C.3       8 UNK        -0.1912 
     52 C          24.0642  -31.7917  -44.3506 C.2       8 UNK         0.5038 
     53 O          24.3072  -32.4155  -45.3844 O.2       8 UNK        -0.5046 
     54 N          22.8431  -31.3762  -43.9954 N.am      9 UNK        -0.4200 
     55 CA         21.5885  -31.7278  -44.6696 C.3       9 UNK         0.0839 
     56 C          21.1651  -33.2214  -44.5359 C.2       9 UNK         0.5513 
     57 N          21.7697  -34.0153  -43.6580 N.am      9 UNK        -0.7519 
     58 O          20.2721  -33.6681  -45.2509 O.2       9 UNK        -0.4960 
     59 C59        20.4509  -30.7616  -44.2529 C.3       10 UNK        -0.0876 
     60 S60        20.1015  -30.7692  -42.4591 S.3       10 UNK        -0.2414 
     61 C61        18.4453  -31.5208  -42.4151 C.3       10 UNK         0.0169 
     62 H62        21.0307  -30.5107  -49.5390 H         1 UNK         0.0903 
     63 H63        19.8707  -29.3952  -50.2634 H         1 UNK         0.0903 
     64 H64        21.4520  -28.8083  -49.7435 H         1 UNK         0.0903 
     65 H65        18.2545  -28.7994  -48.8445 H         1 UNK         0.3096 
     66 H66        18.2753  -29.3120  -46.0574 H         1 UNK         0.1121 
     67 H67        16.3976  -27.7371  -47.8877 H         1 UNK         0.0849 
     68 H68        16.1001  -27.8448  -46.1820 H         1 UNK         0.0849 
     69 H69        13.9700  -29.5513  -45.7972 H         1 UNK         0.0865 
     70 H70        14.4530  -31.2234  -45.7088 H         1 UNK         0.0865 
     71 H71        16.8665  -31.6852  -44.6500 H         1 UNK         0.1346 
     72 H72        17.6316  -29.2455  -41.2218 H         1 UNK         0.1412 
     73 H73        14.5641  -28.1270  -44.0071 H         1 UNK         0.1426 
     74 H74        14.5951  -27.1627  -41.7359 H         1 UNK         0.0716 
     75 H75        16.0947  -26.4102  -42.2007 H         1 UNK         0.0716 
     76 H76        17.5274  -25.7835  -38.7908 H         1 UNK         0.0695 
     77 H77        17.0770  -25.1120  -40.3278 H         1 UNK         0.0695 
     78 H78        18.9284  -27.5411  -40.2829 H         1 UNK         0.0983 
     79 H79        18.1983  -25.5935  -42.2632 H         1 UNK         0.3095 
     80 H80        19.1987  -25.3341  -44.2161 H         1 UNK         0.0454 
     81 H81        21.1590  -25.5696  -45.7289 H         1 UNK         0.0851 
     82 H82        21.8361  -26.8378  -44.7124 H         1 UNK         0.0851 
     83 H83        21.7158  -25.1875  -44.1123 H         1 UNK         0.0851 
     84 H84        19.0750  -28.1879  -44.3939 H         1 UNK         0.2976 
     85 H85        20.2016  -27.4148  -38.5521 H         1 UNK         0.3116 
     86 H86        21.8114  -26.9188  -37.1649 H         1 UNK         0.0646 
     87 H87        21.3254  -23.9424  -37.6901 H         1 UNK         0.0847 
     88 H88        20.4346  -24.9237  -36.5266 H         1 UNK         0.0847 
     89 H89        22.1532  -24.6446  -36.3126 H         1 UNK         0.0847 
     90 H90        22.2771  -26.6198  -40.3681 H         1 UNK         0.3040 
     91 H91        24.9556  -25.4465  -40.4076 H         1 UNK         0.1015 
     92 H92        24.8523  -26.0057  -42.8107 H         1 UNK         0.0786 
     93 H93        23.3780  -25.1874  -42.3196 H         1 UNK         0.0786 
     94 H94        23.3805  -26.9343  -42.5716 H         1 UNK         0.0786 
     95 H95        25.2762  -27.1449  -38.5258 H         1 UNK         0.3172 
     96 H96        26.3976  -28.8646  -37.6535 H         1 UNK         0.0595 
     97 H97        27.9522  -28.8775  -40.2956 H         1 UNK         0.0839 
     98 H98        28.5182  -29.5006  -38.7528 H         1 UNK         0.0839 
     99 H99        28.2531  -27.7781  -38.9502 H         1 UNK         0.0839 
    100 H100       23.9958  -29.5628  -39.2136 H         1 UNK         0.2998 
    101 H101       22.7315  -31.2442  -39.8727 H         1 UNK         0.0822 
    102 H102       23.0883  -33.5158  -39.0100 H         1 UNK         0.0787 
    103 H103       24.7684  -33.1687  -38.6361 H         1 UNK         0.0787 
    104 H104       23.4770  -32.3597  -37.7485 H         1 UNK         0.0787 
    105 H105       24.9578  -30.2416  -41.6630 H         1 UNK         0.3055 
    106 H106       25.8485  -32.3611  -43.3321 H         1 UNK         0.1106 
    107 H107       26.9069  -30.1010  -43.2503 H         1 UNK         0.0828 
    108 H108       26.4487  -30.5166  -44.8944 H         1 UNK         0.0828 
    109 H109       25.4671  -29.3852  -43.9734 H         1 UNK         0.0828 
    110 H110       22.7450  -30.8777  -43.1237 H         1 UNK         0.2931 
    111 H111       21.7586  -31.5700  -45.7363 H         1 UNK         0.0412 
    112 H112       21.4843  -34.9791  -43.5891 H         1 UNK         0.3472 
    113 H113       22.4974  -33.6617  -43.0483 H         1 UNK         0.3472 
    114 H114       19.5440  -30.9775  -44.8194 H         1 UNK         0.0970 
    115 H115       20.7316  -29.7434  -44.5245 H         1 UNK         0.0970 
    116 H116       18.4452  -32.4355  -43.0101 H         1 UNK         0.0612 
    117 H117       18.2268  -31.8225  -41.3899 H         1 UNK         0.0612 
@<TRIPOS>BOND
     1    1    2 1    
     2    1   62 1    
     3    1   63 1    
     4    1   64 1    
     5    2    3 2    
     6    2    4 am   BACKBONE|DICT|INTERRES
     7    4    5 1    
     8    4   65 1    
     9    5    6 1    
    10    5   25 1    
    11    5   66 1    
    12    6    7 1    
    13    6   67 1    
    14    6   68 1    
    15    7    8 1    
    16    8    9 1    
    17    8   69 1    
    18    8   70 1    
    19    9   10 ar   
    20    9   14 ar   
    21   10   11 ar   
    22   10   71 1    
    23   11   12 ar   
    24   11   61 1    
    25   12   13 ar   
    26   12   72 1    
    27   13   14 ar   
    28   13   15 1    
    29   14   73 1    
    30   15   16 1    
    31   15   74 1    
    32   15   75 1    
    33   16   17 1    
    34   17   18 1    
    35   17   76 1    
    36   17   77 1    
    37   18   19 1    
    38   18   27 1    
    39   18   78 1    
    40   19   20 am   BACKBONE|DICT|INTERRES
    41   19   79 1    
    42   20   21 2    
    43   20   22 1    
    44   22   23 1    
    45   22   24 1    
    46   22   80 1    
    47   23   81 1    
    48   23   82 1    
    49   23   83 1    
    50   24   25 am   BACKBONE|DICT|INTERRES
    51   24   84 1    
    52   25   26 2    
    53   27   28 2    
    54   27   29 am   BACKBONE|DICT|INTERRES
    55   29   30 1    
    56   29   85 1    
    57   30   31 1    
    58   30   32 1    
    59   30   86 1    
    60   31   87 1    
    61   31   88 1    
    62   31   89 1    
    63   32   33 2    
    64   32   34 am   BACKBONE|DICT|INTERRES
    65   34   35 1    
    66   34   90 1    
    67   35   36 1    
    68   35   37 1    
    69   35   91 1    
    70   36   92 1    
    71   36   93 1    
    72   36   94 1    
    73   37   38 2    
    74   37   39 am   BACKBONE|DICT|INTERRES
    75   39   40 1    
    76   39   95 1    
    77   40   41 1    
    78   40   42 1    
    79   40   96 1    
    80   41   97 1    
    81   41   98 1    
    82   41   99 1    
    83   42   43 2    
    84   42   44 am   BACKBONE|DICT|INTERRES
    85   44   45 1    
    86   44  100 1    
    87   45   46 1    
    88   45   47 1    
    89   45  101 1    
    90   46  102 1    
    91   46  103 1    
    92   46  104 1    
    93   47   48 2    
    94   47   49 am   BACKBONE|DICT|INTERRES
    95   49   50 1    
    96   49  105 1    
    97   50   51 1    
    98   50   52 1    
    99   50  106 1    
   100   51  107 1    
   101   51  108 1    
   102   51  109 1    
   103   52   53 2    
   104   52   54 am   BACKBONE|DICT|INTERRES
   105   54   55 1    
   106   54  110 1    
   107   55   56 1    
   108   55   59 1    
   109   55  111 1    
   110   56   57 am   BACKBONE|DICT|INTERRES
   111   56   58 2    
   112   57  112 1    
   113   57  113 1    
   114   59   60 1    
   115   59  114 1    
   116   59  115 1    
   117   60   61 1    
   118   61  116 1    
   119   61  117 1    
@<TRIPOS>SUBSTRUCTURE
     1 UNK         1 GROUP             0       ****    0 ROOT    
