@<TRIPOS>MOLECULE
3R8
117   119    1
SMALL
USER_CHARGES


@<TRIPOS>ATOM
      1 CA         13.9493  -22.9666  -47.7875 C.3       0 UNK        -0.2013 
      2 C          14.4070  -24.3815  -48.1077 C.2       0 UNK         0.4866 
      3 O          14.6111  -24.7104  -49.2761 O.2       0 UNK        -0.5176 
      4 N          14.5780  -25.2210  -47.0783 N.am      1 UNK        -0.4884 
      5 CA         15.0034  -26.6235  -47.1950 C.3       1 UNK         0.0853 
      6 C6         14.4189  -27.4859  -46.0446 C.3       10 UNK        -0.0849 
      7 S7         14.9873  -26.9939  -44.3778 S.3       10 UNK        -0.2776 
      8 C8         16.0657  -28.4108  -43.9586 C.3       10 UNK         0.0316 
      9 C9         16.9671  -28.2316  -42.7351 C.ar      10 UNK        -0.0863 
     10 C10        17.7653  -29.3114  -42.3427 C.ar      10 UNK        -0.1009 
     11 C11        18.6564  -29.1982  -41.2713 C.ar      10 UNK        -0.0712 
     12 C12        18.7560  -27.9847  -40.5867 C.ar      10 UNK        -0.0894 
     13 C13        17.9644  -26.8958  -40.9631 C.ar      10 UNK        -0.0745 
     14 C14        17.0598  -27.0298  -42.0203 C.ar      10 UNK        -0.0972 
     15 C15        18.1181  -25.5562  -40.2611 C.3       10 UNK         0.0209 
     16 S16        19.6058  -24.6756  -40.8341 S.3       10 UNK        -0.2568 
     17 C17        19.2368  -24.3695  -42.5999 C.3       10 UNK        -0.0983 
     18 CA         19.7427  -25.4690  -43.5749 C.3       3 UNK         0.0876 
     19 N          19.2483  -25.2212  -44.9312 N.am      3 UNK        -0.4424 
     20 C          19.3262  -26.0809  -45.9553 C.2       2 UNK         0.4918 
     21 O          19.7886  -27.2199  -45.8711 O.2       2 UNK        -0.4875 
     22 CA         18.7505  -25.5681  -47.2865 C.3       2 UNK         0.0481 
     23 CB         19.3973  -26.2315  -48.5216 C.3       2 UNK        -0.1831 
     24 N          17.2871  -25.6807  -47.3003 N.am      2 UNK        -0.4498 
     25 C          16.5358  -26.7947  -47.3372 C.2       1 UNK         0.5027 
     26 O          16.9924  -27.9309  -47.4697 O.2       1 UNK        -0.4969 
     27 C          21.2768  -25.6344  -43.5430 C.2       3 UNK         0.5005 
     28 O          21.9917  -24.9549  -44.2855 O.2       3 UNK        -0.5279 
     29 N          21.7407  -26.5231  -42.6613 N.am      4 UNK        -0.4463 
     30 CA         23.1364  -26.8277  -42.3792 C.3       4 UNK         0.0283 
     31 CB         23.6588  -27.8588  -43.3987 C.3       4 UNK        -0.1875 
     32 C          23.2210  -27.3511  -40.9377 C.2       4 UNK         0.4949 
     33 O          22.1932  -27.4772  -40.2654 O.2       4 UNK        -0.5039 
     34 N          24.4445  -27.6472  -40.4833 N.am      5 UNK        -0.4663 
     35 CA         24.7110  -28.2841  -39.1904 C.3       5 UNK         0.0242 
     36 CB         26.2284  -28.2822  -38.9408 C.3       5 UNK        -0.1982 
     37 C          24.1709  -29.7237  -39.1420 C.2       5 UNK         0.5017 
     38 O          24.1082  -30.3855  -40.1796 O.2       5 UNK        -0.5012 
     39 N          23.8596  -30.2138  -37.9347 N.am      6 UNK        -0.4439 
     40 CA         23.3296  -31.5629  -37.6903 C.3       6 UNK         0.0297 
     41 CB         23.0110  -31.7218  -36.1950 C.3       6 UNK        -0.2006 
     42 C          24.2436  -32.7085  -38.1699 C.2       6 UNK         0.4892 
     43 O          23.7365  -33.7750  -38.5150 O.2       6 UNK        -0.5089 
     44 N          25.5609  -32.4622  -38.1996 N.am      7 UNK        -0.4243 
     45 CA         26.5682  -33.3766  -38.7414 C.3       7 UNK         0.0196 
     46 CB         27.9353  -33.0308  -38.1282 C.3       7 UNK        -0.2007 
     47 C          26.6512  -33.3487  -40.2799 C.2       7 UNK         0.5020 
     48 O          27.1319  -34.3190  -40.8661 O.2       7 UNK        -0.5147 
     49 N          26.2129  -32.2482  -40.9074 N.am      8 UNK        -0.4734 
     50 CA         26.1868  -32.0769  -42.3623 C.3       8 UNK         0.0238 
     51 CB         26.4134  -30.5968  -42.7108 C.3       8 UNK        -0.1912 
     52 C          24.8677  -32.5860  -42.9626 C.2       8 UNK         0.5038 
     53 O          24.8908  -33.1834  -44.0397 O.2       8 UNK        -0.5046 
     54 N          23.7539  -32.3564  -42.2537 N.am      9 UNK        -0.4200 
     55 CA         22.4256  -32.9103  -42.5520 C.3       9 UNK         0.0839 
     56 C          22.4028  -34.4654  -42.5347 C.2       9 UNK         0.5513 
     57 N          21.5727  -35.0779  -43.3682 N.am      9 UNK        -0.7519 
     58 O          23.0904  -35.1168  -41.7517 O.2       9 UNK        -0.4960 
     59 C59        21.3529  -32.3444  -41.5861 C.3       10 UNK        -0.0876 
     60 S60        20.9627  -30.5941  -41.9162 S.3       10 UNK        -0.2414 
     61 C61        19.4983  -30.3946  -40.8545 C.3       10 UNK         0.0169 
     62 H62        14.6820  -22.2442  -48.1464 H         1 UNK         0.0903 
     63 H63        12.9987  -22.7603  -48.2789 H         1 UNK         0.0903 
     64 H64        13.8172  -22.8124  -46.7166 H         1 UNK         0.0903 
     65 H65        14.4003  -24.9039  -46.1344 H         1 UNK         0.3096 
     66 H66        14.5856  -27.0206  -48.1234 H         1 UNK         0.1121 
     67 H67        13.3302  -27.4137  -46.0577 H         1 UNK         0.0849 
     68 H68        14.6338  -28.5428  -46.2142 H         1 UNK         0.0849 
     69 H69        15.4371  -29.2906  -43.8122 H         1 UNK         0.0865 
     70 H70        16.7080  -28.6259  -44.8140 H         1 UNK         0.0865 
     71 H71        17.7050  -30.2466  -42.8834 H         1 UNK         0.1346 
     72 H72        19.4616  -27.8811  -39.7729 H         1 UNK         0.1412 
     73 H73        16.4669  -26.1728  -42.3046 H         1 UNK         0.1426 
     74 H74        17.2394  -24.9284  -40.4176 H         1 UNK         0.0716 
     75 H75        18.1931  -25.7154  -39.1844 H         1 UNK         0.0716 
     76 H76        19.6711  -23.4045  -42.8678 H         1 UNK         0.0695 
     77 H77        18.1578  -24.2461  -42.7050 H         1 UNK         0.0695 
     78 H78        19.3209  -26.4283  -43.2770 H         1 UNK         0.0983 
     79 H79        18.8704  -24.3014  -45.1017 H         1 UNK         0.3095 
     80 H80        18.9740  -24.5018  -47.3484 H         1 UNK         0.0454 
     81 H81        18.9766  -25.8405  -49.4477 H         1 UNK         0.0851 
     82 H82        19.2713  -27.3142  -48.5272 H         1 UNK         0.0851 
     83 H83        20.4699  -26.0364  -48.5439 H         1 UNK         0.0851 
     84 H84        16.7843  -24.8119  -47.1871 H         1 UNK         0.2976 
     85 H85        21.0976  -26.9691  -42.0153 H         1 UNK         0.3116 
     86 H86        23.7246  -25.9101  -42.4445 H         1 UNK         0.0646 
     87 H87        23.4754  -27.5368  -44.4238 H         1 UNK         0.0847 
     88 H88        24.7346  -27.9994  -43.2996 H         1 UNK         0.0847 
     89 H89        23.1847  -28.8325  -43.2653 H         1 UNK         0.0847 
     90 H90        25.2350  -27.5262  -41.0988 H         1 UNK         0.3040 
     91 H91        24.2171  -27.6974  -38.4125 H         1 UNK         0.1015 
     92 H92        26.7633  -28.8612  -39.6953 H         1 UNK         0.0786 
     93 H93        26.4689  -28.7132  -37.9681 H         1 UNK         0.0786 
     94 H94        26.6304  -27.2687  -38.9494 H         1 UNK         0.0786 
     95 H95        23.9584  -29.6149  -37.1269 H         1 UNK         0.3172 
     96 H96        22.3933  -31.6453  -38.2462 H         1 UNK         0.0595 
     97 H97        23.9035  -31.6142  -35.5773 H         1 UNK         0.0839 
     98 H98        22.5899  -32.7070  -35.9886 H         1 UNK         0.0839 
     99 H99        22.2794  -30.9850  -35.8628 H         1 UNK         0.0839 
    100 H100       25.8859  -31.5631  -37.8762 H         1 UNK         0.2998 
    101 H101       26.3101  -34.3961  -38.4458 H         1 UNK         0.0822 
    102 H102       27.9147  -33.1106  -37.0411 H         1 UNK         0.0787 
    103 H103       28.7074  -33.7132  -38.4867 H         1 UNK         0.0787 
    104 H104       28.2502  -32.0187  -38.3862 H         1 UNK         0.0787 
    105 H105       25.7498  -31.5273  -40.3663 H         1 UNK         0.3055 
    106 H106       26.9982  -32.6548  -42.8113 H         1 UNK         0.1106 
    107 H107       27.3793  -30.2478  -42.3456 H         1 UNK         0.0828 
    108 H108       26.3996  -30.4435  -43.7907 H         1 UNK         0.0828 
    109 H109       25.6428  -29.9583  -42.2809 H         1 UNK         0.0828 
    110 H110       23.8249  -31.7934  -41.4114 H         1 UNK         0.2931 
    111 H111       22.1750  -32.5938  -43.5667 H         1 UNK         0.0412 
    112 H112       20.9968  -34.5543  -44.0096 H         1 UNK         0.3472 
    113 H113       21.5290  -36.0853  -43.3646 H         1 UNK         0.3472 
    114 H114       20.4226  -32.9083  -41.6813 H         1 UNK         0.0970 
    115 H115       21.6709  -32.4547  -40.5476 H         1 UNK         0.0970 
    116 H116       18.8812  -31.2931  -40.8994 H         1 UNK         0.0612 
    117 H117       19.8235  -30.2954  -39.8176 H         1 UNK         0.0612 
@<TRIPOS>BOND
     1    1    2 1    
     2    1   62 1    
     3    1   63 1    
     4    1   64 1    
     5    2    3 2    
     6    2    4 am   BACKBONE|DICT|INTERRES
     7    4    5 1    
     8    4   65 1    
     9    5    6 1    
    10    5   25 1    
    11    5   66 1    
    12    6    7 1    
    13    6   67 1    
    14    6   68 1    
    15    7    8 1    
    16    8    9 1    
    17    8   69 1    
    18    8   70 1    
    19    9   10 ar   
    20    9   14 ar   
    21   10   11 ar   
    22   10   71 1    
    23   11   12 ar   
    24   11   61 1    
    25   12   13 ar   
    26   12   72 1    
    27   13   14 ar   
    28   13   15 1    
    29   14   73 1    
    30   15   16 1    
    31   15   74 1    
    32   15   75 1    
    33   16   17 1    
    34   17   18 1    
    35   17   76 1    
    36   17   77 1    
    37   18   19 1    
    38   18   27 1    
    39   18   78 1    
    40   19   20 am   BACKBONE|DICT|INTERRES
    41   19   79 1    
    42   20   21 2    
    43   20   22 1    
    44   22   23 1    
    45   22   24 1    
    46   22   80 1    
    47   23   81 1    
    48   23   82 1    
    49   23   83 1    
    50   24   25 am   BACKBONE|DICT|INTERRES
    51   24   84 1    
    52   25   26 2    
    53   27   28 2    
    54   27   29 am   BACKBONE|DICT|INTERRES
    55   29   30 1    
    56   29   85 1    
    57   30   31 1    
    58   30   32 1    
    59   30   86 1    
    60   31   87 1    
    61   31   88 1    
    62   31   89 1    
    63   32   33 2    
    64   32   34 am   BACKBONE|DICT|INTERRES
    65   34   35 1    
    66   34   90 1    
    67   35   36 1    
    68   35   37 1    
    69   35   91 1    
    70   36   92 1    
    71   36   93 1    
    72   36   94 1    
    73   37   38 2    
    74   37   39 am   BACKBONE|DICT|INTERRES
    75   39   40 1    
    76   39   95 1    
    77   40   41 1    
    78   40   42 1    
    79   40   96 1    
    80   41   97 1    
    81   41   98 1    
    82   41   99 1    
    83   42   43 2    
    84   42   44 am   BACKBONE|DICT|INTERRES
    85   44   45 1    
    86   44  100 1    
    87   45   46 1    
    88   45   47 1    
    89   45  101 1    
    90   46  102 1    
    91   46  103 1    
    92   46  104 1    
    93   47   48 2    
    94   47   49 am   BACKBONE|DICT|INTERRES
    95   49   50 1    
    96   49  105 1    
    97   50   51 1    
    98   50   52 1    
    99   50  106 1    
   100   51  107 1    
   101   51  108 1    
   102   51  109 1    
   103   52   53 2    
   104   52   54 am   BACKBONE|DICT|INTERRES
   105   54   55 1    
   106   54  110 1    
   107   55   56 1    
   108   55   59 1    
   109   55  111 1    
   110   56   57 am   BACKBONE|DICT|INTERRES
   111   56   58 2    
   112   57  112 1    
   113   57  113 1    
   114   59   60 1    
   115   59  114 1    
   116   59  115 1    
   117   60   61 1    
   118   61  116 1    
   119   61  117 1    
@<TRIPOS>SUBSTRUCTURE
     1 UNK         1 GROUP             0       ****    0 ROOT    
