@<TRIPOS>MOLECULE
3R8
117   119    1
SMALL
USER_CHARGES


@<TRIPOS>ATOM
      1 CA         25.2068  -24.1708  -47.2439 C.3       0 UNK        -0.2013 
      2 C          24.1775  -24.6173  -46.2162 C.2       0 UNK         0.4866 
      3 O          23.8450  -23.8522  -45.3104 O.2       0 UNK        -0.5176 
      4 N          23.6759  -25.8524  -46.3436 N.am      1 UNK        -0.4884 
      5 CA         22.6302  -26.4165  -45.4862 C.3       1 UNK         0.0853 
      6 C6         22.5861  -27.9585  -45.6105 C.3       10 UNK        -0.0849 
      7 S7         21.6167  -28.7377  -44.2777 S.3       10 UNK        -0.2776 
      8 C8         20.3319  -29.6023  -45.2419 C.3       10 UNK         0.0316 
      9 C9         19.3730  -30.3533  -44.3297 C.ar      10 UNK        -0.0863 
     10 C10        19.8609  -31.2823  -43.4059 C.ar      10 UNK        -0.1009 
     11 C11        19.0008  -31.9145  -42.5063 C.ar      10 UNK        -0.0712 
     12 C12        17.6340  -31.6273  -42.5448 C.ar      10 UNK        -0.0894 
     13 C13        17.1312  -30.7069  -43.4707 C.ar      10 UNK        -0.0745 
     14 C14        18.0005  -30.0938  -44.3793 C.ar      10 UNK        -0.0972 
     15 C15        15.6606  -30.3206  -43.4387 C.3       10 UNK         0.0209 
     16 S16        15.3321  -29.0991  -42.1232 S.3       10 UNK        -0.2568 
     17 C17        16.1287  -27.5923  -42.7803 C.3       10 UNK        -0.0983 
     18 CA         17.6145  -27.4314  -42.3507 C.3       3 UNK         0.0876 
     19 N          18.4127  -26.6706  -43.3285 N.am      3 UNK        -0.4424 
     20 C          18.2120  -25.4109  -43.7454 C.2       2 UNK         0.4918 
     21 O          17.3427  -24.6754  -43.2767 O.2       2 UNK        -0.4875 
     22 CA         19.1522  -24.8753  -44.8402 C.3       2 UNK         0.0481 
     23 CB         19.2819  -23.3394  -44.8149 C.3       2 UNK        -0.1831 
     24 N          20.4815  -25.4851  -44.7556 N.am      2 UNK        -0.4498 
     25 C          21.2622  -25.7746  -45.8047 C.2       1 UNK         0.5027 
     26 O          20.9390  -25.5813  -46.9797 O.2       1 UNK        -0.4969 
     27 C          17.7781  -26.9610  -40.8894 C.2       3 UNK         0.5005 
     28 O          17.9149  -27.8033  -40.0020 O.2       3 UNK        -0.5279 
     29 N          17.8378  -25.6425  -40.6607 N.am      4 UNK        -0.4463 
     30 CA         18.1574  -25.0275  -39.3684 C.3       4 UNK         0.0283 
     31 CB         17.9239  -23.5106  -39.4504 C.3       4 UNK        -0.1875 
     32 C          19.5947  -25.3317  -38.9062 C.2       4 UNK         0.4949 
     33 O          19.8205  -25.5220  -37.7113 O.2       4 UNK        -0.5039 
     34 N          20.5319  -25.3889  -39.8643 N.am      5 UNK        -0.4663 
     35 CA         21.9275  -25.7747  -39.6369 C.3       5 UNK         0.0242 
     36 CB         22.7904  -25.2764  -40.8092 C.3       5 UNK        -0.1982 
     37 C          22.1012  -27.2929  -39.4577 C.2       5 UNK         0.5017 
     38 O          22.9672  -27.7113  -38.6899 O.2       5 UNK        -0.5012 
     39 N          21.2902  -28.0761  -40.1892 N.am      6 UNK        -0.4439 
     40 CA         21.2541  -29.5467  -40.2371 C.3       6 UNK         0.0297 
     41 CB         20.7205  -30.1107  -38.9035 C.3       6 UNK        -0.2006 
     42 C          22.5869  -30.2038  -40.6647 C.2       6 UNK         0.4892 
     43 O          22.8499  -31.3510  -40.3017 O.2       6 UNK        -0.5089 
     44 N          23.4044  -29.4633  -41.4255 N.am      7 UNK        -0.4243 
     45 CA         24.7865  -29.7989  -41.7729 C.3       7 UNK         0.0196 
     46 CB         25.4411  -28.5741  -42.4334 C.3       7 UNK        -0.2007 
     47 C          24.9490  -31.0386  -42.6670 C.2       7 UNK         0.5020 
     48 O          25.9739  -31.7137  -42.5697 O.2       7 UNK        -0.5147 
     49 N          23.9644  -31.3068  -43.5352 N.am      8 UNK        -0.4734 
     50 CA         24.0148  -32.4149  -44.4956 C.3       8 UNK         0.0238 
     51 CB         23.0321  -32.1455  -45.6454 C.3       8 UNK        -0.1912 
     52 C          23.7424  -33.7972  -43.8754 C.2       8 UNK         0.5038 
     53 O          24.1430  -34.7985  -44.4714 O.2       8 UNK        -0.5046 
     54 N          23.0557  -33.8416  -42.7263 N.am      9 UNK        -0.4200 
     55 CA         22.7117  -35.0874  -42.0242 C.3       9 UNK         0.0839 
     56 C          23.9026  -35.6286  -41.1902 C.2       9 UNK         0.5513 
     57 N          24.0017  -36.9420  -41.0364 N.am      9 UNK        -0.7519 
     58 O          24.7107  -34.8763  -40.6502 O.2       9 UNK        -0.4960 
     59 C59        21.4399  -34.9362  -41.1504 C.3       10 UNK        -0.0876 
     60 S60        19.9750  -34.4791  -42.1444 S.3       10 UNK        -0.2414 
     61 C61        19.5728  -32.8481  -41.4533 C.3       10 UNK         0.0169 
     62 H62        25.4174  -24.9499  -47.9763 H         1 UNK         0.0903 
     63 H63        24.8462  -23.2921  -47.7779 H         1 UNK         0.0903 
     64 H64        26.1418  -23.9091  -46.7492 H         1 UNK         0.0903 
     65 H65        23.9585  -26.4232  -47.1278 H         1 UNK         0.3096 
     66 H66        22.8970  -26.1685  -44.4560 H         1 UNK         0.1121 
     67 H67        22.2089  -28.2619  -46.5894 H         1 UNK         0.0849 
     68 H68        23.5968  -28.3647  -45.5450 H         1 UNK         0.0849 
     69 H69        19.7952  -28.8720  -45.8498 H         1 UNK         0.0865 
     70 H70        20.7912  -30.3020  -45.9394 H         1 UNK         0.0865 
     71 H71        20.9201  -31.4879  -43.3566 H         1 UNK         0.1346 
     72 H72        16.9658  -32.0896  -41.8310 H         1 UNK         0.1412 
     73 H73        17.6126  -29.3713  -45.0845 H         1 UNK         0.1426 
     74 H74        15.0542  -31.2090  -43.2561 H         1 UNK         0.0716 
     75 H75        15.3387  -29.9239  -44.4028 H         1 UNK         0.0716 
     76 H76        16.0530  -27.6265  -43.8681 H         1 UNK         0.0695 
     77 H77        15.5409  -26.7241  -42.4766 H         1 UNK         0.0695 
     78 H78        18.0738  -28.4183  -42.3540 H         1 UNK         0.0983 
     79 H79        19.1533  -27.1951  -43.7719 H         1 UNK         0.3095 
     80 H80        18.6870  -25.1599  -45.7861 H         1 UNK         0.0454 
     81 H81        19.7093  -22.9878  -43.8754 H         1 UNK         0.0851 
     82 H82        19.9165  -22.9813  -45.6256 H         1 UNK         0.0851 
     83 H83        18.3103  -22.8582  -44.9341 H         1 UNK         0.0851 
     84 H84        20.8302  -25.6658  -43.8254 H         1 UNK         0.2976 
     85 H85        17.6733  -25.0259  -41.4529 H         1 UNK         0.3116 
     86 H86        17.4744  -25.4396  -38.6226 H         1 UNK         0.0646 
     87 H87        18.1386  -23.0311  -38.4943 H         1 UNK         0.0847 
     88 H88        16.8877  -23.2817  -39.7000 H         1 UNK         0.0847 
     89 H89        18.5612  -23.0412  -40.2008 H         1 UNK         0.0847 
     90 H90        20.2581  -25.1714  -40.8102 H         1 UNK         0.3040 
     91 H91        22.2791  -25.2910  -38.7223 H         1 UNK         0.1015 
     92 H92        22.7309  -24.1927  -40.9126 H         1 UNK         0.0786 
     93 H93        22.4897  -25.7215  -41.7580 H         1 UNK         0.0786 
     94 H94        23.8410  -25.5261  -40.6522 H         1 UNK         0.0786 
     95 H95        20.5962  -27.6108  -40.7536 H         1 UNK         0.3172 
     96 H96        20.5311  -29.7995  -41.0129 H         1 UNK         0.0595 
     97 H97        19.7591  -29.6661  -38.6452 H         1 UNK         0.0839 
     98 H98        21.4104  -29.9203  -38.0809 H         1 UNK         0.0839 
     99 H99        20.5711  -31.1892  -38.9567 H         1 UNK         0.0839 
    100 H100       23.0814  -28.5494  -41.7042 H         1 UNK         0.2998 
    101 H101       25.3144  -30.0057  -40.8394 H         1 UNK         0.0822 
    102 H102       25.4340  -27.7117  -41.7663 H         1 UNK         0.0787 
    103 H103       26.4830  -28.7763  -42.6863 H         1 UNK         0.0787 
    104 H104       24.9312  -28.2910  -43.3549 H         1 UNK         0.0787 
    105 H105       23.1713  -30.6814  -43.5763 H         1 UNK         0.3055 
    106 H106       25.0209  -32.4485  -44.9206 H         1 UNK         0.1106 
    107 H107       23.1614  -32.8792  -46.4422 H         1 UNK         0.0828 
    108 H108       21.9964  -32.2151  -45.3153 H         1 UNK         0.0828 
    109 H109       23.1891  -31.1610  -46.0863 H         1 UNK         0.0828 
    110 H110       22.8365  -32.9788  -42.2500 H         1 UNK         0.2931 
    111 H111       22.4836  -35.8392  -42.7834 H         1 UNK         0.0412 
    112 H112       23.3406  -37.5695  -41.4684 H         1 UNK         0.3472 
    113 H113       24.7594  -37.3157  -40.4857 H         1 UNK         0.3472 
    114 H114       21.2104  -35.8799  -40.6520 H         1 UNK         0.0970 
    115 H115       21.6084  -34.2128  -40.3504 H         1 UNK         0.0970 
    116 H116       20.4707  -32.3904  -41.0422 H         1 UNK         0.0612 
    117 H117       18.8802  -32.9705  -40.6192 H         1 UNK         0.0612 
@<TRIPOS>BOND
     1    1    2 1    
     2    1   62 1    
     3    1   63 1    
     4    1   64 1    
     5    2    3 2    
     6    2    4 am   BACKBONE|DICT|INTERRES
     7    4    5 1    
     8    4   65 1    
     9    5    6 1    
    10    5   25 1    
    11    5   66 1    
    12    6    7 1    
    13    6   67 1    
    14    6   68 1    
    15    7    8 1    
    16    8    9 1    
    17    8   69 1    
    18    8   70 1    
    19    9   10 ar   
    20    9   14 ar   
    21   10   11 ar   
    22   10   71 1    
    23   11   12 ar   
    24   11   61 1    
    25   12   13 ar   
    26   12   72 1    
    27   13   14 ar   
    28   13   15 1    
    29   14   73 1    
    30   15   16 1    
    31   15   74 1    
    32   15   75 1    
    33   16   17 1    
    34   17   18 1    
    35   17   76 1    
    36   17   77 1    
    37   18   19 1    
    38   18   27 1    
    39   18   78 1    
    40   19   20 am   BACKBONE|DICT|INTERRES
    41   19   79 1    
    42   20   21 2    
    43   20   22 1    
    44   22   23 1    
    45   22   24 1    
    46   22   80 1    
    47   23   81 1    
    48   23   82 1    
    49   23   83 1    
    50   24   25 am   BACKBONE|DICT|INTERRES
    51   24   84 1    
    52   25   26 2    
    53   27   28 2    
    54   27   29 am   BACKBONE|DICT|INTERRES
    55   29   30 1    
    56   29   85 1    
    57   30   31 1    
    58   30   32 1    
    59   30   86 1    
    60   31   87 1    
    61   31   88 1    
    62   31   89 1    
    63   32   33 2    
    64   32   34 am   BACKBONE|DICT|INTERRES
    65   34   35 1    
    66   34   90 1    
    67   35   36 1    
    68   35   37 1    
    69   35   91 1    
    70   36   92 1    
    71   36   93 1    
    72   36   94 1    
    73   37   38 2    
    74   37   39 am   BACKBONE|DICT|INTERRES
    75   39   40 1    
    76   39   95 1    
    77   40   41 1    
    78   40   42 1    
    79   40   96 1    
    80   41   97 1    
    81   41   98 1    
    82   41   99 1    
    83   42   43 2    
    84   42   44 am   BACKBONE|DICT|INTERRES
    85   44   45 1    
    86   44  100 1    
    87   45   46 1    
    88   45   47 1    
    89   45  101 1    
    90   46  102 1    
    91   46  103 1    
    92   46  104 1    
    93   47   48 2    
    94   47   49 am   BACKBONE|DICT|INTERRES
    95   49   50 1    
    96   49  105 1    
    97   50   51 1    
    98   50   52 1    
    99   50  106 1    
   100   51  107 1    
   101   51  108 1    
   102   51  109 1    
   103   52   53 2    
   104   52   54 am   BACKBONE|DICT|INTERRES
   105   54   55 1    
   106   54  110 1    
   107   55   56 1    
   108   55   59 1    
   109   55  111 1    
   110   56   57 am   BACKBONE|DICT|INTERRES
   111   56   58 2    
   112   57  112 1    
   113   57  113 1    
   114   59   60 1    
   115   59  114 1    
   116   59  115 1    
   117   60   61 1    
   118   61  116 1    
   119   61  117 1    
@<TRIPOS>SUBSTRUCTURE
     1 UNK         1 GROUP             0       ****    0 ROOT    
