@<TRIPOS>MOLECULE
3R8
117   119    1
SMALL
USER_CHARGES


@<TRIPOS>ATOM
      1 CA         24.2301  -29.8773  -47.1429 C.3       0 UNK        -0.2013 
      2 C          22.9071  -29.5458  -46.4713 C.2       0 UNK         0.4866 
      3 O          22.7802  -29.6759  -45.2520 O.2       0 UNK        -0.5176 
      4 N          21.9228  -29.1130  -47.2686 N.am      1 UNK        -0.4884 
      5 CA         20.6579  -28.5481  -46.7930 C.3       1 UNK         0.0853 
      6 C6         19.6030  -28.5222  -47.9278 C.3       10 UNK        -0.0849 
      7 S7         17.9841  -27.8059  -47.4649 S.3       10 UNK        -0.2776 
      8 C8         16.9747  -29.2753  -47.0972 C.3       10 UNK         0.0316 
      9 C9         16.9222  -29.5642  -45.6040 C.ar      10 UNK        -0.0863 
     10 C10        17.7530  -30.5352  -45.0364 C.ar      10 UNK        -0.1009 
     11 C11        17.6585  -30.8329  -43.6736 C.ar      10 UNK        -0.0712 
     12 C12        16.7262  -30.1592  -42.8807 C.ar      10 UNK        -0.0894 
     13 C13        15.9065  -29.1695  -43.4292 C.ar      10 UNK        -0.0745 
     14 C14        16.0094  -28.8790  -44.7937 C.ar      10 UNK        -0.0972 
     15 C15        14.8887  -28.4343  -42.5609 C.3       10 UNK         0.0209 
     16 S16        15.6007  -27.7454  -41.0257 S.3       10 UNK        -0.2568 
     17 C17        16.8642  -26.6076  -41.6804 C.3       10 UNK        -0.0983 
     18 CA         18.3099  -27.1230  -41.4222 C.3       3 UNK         0.0876 
     19 N          19.2339  -26.8431  -42.5253 N.am      3 UNK        -0.4424 
     20 C          19.5069  -25.6503  -43.0763 C.2       2 UNK         0.4918 
     21 O          19.0354  -24.5846  -42.6792 O.2       2 UNK        -0.4875 
     22 CA         20.4763  -25.6455  -44.2624 C.3       2 UNK         0.0481 
     23 CB         21.9194  -25.4553  -43.7551 C.3       2 UNK        -0.1831 
     24 N          20.3385  -26.8810  -45.0346 N.am      2 UNK        -0.4498 
     25 C          20.9327  -27.1501  -46.2002 C.2       1 UNK         0.5027 
     26 O          21.6643  -26.3617  -46.8060 O.2       1 UNK        -0.4969 
     27 C          18.8759  -26.6691  -40.0607 C.2       3 UNK         0.5005 
     28 O          19.0639  -27.5022  -39.1739 O.2       3 UNK        -0.5279 
     29 N          19.1716  -25.3683  -39.9319 N.am      4 UNK        -0.4463 
     30 CA         19.7272  -24.7443  -38.7291 C.3       4 UNK         0.0283 
     31 CB         19.5681  -23.2181  -38.8203 C.3       4 UNK        -0.1875 
     32 C          21.1965  -25.1238  -38.4839 C.2       4 UNK         0.4949 
     33 O          21.5630  -25.4122  -37.3448 O.2       4 UNK        -0.5039 
     34 N          22.0088  -25.1223  -39.5522 N.am      5 UNK        -0.4663 
     35 CA         23.4300  -25.4916  -39.4974 C.3       5 UNK         0.0242 
     36 CB         24.1711  -24.8822  -40.6985 C.3       5 UNK        -0.1982 
     37 C          23.6522  -27.0134  -39.4432 C.2       5 UNK         0.5017 
     38 O          24.6928  -27.4490  -38.9509 O.2       5 UNK        -0.5012 
     39 N          22.6711  -27.7792  -39.9470 N.am      6 UNK        -0.4439 
     40 CA         22.5835  -29.2448  -39.9443 C.3       6 UNK         0.0297 
     41 CB         22.3532  -29.7550  -38.5045 C.3       6 UNK        -0.2006 
     42 C          23.7594  -29.9586  -40.6475 C.2       6 UNK         0.4892 
     43 O          24.1670  -31.0334  -40.2032 O.2       6 UNK        -0.5089 
     44 N          24.2800  -29.3473  -41.7241 N.am      7 UNK        -0.4243 
     45 CA         25.5038  -29.7461  -42.4300 C.3       7 UNK         0.0196 
     46 CB         25.8110  -28.7439  -43.5556 C.3       7 UNK        -0.2007 
     47 C          25.5023  -31.1976  -42.9398 C.2       7 UNK         0.5020 
     48 O          26.3803  -31.9679  -42.5491 O.2       7 UNK        -0.5147 
     49 N          24.5130  -31.5582  -43.7689 N.am      8 UNK        -0.4734 
     50 CA         24.2796  -32.9519  -44.1756 C.3       8 UNK         0.0238 
     51 CB         23.7530  -32.9997  -45.6186 C.3       8 UNK        -0.1912 
     52 C          23.3018  -33.6766  -43.2371 C.2       8 UNK         0.5038 
     53 O          23.2550  -34.9074  -43.2579 O.2       8 UNK        -0.5046 
     54 N          22.5217  -32.9107  -42.4647 N.am      9 UNK        -0.4200 
     55 CA         21.4748  -33.4100  -41.5635 C.3       9 UNK         0.0839 
     56 C          22.0226  -34.2200  -40.3567 C.2       9 UNK         0.5513 
     57 N          23.1645  -33.8450  -39.7922 N.am      9 UNK        -0.7519 
     58 O          21.4033  -35.1910  -39.9305 O.2       9 UNK        -0.4960 
     59 C59        20.5300  -32.2846  -41.0662 C.3       10 UNK        -0.0876 
     60 S60        20.0382  -31.0781  -42.3468 S.3       10 UNK        -0.2414 
     61 C61        18.5626  -31.8746  -43.0409 C.3       10 UNK         0.0169 
     62 H62        24.1062  -30.6941  -47.8533 H         1 UNK         0.0903 
     63 H63        24.6139  -29.0089  -47.6778 H         1 UNK         0.0903 
     64 H64        24.9771  -30.1730  -46.4067 H         1 UNK         0.0903 
     65 H65        22.1041  -29.0078  -48.2569 H         1 UNK         0.3096 
     66 H66        20.2836  -29.1967  -45.9974 H         1 UNK         0.1121 
     67 H67        19.4539  -29.5312  -48.3148 H         1 UNK         0.0849 
     68 H68        19.9820  -27.9416  -48.7712 H         1 UNK         0.0849 
     69 H69        15.9622  -29.0981  -47.4633 H         1 UNK         0.0865 
     70 H70        17.3373  -30.1442  -47.6482 H         1 UNK         0.0865 
     71 H71        18.4659  -31.0652  -45.6535 H         1 UNK         0.1346 
     72 H72        16.6502  -30.3945  -41.8278 H         1 UNK         0.1412 
     73 H73        15.3690  -28.1259  -45.2330 H         1 UNK         0.1426 
     74 H74        14.0907  -29.1287  -42.2952 H         1 UNK         0.0716 
     75 H75        14.4170  -27.6239  -43.1190 H         1 UNK         0.0716 
     76 H76        16.7017  -25.6148  -41.2569 H         1 UNK         0.0695 
     77 H77        16.6892  -26.4910  -42.7511 H         1 UNK         0.0695 
     78 H78        18.2768  -28.2134  -41.3835 H         1 UNK         0.0983 
     79 H79        19.7371  -27.6513  -42.8601 H         1 UNK         0.3095 
     80 H80        20.2090  -24.8058  -44.9069 H         1 UNK         0.0454 
     81 H81        22.6208  -25.3045  -44.5752 H         1 UNK         0.0851 
     82 H82        22.2598  -26.3178  -43.1818 H         1 UNK         0.0851 
     83 H83        21.9944  -24.5761  -43.1138 H         1 UNK         0.0851 
     84 H84        19.6627  -27.5453  -44.6847 H         1 UNK         0.2976 
     85 H85        19.0174  -24.7745  -40.7425 H         1 UNK         0.3116 
     86 H86        19.1478  -25.0924  -37.8710 H         1 UNK         0.0646 
     87 H87        20.0956  -22.8038  -39.6804 H         1 UNK         0.0847 
     88 H88        18.5190  -22.9335  -38.9023 H         1 UNK         0.0847 
     89 H89        19.9651  -22.7307  -37.9287 H         1 UNK         0.0847 
     90 H90        21.6352  -24.8361  -40.4449 H         1 UNK         0.3040 
     91 H91        23.8622  -25.0684  -38.5873 H         1 UNK         0.1015 
     92 H92        25.2450  -25.0568  -40.6175 H         1 UNK         0.0786 
     93 H93        24.0243  -23.8033  -40.7535 H         1 UNK         0.0786 
     94 H94        23.8476  -25.3174  -41.6426 H         1 UNK         0.0786 
     95 H95        21.8582  -27.2953  -40.2979 H         1 UNK         0.3172 
     96 H96        21.6940  -29.4830  -40.5254 H         1 UNK         0.0595 
     97 H97        23.2061  -29.5387  -37.8605 H         1 UNK         0.0839 
     98 H98        22.1990  -30.8338  -38.4774 H         1 UNK         0.0839 
     99 H99        21.4718  -29.2926  -38.0595 H         1 UNK         0.0839 
    100 H100       23.8567  -28.4814  -42.0217 H         1 UNK         0.2998 
    101 H101       26.3152  -29.6739  -41.7025 H         1 UNK         0.0822 
    102 H102       26.6917  -29.0486  -44.1229 H         1 UNK         0.0787 
    103 H103       26.0153  -27.7514  -43.1536 H         1 UNK         0.0787 
    104 H104       24.9847  -28.6519  -44.2590 H         1 UNK         0.0787 
    105 H105       23.8510  -30.8580  -44.0969 H         1 UNK         0.3055 
    106 H106       25.2180  -33.5107  -44.1494 H         1 UNK         0.1106 
    107 H107       22.8212  -32.4450  -45.7301 H         1 UNK         0.0828 
    108 H108       24.4840  -32.5966  -46.3177 H         1 UNK         0.0828 
    109 H109       23.5552  -34.0271  -45.9279 H         1 UNK         0.0828 
    110 H110       22.6311  -31.9100  -42.5123 H         1 UNK         0.2931 
    111 H111       20.8650  -34.0964  -42.1547 H         1 UNK         0.0412 
    112 H112       23.6397  -33.0024  -40.0988 H         1 UNK         0.3472 
    113 H113       23.5260  -34.3687  -39.0111 H         1 UNK         0.3472 
    114 H114       19.6367  -32.7168  -40.6118 H         1 UNK         0.0970 
    115 H115       21.0092  -31.7207  -40.2676 H         1 UNK         0.0970 
    116 H116       18.8665  -32.6235  -43.7738 H         1 UNK         0.0612 
    117 H117       18.0157  -32.4056  -42.2606 H         1 UNK         0.0612 
@<TRIPOS>BOND
     1    1    2 1    
     2    1   62 1    
     3    1   63 1    
     4    1   64 1    
     5    2    3 2    
     6    2    4 am   BACKBONE|DICT|INTERRES
     7    4    5 1    
     8    4   65 1    
     9    5    6 1    
    10    5   25 1    
    11    5   66 1    
    12    6    7 1    
    13    6   67 1    
    14    6   68 1    
    15    7    8 1    
    16    8    9 1    
    17    8   69 1    
    18    8   70 1    
    19    9   10 ar   
    20    9   14 ar   
    21   10   11 ar   
    22   10   71 1    
    23   11   12 ar   
    24   11   61 1    
    25   12   13 ar   
    26   12   72 1    
    27   13   14 ar   
    28   13   15 1    
    29   14   73 1    
    30   15   16 1    
    31   15   74 1    
    32   15   75 1    
    33   16   17 1    
    34   17   18 1    
    35   17   76 1    
    36   17   77 1    
    37   18   19 1    
    38   18   27 1    
    39   18   78 1    
    40   19   20 am   BACKBONE|DICT|INTERRES
    41   19   79 1    
    42   20   21 2    
    43   20   22 1    
    44   22   23 1    
    45   22   24 1    
    46   22   80 1    
    47   23   81 1    
    48   23   82 1    
    49   23   83 1    
    50   24   25 am   BACKBONE|DICT|INTERRES
    51   24   84 1    
    52   25   26 2    
    53   27   28 2    
    54   27   29 am   BACKBONE|DICT|INTERRES
    55   29   30 1    
    56   29   85 1    
    57   30   31 1    
    58   30   32 1    
    59   30   86 1    
    60   31   87 1    
    61   31   88 1    
    62   31   89 1    
    63   32   33 2    
    64   32   34 am   BACKBONE|DICT|INTERRES
    65   34   35 1    
    66   34   90 1    
    67   35   36 1    
    68   35   37 1    
    69   35   91 1    
    70   36   92 1    
    71   36   93 1    
    72   36   94 1    
    73   37   38 2    
    74   37   39 am   BACKBONE|DICT|INTERRES
    75   39   40 1    
    76   39   95 1    
    77   40   41 1    
    78   40   42 1    
    79   40   96 1    
    80   41   97 1    
    81   41   98 1    
    82   41   99 1    
    83   42   43 2    
    84   42   44 am   BACKBONE|DICT|INTERRES
    85   44   45 1    
    86   44  100 1    
    87   45   46 1    
    88   45   47 1    
    89   45  101 1    
    90   46  102 1    
    91   46  103 1    
    92   46  104 1    
    93   47   48 2    
    94   47   49 am   BACKBONE|DICT|INTERRES
    95   49   50 1    
    96   49  105 1    
    97   50   51 1    
    98   50   52 1    
    99   50  106 1    
   100   51  107 1    
   101   51  108 1    
   102   51  109 1    
   103   52   53 2    
   104   52   54 am   BACKBONE|DICT|INTERRES
   105   54   55 1    
   106   54  110 1    
   107   55   56 1    
   108   55   59 1    
   109   55  111 1    
   110   56   57 am   BACKBONE|DICT|INTERRES
   111   56   58 2    
   112   57  112 1    
   113   57  113 1    
   114   59   60 1    
   115   59  114 1    
   116   59  115 1    
   117   60   61 1    
   118   61  116 1    
   119   61  117 1    
@<TRIPOS>SUBSTRUCTURE
     1 UNK         1 GROUP             0       ****    0 ROOT    
