@<TRIPOS>MOLECULE
3R8
117   119    1
SMALL
USER_CHARGES


@<TRIPOS>ATOM
      1 CA         16.9618  -23.3805  -40.3116 C.3       0 UNK        -0.2013 
      2 C          16.7512  -23.9319  -41.7139 C.2       0 UNK         0.4866 
      3 O          15.6613  -23.7957  -42.2701 O.2       0 UNK        -0.5176 
      4 N          17.7862  -24.5503  -42.2887 N.am      1 UNK        -0.4884 
      5 CA         17.8095  -25.1166  -43.6355 C.3       1 UNK         0.0853 
      6 C6         17.0418  -26.4608  -43.7244 C.3       10 UNK        -0.0849 
      7 S7         16.4707  -26.8196  -45.4190 S.3       10 UNK        -0.2776 
      8 C8         15.7112  -28.4594  -45.1948 C.3       10 UNK         0.0316 
      9 C9         16.7477  -29.5098  -44.8255 C.ar      10 UNK        -0.0863 
     10 C10        16.8358  -29.9858  -43.5122 C.ar      10 UNK        -0.1009 
     11 C11        17.8073  -30.9286  -43.1635 C.ar      10 UNK        -0.0712 
     12 C12        18.6806  -31.4006  -44.1457 C.ar      10 UNK        -0.0894 
     13 C13        18.6027  -30.9370  -45.4620 C.ar      10 UNK        -0.0745 
     14 C14        17.6292  -29.9933  -45.7975 C.ar      10 UNK        -0.0972 
     15 C15        19.5666  -31.4633  -46.5184 C.3       10 UNK         0.0209 
     16 S16        20.9391  -30.3105  -46.8593 S.3       10 UNK        -0.2568 
     17 C17        21.7975  -30.2537  -45.2448 C.3       10 UNK        -0.0983 
     18 CA         22.1875  -28.8359  -44.7347 C.3       3 UNK         0.0876 
     19 N          21.3820  -27.7412  -45.2910 N.am      3 UNK        -0.4424 
     20 C          21.8236  -26.4807  -45.3929 C.2       2 UNK         0.4918 
     21 O          22.9393  -26.1125  -45.0248 O.2       2 UNK        -0.4875 
     22 CA         20.8514  -25.4501  -45.9905 C.3       2 UNK         0.0481 
     23 CB         20.6990  -25.6609  -47.5060 C.3       2 UNK        -0.1831 
     24 N          19.5274  -25.4301  -45.3599 N.am      2 UNK        -0.4498 
     25 C          19.2856  -25.2490  -44.0544 C.2       1 UNK         0.5027 
     26 O          20.1678  -25.1850  -43.1927 O.2       1 UNK        -0.4969 
     27 C          22.1873  -28.7822  -43.1931 C.2       3 UNK         0.5005 
     28 O          23.2096  -29.0769  -42.5718 O.2       3 UNK        -0.5279 
     29 N          21.0519  -28.3719  -42.6039 N.am      4 UNK        -0.4463 
     30 CA         20.8506  -28.2314  -41.1583 C.3       4 UNK         0.0283 
     31 CB         19.3859  -27.8702  -40.8672 C.3       4 UNK        -0.1875 
     32 C          21.7976  -27.2054  -40.5145 C.2       4 UNK         0.4949 
     33 O          22.2446  -27.4221  -39.3896 O.2       4 UNK        -0.5039 
     34 N          22.1456  -26.1457  -41.2581 N.am      5 UNK        -0.4663 
     35 CA         23.1613  -25.1542  -40.8894 C.3       5 UNK         0.0242 
     36 CB         23.1300  -24.0034  -41.9075 C.3       5 UNK        -0.1982 
     37 C          24.5860  -25.7334  -40.7712 C.2       5 UNK         0.5017 
     38 O          25.4047  -25.1598  -40.0527 O.2       5 UNK        -0.5012 
     39 N          24.8488  -26.8609  -41.4473 N.am      6 UNK        -0.4439 
     40 CA         26.0823  -27.6453  -41.3483 C.3       6 UNK         0.0297 
     41 CB         26.5007  -28.0891  -42.7619 C.3       6 UNK        -0.2006 
     42 C          25.9220  -28.8600  -40.4098 C.2       6 UNK         0.4892 
     43 O          26.8419  -29.6754  -40.3322 O.2       6 UNK        -0.5089 
     44 N          24.7714  -28.9654  -39.7241 N.am      7 UNK        -0.4243 
     45 CA         24.3553  -30.0375  -38.8127 C.3       7 UNK         0.0196 
     46 CB         25.2681  -30.0909  -37.5684 C.3       7 UNK        -0.2007 
     47 C          24.1863  -31.4105  -39.4944 C.2       7 UNK         0.5020 
     48 O          24.3259  -32.4370  -38.8268 O.2       7 UNK        -0.5147 
     49 N          23.8720  -31.4207  -40.7962 N.am      8 UNK        -0.4734 
     50 CA         23.6089  -32.6322  -41.5714 C.3       8 UNK         0.0238 
     51 CB         24.3195  -32.5142  -42.9294 C.3       8 UNK        -0.1912 
     52 C          22.0967  -32.7940  -41.7691 C.2       8 UNK         0.5038 
     53 O          21.4266  -31.8170  -42.1013 O.2       8 UNK        -0.5046 
     54 N          21.5890  -34.0182  -41.5926 N.am      9 UNK        -0.4200 
     55 CA         20.1858  -34.3918  -41.8350 C.3       9 UNK         0.0839 
     56 C          20.0001  -35.9196  -42.0686 C.2       9 UNK         0.5513 
     57 N          21.0360  -36.6556  -42.4576 N.am      9 UNK        -0.7519 
     58 O          18.9073  -36.4552  -41.9039 O.2       9 UNK        -0.4960 
     59 C59        19.2031  -33.7803  -40.7876 C.3       10 UNK        -0.0876 
     60 S60        17.6436  -33.1922  -41.5436 S.3       10 UNK        -0.2414 
     61 C61        17.9489  -31.4017  -41.7219 C.3       10 UNK         0.0169 
     62 H62        16.2516  -23.8332  -39.6203 H         1 UNK         0.0903 
     63 H63        17.9678  -23.5791  -39.9420 H         1 UNK         0.0903 
     64 H64        16.8045  -22.3023  -40.3047 H         1 UNK         0.0903 
     65 H65        18.6898  -24.5876  -41.8304 H         1 UNK         0.3096 
     66 H66        17.3449  -24.3847  -44.3007 H         1 UNK         0.1121 
     67 H67        16.1536  -26.4353  -43.0912 H         1 UNK         0.0849 
     68 H68        17.6505  -27.2845  -43.3494 H         1 UNK         0.0849 
     69 H69        15.2142  -28.7508  -46.1212 H         1 UNK         0.0865 
     70 H70        14.9292  -28.3979  -44.4362 H         1 UNK         0.0865 
     71 H71        16.1606  -29.6066  -42.7572 H         1 UNK         0.1346 
     72 H72        19.4381  -32.1204  -43.8767 H         1 UNK         0.1412 
     73 H73        17.5666  -29.6238  -46.8123 H         1 UNK         0.1426 
     74 H74        19.0224  -31.6450  -47.4463 H         1 UNK         0.0716 
     75 H75        19.9778  -32.4275  -46.2151 H         1 UNK         0.0716 
     76 H76        22.6983  -30.8616  -45.3364 H         1 UNK         0.0695 
     77 H77        21.1928  -30.7777  -44.5095 H         1 UNK         0.0695 
     78 H78        23.2206  -28.6680  -45.0489 H         1 UNK         0.0983 
     79 H79        20.4704  -27.9852  -45.6505 H         1 UNK         0.3095 
     80 H80        21.2914  -24.4630  -45.8343 H         1 UNK         0.0454 
     81 H81        20.2042  -26.6047  -47.7388 H         1 UNK         0.0851 
     82 H82        21.6724  -25.6740  -47.9984 H         1 UNK         0.0851 
     83 H83        20.1201  -24.8578  -47.9623 H         1 UNK         0.0851 
     84 H84        18.7332  -25.5159  -45.9798 H         1 UNK         0.2976 
     85 H85        20.2700  -28.1413  -43.1970 H         1 UNK         0.3116 
     86 H86        21.0595  -29.2044  -40.7080 H         1 UNK         0.0646 
     87 H87        18.6993  -28.5961  -41.3005 H         1 UNK         0.0847 
     88 H88        19.1262  -26.8873  -41.2578 H         1 UNK         0.0847 
     89 H89        19.1987  -27.8504  -39.7928 H         1 UNK         0.0847 
     90 H90        21.6707  -26.0012  -42.1445 H         1 UNK         0.3040 
     91 H91        22.8939  -24.7539  -39.9090 H         1 UNK         0.1015 
     92 H92        23.8566  -23.2315  -41.6499 H         1 UNK         0.0786 
     93 H93        22.1495  -23.5277  -41.9384 H         1 UNK         0.0786 
     94 H94        23.3642  -24.3509  -42.9145 H         1 UNK         0.0786 
     95 H95        24.1031  -27.2908  -41.9850 H         1 UNK         0.3172 
     96 H96        26.8846  -27.0280  -40.9395 H         1 UNK         0.0595 
     97 H97        25.7750  -28.7721  -43.2043 H         1 UNK         0.0839 
     98 H98        27.4611  -28.6059  -42.7419 H         1 UNK         0.0839 
     99 H99        26.6086  -27.2351  -43.4307 H         1 UNK         0.0839 
    100 H100       24.0767  -28.2387  -39.8548 H         1 UNK         0.2998 
    101 H101       23.3578  -29.7609  -38.4687 H         1 UNK         0.0822 
    102 H102       25.3566  -29.1110  -37.0993 H         1 UNK         0.0787 
    103 H103       24.8669  -30.7720  -36.8169 H         1 UNK         0.0787 
    104 H104       26.2717  -30.4373  -37.8164 H         1 UNK         0.0787 
    105 H105       23.7023  -30.5418  -41.2791 H         1 UNK         0.3055 
    106 H106       24.0009  -33.5122  -41.0566 H         1 UNK         0.1106 
    107 H107       23.9918  -31.6320  -43.4792 H         1 UNK         0.0828 
    108 H108       24.1212  -33.3849  -43.5555 H         1 UNK         0.0828 
    109 H109       25.3999  -32.4427  -42.8031 H         1 UNK         0.0828 
    110 H110       22.1894  -34.7723  -41.2908 H         1 UNK         0.2931 
    111 H111       19.9455  -33.9685  -42.8097 H         1 UNK         0.0412 
    112 H112       20.8991  -37.6442  -42.6034 H         1 UNK         0.3472 
    113 H113       21.9267  -36.2406  -42.6777 H         1 UNK         0.3472 
    114 H114       18.9608  -34.5059  -40.0092 H         1 UNK         0.0970 
    115 H115       19.6634  -32.9507  -40.2505 H         1 UNK         0.0970 
    116 H116       18.9475  -31.1404  -41.3721 H         1 UNK         0.0612 
    117 H117       17.2533  -30.8696  -41.0715 H         1 UNK         0.0612 
@<TRIPOS>BOND
     1    1    2 1    
     2    1   62 1    
     3    1   63 1    
     4    1   64 1    
     5    2    3 2    
     6    2    4 am   BACKBONE|DICT|INTERRES
     7    4    5 1    
     8    4   65 1    
     9    5    6 1    
    10    5   25 1    
    11    5   66 1    
    12    6    7 1    
    13    6   67 1    
    14    6   68 1    
    15    7    8 1    
    16    8    9 1    
    17    8   69 1    
    18    8   70 1    
    19    9   10 ar   
    20    9   14 ar   
    21   10   11 ar   
    22   10   71 1    
    23   11   12 ar   
    24   11   61 1    
    25   12   13 ar   
    26   12   72 1    
    27   13   14 ar   
    28   13   15 1    
    29   14   73 1    
    30   15   16 1    
    31   15   74 1    
    32   15   75 1    
    33   16   17 1    
    34   17   18 1    
    35   17   76 1    
    36   17   77 1    
    37   18   19 1    
    38   18   27 1    
    39   18   78 1    
    40   19   20 am   BACKBONE|DICT|INTERRES
    41   19   79 1    
    42   20   21 2    
    43   20   22 1    
    44   22   23 1    
    45   22   24 1    
    46   22   80 1    
    47   23   81 1    
    48   23   82 1    
    49   23   83 1    
    50   24   25 am   BACKBONE|DICT|INTERRES
    51   24   84 1    
    52   25   26 2    
    53   27   28 2    
    54   27   29 am   BACKBONE|DICT|INTERRES
    55   29   30 1    
    56   29   85 1    
    57   30   31 1    
    58   30   32 1    
    59   30   86 1    
    60   31   87 1    
    61   31   88 1    
    62   31   89 1    
    63   32   33 2    
    64   32   34 am   BACKBONE|DICT|INTERRES
    65   34   35 1    
    66   34   90 1    
    67   35   36 1    
    68   35   37 1    
    69   35   91 1    
    70   36   92 1    
    71   36   93 1    
    72   36   94 1    
    73   37   38 2    
    74   37   39 am   BACKBONE|DICT|INTERRES
    75   39   40 1    
    76   39   95 1    
    77   40   41 1    
    78   40   42 1    
    79   40   96 1    
    80   41   97 1    
    81   41   98 1    
    82   41   99 1    
    83   42   43 2    
    84   42   44 am   BACKBONE|DICT|INTERRES
    85   44   45 1    
    86   44  100 1    
    87   45   46 1    
    88   45   47 1    
    89   45  101 1    
    90   46  102 1    
    91   46  103 1    
    92   46  104 1    
    93   47   48 2    
    94   47   49 am   BACKBONE|DICT|INTERRES
    95   49   50 1    
    96   49  105 1    
    97   50   51 1    
    98   50   52 1    
    99   50  106 1    
   100   51  107 1    
   101   51  108 1    
   102   51  109 1    
   103   52   53 2    
   104   52   54 am   BACKBONE|DICT|INTERRES
   105   54   55 1    
   106   54  110 1    
   107   55   56 1    
   108   55   59 1    
   109   55  111 1    
   110   56   57 am   BACKBONE|DICT|INTERRES
   111   56   58 2    
   112   57  112 1    
   113   57  113 1    
   114   59   60 1    
   115   59  114 1    
   116   59  115 1    
   117   60   61 1    
   118   61  116 1    
   119   61  117 1    
@<TRIPOS>SUBSTRUCTURE
     1 UNK         1 GROUP             0       ****    0 ROOT    
