@<TRIPOS>MOLECULE
3R8
117   119    1
SMALL
USER_CHARGES


@<TRIPOS>ATOM
      1 CA         17.2102  -25.7784  -38.7093 C.3       0 UNK        -0.2013 
      2 C          17.0927  -25.9916  -40.2112 C.2       0 UNK         0.4866 
      3 O          16.1570  -25.4842  -40.8308 O.2       0 UNK        -0.5176 
      4 N          18.0288  -26.7465  -40.7989 N.am      1 UNK        -0.4884 
      5 CA         18.1025  -27.0239  -42.2366 C.3       1 UNK         0.0853 
      6 C6         19.1053  -28.1628  -42.5433 C.3       10 UNK        -0.0849 
      7 S7         18.5059  -29.7760  -41.9423 S.3       10 UNK        -0.2776 
      8 C8         18.1412  -30.6416  -43.5039 C.3       10 UNK         0.0316 
      9 C9         19.4078  -31.0317  -44.2559 C.ar      10 UNK        -0.0863 
     10 C10        20.1519  -32.1380  -43.8392 C.ar      10 UNK        -0.1009 
     11 C11        21.2968  -32.5408  -44.5377 C.ar      10 UNK        -0.0712 
     12 C12        21.6985  -31.7956  -45.6525 C.ar      10 UNK        -0.0894 
     13 C13        20.9813  -30.6707  -46.0746 C.ar      10 UNK        -0.0745 
     14 C14        19.8207  -30.3093  -45.3790 C.ar      10 UNK        -0.0972 
     15 C15        21.4688  -29.9117  -47.3115 C.3       10 UNK         0.0209 
     16 S16        20.9258  -28.1713  -47.4408 S.3       10 UNK        -0.2568 
     17 C17        21.9447  -27.3625  -46.1621 C.3       10 UNK        -0.0983 
     18 CA         21.6204  -25.8522  -46.0369 C.3       3 UNK         0.0876 
     19 N          20.2148  -25.6373  -45.6809 N.am      3 UNK        -0.4424 
     20 C          19.5586  -24.4697  -45.7146 C.2       2 UNK         0.4918 
     21 O          20.0401  -23.4229  -46.1473 O.2       2 UNK        -0.4875 
     22 CA         18.1309  -24.4642  -45.1325 C.3       2 UNK         0.0481 
     23 CB         17.0933  -24.5002  -46.2657 C.3       2 UNK        -0.1831 
     24 N          17.8596  -25.5623  -44.1925 N.am      2 UNK        -0.4498 
     25 C          18.4921  -25.7589  -43.0249 C.2       1 UNK         0.5027 
     26 O          19.4013  -25.0363  -42.6085 O.2       1 UNK        -0.4969 
     27 C          22.6009  -25.1526  -45.0648 C.2       3 UNK         0.5005 
     28 O          23.7545  -24.9393  -45.4410 O.2       3 UNK        -0.5279 
     29 N          22.1381  -24.8016  -43.8512 N.am      4 UNK        -0.4463 
     30 CA         22.7910  -24.0188  -42.7901 C.3       4 UNK         0.0283 
     31 CB         23.1256  -22.5941  -43.2725 C.3       4 UNK        -0.1875 
     32 C          24.0148  -24.6809  -42.1334 C.2       4 UNK         0.4949 
     33 O          24.0839  -24.7325  -40.9058 O.2       4 UNK        -0.5039 
     34 N          24.9563  -25.1685  -42.9476 N.am      5 UNK        -0.4663 
     35 CA         26.1714  -25.8610  -42.5096 C.3       5 UNK         0.0242 
     36 CB         27.2271  -25.7616  -43.6229 C.3       5 UNK        -0.1982 
     37 C          25.9208  -27.3327  -42.1360 C.2       5 UNK         0.5017 
     38 O          26.7457  -27.9259  -41.4394 O.2       5 UNK        -0.5012 
     39 N          24.8078  -27.8984  -42.6198 N.am      6 UNK        -0.4439 
     40 CA         24.3780  -29.2689  -42.3526 C.3       6 UNK         0.0297 
     41 CB         23.3148  -29.6689  -43.3865 C.3       6 UNK        -0.2006 
     42 C          23.8084  -29.4323  -40.9348 C.2       6 UNK         0.4892 
     43 O          23.2819  -28.4759  -40.3600 O.2       6 UNK        -0.5089 
     44 N          23.8776  -30.6688  -40.4305 N.am      7 UNK        -0.4243 
     45 CA         23.1613  -31.1210  -39.2381 C.3       7 UNK         0.0196 
     46 CB         23.8561  -32.3861  -38.7033 C.3       7 UNK        -0.2007 
     47 C          21.6872  -31.4129  -39.5716 C.2       7 UNK         0.5020 
     48 O          21.3113  -31.4541  -40.7436 O.2       7 UNK        -0.5147 
     49 N          20.8747  -31.6623  -38.5384 N.am      8 UNK        -0.4734 
     50 CA         19.4814  -32.0974  -38.6734 C.3       8 UNK         0.0238 
     51 CB         18.7339  -31.7999  -37.3601 C.3       8 UNK        -0.1912 
     52 C          19.4076  -33.5850  -39.0741 C.2       8 UNK         0.5038 
     53 O          19.0924  -34.4309  -38.2348 O.2       8 UNK        -0.5046 
     54 N          19.7494  -33.8751  -40.3365 N.am      9 UNK        -0.4200 
     55 CA         19.8452  -35.2300  -40.9116 C.3       9 UNK         0.0839 
     56 C          18.5121  -36.0331  -40.9653 C.2       9 UNK         0.5513 
     57 N          17.3491  -35.4014  -40.8602 N.am      9 UNK        -0.7519 
     58 O          18.5377  -37.2526  -41.1095 O.2       9 UNK        -0.4960 
     59 C59        20.5273  -35.2442  -42.3091 C.3       10 UNK        -0.0876 
     60 S60        22.0724  -34.2711  -42.3959 S.3       10 UNK        -0.2414 
     61 C61        22.1107  -33.7831  -44.1575 C.3       10 UNK         0.0169 
     62 H62        16.3168  -26.1482  -38.2067 H         1 UNK         0.0903 
     63 H63        18.0733  -26.2952  -38.2899 H         1 UNK         0.0903 
     64 H64        17.3108  -24.7161  -38.4882 H         1 UNK         0.0903 
     65 H65        18.7782  -27.1335  -40.2435 H         1 UNK         0.3096 
     66 H66        17.1082  -27.3355  -42.5656 H         1 UNK         0.1121 
     67 H67        20.0753  -27.9622  -42.0831 H         1 UNK         0.0849 
     68 H68        19.2979  -28.2335  -43.6137 H         1 UNK         0.0849 
     69 H69        17.5666  -31.5413  -43.2786 H         1 UNK         0.0865 
     70 H70        17.4942  -30.0199  -44.1247 H         1 UNK         0.0865 
     71 H71        19.8228  -32.6754  -42.9650 H         1 UNK         0.1346 
     72 H72        22.5796  -32.0981  -46.2023 H         1 UNK         0.1412 
     73 H73        19.2305  -29.4676  -45.7110 H         1 UNK         0.1426 
     74 H74        21.1137  -30.4437  -48.1949 H         1 UNK         0.0716 
     75 H75        22.5589  -29.9345  -47.3567 H         1 UNK         0.0716 
     76 H76        22.9948  -27.5138  -46.4207 H         1 UNK         0.0695 
     77 H77        21.7793  -27.8701  -45.2113 H         1 UNK         0.0695 
     78 H78        21.7811  -25.3903  -47.0137 H         1 UNK         0.0983 
     79 H79        19.7124  -26.4517  -45.3652 H         1 UNK         0.3095 
     80 H80        18.0078  -23.5266  -44.5867 H         1 UNK         0.0454 
     81 H81        17.2492  -23.6767  -46.9642 H         1 UNK         0.0851 
     82 H82        16.0783  -24.4045  -45.8798 H         1 UNK         0.0851 
     83 H83        17.1508  -25.4268  -46.8384 H         1 UNK         0.0851 
     84 H84        17.1274  -26.2044  -44.4621 H         1 UNK         0.2976 
     85 H85        21.1748  -25.0394  -43.6359 H         1 UNK         0.3116 
     86 H86        22.0375  -23.9221  -42.0063 H         1 UNK         0.0646 
     87 H87        23.8742  -22.5948  -44.0652 H         1 UNK         0.0847 
     88 H88        22.2382  -22.0867  -43.6512 H         1 UNK         0.0847 
     89 H89        23.5209  -21.9894  -42.4553 H         1 UNK         0.0847 
     90 H90        24.7947  -25.0804  -43.9501 H         1 UNK         0.3040 
     91 H91        26.5613  -25.3608  -41.6201 H         1 UNK         0.1015 
     92 H92        28.1571  -26.2482  -43.3253 H         1 UNK         0.0786 
     93 H93        27.4653  -24.7225  -43.8513 H         1 UNK         0.0786 
     94 H94        26.8885  -26.2385  -44.5437 H         1 UNK         0.0786 
     95 H95        24.1728  -27.3101  -43.1365 H         1 UNK         0.3172 
     96 H96        25.2412  -29.9286  -42.4661 H         1 UNK         0.0595 
     97 H97        23.0272  -30.7123  -43.2540 H         1 UNK         0.0839 
     98 H98        22.4045  -29.0778  -43.2803 H         1 UNK         0.0839 
     99 H99        23.6786  -29.5604  -44.4083 H         1 UNK         0.0839 
    100 H100       24.2746  -31.3965  -41.0067 H         1 UNK         0.2998 
    101 H101       23.1992  -30.3398  -38.4757 H         1 UNK         0.0822 
    102 H102       23.3972  -32.7292  -37.7754 H         1 UNK         0.0787 
    103 H103       24.9089  -32.2000  -38.4897 H         1 UNK         0.0787 
    104 H104       23.7989  -33.2089  -39.4179 H         1 UNK         0.0787 
    105 H105       21.2545  -31.6457  -37.6025 H         1 UNK         0.3055 
    106 H106       19.0012  -31.5180  -39.4657 H         1 UNK         0.1106 
    107 H107       18.7371  -30.7331  -37.1358 H         1 UNK         0.0828 
    108 H108       17.6908  -32.1119  -37.4269 H         1 UNK         0.0828 
    109 H109       19.1768  -32.3228  -36.5115 H         1 UNK         0.0828 
    110 H110       20.1132  -33.1174  -40.9048 H         1 UNK         0.2931 
    111 H111       20.4984  -35.7871  -40.2371 H         1 UNK         0.0412 
    112 H112       16.4930  -35.9325  -40.8948 H         1 UNK         0.3472 
    113 H113       17.3194  -34.4022  -40.7379 H         1 UNK         0.3472 
    114 H114       20.7730  -36.2703  -42.5897 H         1 UNK         0.0970 
    115 H115       19.8337  -34.8947  -43.0751 H         1 UNK         0.0970 
    116 H116       23.1573  -33.6123  -44.4142 H         1 UNK         0.0612 
    117 H117       21.7813  -34.6233  -44.7699 H         1 UNK         0.0612 
@<TRIPOS>BOND
     1    1    2 1    
     2    1   62 1    
     3    1   63 1    
     4    1   64 1    
     5    2    3 2    
     6    2    4 am   BACKBONE|DICT|INTERRES
     7    4    5 1    
     8    4   65 1    
     9    5    6 1    
    10    5   25 1    
    11    5   66 1    
    12    6    7 1    
    13    6   67 1    
    14    6   68 1    
    15    7    8 1    
    16    8    9 1    
    17    8   69 1    
    18    8   70 1    
    19    9   10 ar   
    20    9   14 ar   
    21   10   11 ar   
    22   10   71 1    
    23   11   12 ar   
    24   11   61 1    
    25   12   13 ar   
    26   12   72 1    
    27   13   14 ar   
    28   13   15 1    
    29   14   73 1    
    30   15   16 1    
    31   15   74 1    
    32   15   75 1    
    33   16   17 1    
    34   17   18 1    
    35   17   76 1    
    36   17   77 1    
    37   18   19 1    
    38   18   27 1    
    39   18   78 1    
    40   19   20 am   BACKBONE|DICT|INTERRES
    41   19   79 1    
    42   20   21 2    
    43   20   22 1    
    44   22   23 1    
    45   22   24 1    
    46   22   80 1    
    47   23   81 1    
    48   23   82 1    
    49   23   83 1    
    50   24   25 am   BACKBONE|DICT|INTERRES
    51   24   84 1    
    52   25   26 2    
    53   27   28 2    
    54   27   29 am   BACKBONE|DICT|INTERRES
    55   29   30 1    
    56   29   85 1    
    57   30   31 1    
    58   30   32 1    
    59   30   86 1    
    60   31   87 1    
    61   31   88 1    
    62   31   89 1    
    63   32   33 2    
    64   32   34 am   BACKBONE|DICT|INTERRES
    65   34   35 1    
    66   34   90 1    
    67   35   36 1    
    68   35   37 1    
    69   35   91 1    
    70   36   92 1    
    71   36   93 1    
    72   36   94 1    
    73   37   38 2    
    74   37   39 am   BACKBONE|DICT|INTERRES
    75   39   40 1    
    76   39   95 1    
    77   40   41 1    
    78   40   42 1    
    79   40   96 1    
    80   41   97 1    
    81   41   98 1    
    82   41   99 1    
    83   42   43 2    
    84   42   44 am   BACKBONE|DICT|INTERRES
    85   44   45 1    
    86   44  100 1    
    87   45   46 1    
    88   45   47 1    
    89   45  101 1    
    90   46  102 1    
    91   46  103 1    
    92   46  104 1    
    93   47   48 2    
    94   47   49 am   BACKBONE|DICT|INTERRES
    95   49   50 1    
    96   49  105 1    
    97   50   51 1    
    98   50   52 1    
    99   50  106 1    
   100   51  107 1    
   101   51  108 1    
   102   51  109 1    
   103   52   53 2    
   104   52   54 am   BACKBONE|DICT|INTERRES
   105   54   55 1    
   106   54  110 1    
   107   55   56 1    
   108   55   59 1    
   109   55  111 1    
   110   56   57 am   BACKBONE|DICT|INTERRES
   111   56   58 2    
   112   57  112 1    
   113   57  113 1    
   114   59   60 1    
   115   59  114 1    
   116   59  115 1    
   117   60   61 1    
   118   61  116 1    
   119   61  117 1    
@<TRIPOS>SUBSTRUCTURE
     1 UNK         1 GROUP             0       ****    0 ROOT    
