@<TRIPOS>MOLECULE
3R8
117   119    1
SMALL
USER_CHARGES


@<TRIPOS>ATOM
      1 CA         13.0806  -24.3786  -47.5628 C.3       0 UNK        -0.2013 
      2 C          13.9596  -25.6199  -47.5864 C.2       0 UNK         0.4866 
      3 O          14.3993  -26.0394  -48.6570 O.2       0 UNK        -0.5176 
      4 N          14.2202  -26.2114  -46.4133 N.am      1 UNK        -0.4884 
      5 CA         15.0583  -27.4064  -46.2398 C.3       1 UNK         0.0853 
      6 C6         14.7442  -28.1454  -44.9150 C.3       10 UNK        -0.0849 
      7 S7         14.8099  -27.0833  -43.4292 S.3       10 UNK        -0.2776 
      8 C8         15.1712  -28.3106  -42.1349 C.3       10 UNK         0.0316 
      9 C9         16.6652  -28.4280  -41.8741 C.ar      10 UNK        -0.0863 
     10 C10        17.4409  -29.3712  -42.5552 C.ar      10 UNK        -0.1009 
     11 C11        18.8093  -29.4862  -42.2900 C.ar      10 UNK        -0.0712 
     12 C12        19.3956  -28.6692  -41.3189 C.ar      10 UNK        -0.0894 
     13 C13        18.6357  -27.7005  -40.6555 C.ar      10 UNK        -0.0745 
     14 C14        17.2709  -27.5895  -40.9345 C.ar      10 UNK        -0.0972 
     15 C15        19.2817  -26.7621  -39.6441 C.3       10 UNK         0.0209 
     16 S16        20.6428  -25.7779  -40.3550 S.3       10 UNK        -0.2568 
     17 C17        19.8709  -24.9917  -41.8147 C.3       10 UNK        -0.0983 
     18 CA         20.2671  -25.6831  -43.1466 C.3       3 UNK         0.0876 
     19 N          19.3474  -25.3260  -44.2308 N.am      3 UNK        -0.4424 
     20 C          19.3278  -25.9127  -45.4351 C.2       2 UNK         0.4918 
     21 O          20.0406  -26.8692  -45.7464 O.2       2 UNK        -0.4875 
     22 CA         18.3346  -25.3216  -46.4520 C.3       2 UNK         0.0481 
     23 CB         18.8174  -25.4869  -47.9085 C.3       2 UNK        -0.1831 
     24 N          16.9786  -25.8576  -46.2864 N.am      2 UNK        -0.4498 
     25 C          16.5700  -27.1327  -46.4062 C.2       1 UNK         0.5027 
     26 O          17.3132  -28.0799  -46.6652 O.2       1 UNK        -0.4969 
     27 C          21.7405  -25.4125  -43.5312 C.2       3 UNK         0.5005 
     28 O          22.0271  -24.4658  -44.2702 O.2       3 UNK        -0.5279 
     29 N          22.6403  -26.2475  -43.0052 N.am      4 UNK        -0.4463 
     30 CA         24.0860  -26.1958  -43.1849 C.3       4 UNK         0.0283 
     31 CB         24.4861  -27.1156  -44.3526 C.3       4 UNK        -0.1875 
     32 C          24.7445  -26.6417  -41.8738 C.2       4 UNK         0.4949 
     33 O          24.0638  -27.1791  -40.9954 O.2       4 UNK        -0.5039 
     34 N          26.0624  -26.4363  -41.7652 N.am      5 UNK        -0.4663 
     35 CA         26.8857  -26.7573  -40.5920 C.3       5 UNK         0.0242 
     36 CB         28.1826  -25.9279  -40.6591 C.3       5 UNK        -0.1982 
     37 C          27.1562  -28.2694  -40.4184 C.2       5 UNK         0.5017 
     38 O          28.3102  -28.6781  -40.2751 O.2       5 UNK        -0.5012 
     39 N          26.0891  -29.0727  -40.4274 N.am      6 UNK        -0.4439 
     40 CA         26.0888  -30.5106  -40.1941 C.3       6 UNK         0.0297 
     41 CB         26.4425  -31.2690  -41.4879 C.3       6 UNK        -0.2006 
     42 C          24.6964  -30.8893  -39.6867 C.2       6 UNK         0.4892 
     43 O          23.7310  -30.7790  -40.4436 O.2       6 UNK        -0.5089 
     44 N          24.6111  -31.3374  -38.4270 N.am      7 UNK        -0.4243 
     45 CA         23.3608  -31.7404  -37.7676 C.3       7 UNK         0.0196 
     46 CB         23.6311  -31.9852  -36.2741 C.3       7 UNK        -0.2007 
     47 C          22.6903  -32.9734  -38.4023 C.2       7 UNK         0.5020 
     48 O          21.4725  -33.1198  -38.3040 O.2       7 UNK        -0.5147 
     49 N          23.4929  -33.8243  -39.0549 N.am      8 UNK        -0.4734 
     50 CA         23.0390  -34.9822  -39.8288 C.3       8 UNK         0.0238 
     51 CB         24.1711  -36.0242  -39.8607 C.3       8 UNK        -0.1912 
     52 C          22.5897  -34.6241  -41.2602 C.2       8 UNK         0.5038 
     53 O          22.1356  -35.5199  -41.9731 O.2       8 UNK        -0.5046 
     54 N          22.7441  -33.3543  -41.6676 N.am      9 UNK        -0.4200 
     55 CA         22.4453  -32.8218  -43.0094 C.3       9 UNK         0.0839 
     56 C          23.3920  -33.3369  -44.1366 C.2       9 UNK         0.5513 
     57 N          24.5403  -33.9246  -43.8211 N.am      9 UNK        -0.7519 
     58 O          23.1017  -33.1731  -45.3190 O.2       9 UNK        -0.4960 
     59 C59        20.9392  -32.9220  -43.3931 C.3       10 UNK        -0.0876 
     60 S60        19.8518  -32.0488  -42.2153 S.3       10 UNK        -0.2414 
     61 C61        19.6646  -30.4624  -43.0802 C.3       10 UNK         0.0169 
     62 H62        12.1889  -24.5392  -48.1682 H         1 UNK         0.0903 
     63 H63        12.7624  -24.1228  -46.5523 H         1 UNK         0.0903 
     64 H64        13.6226  -23.5271  -47.9735 H         1 UNK         0.0903 
     65 H65        13.8330  -25.8329  -45.5589 H         1 UNK         0.3096 
     66 H66        14.8034  -28.0950  -47.0492 H         1 UNK         0.1121 
     67 H67        13.7399  -28.5683  -44.9703 H         1 UNK         0.0849 
     68 H68        15.4111  -29.0002  -44.7904 H         1 UNK         0.0849 
     69 H69        14.6624  -28.0086  -41.2180 H         1 UNK         0.0865 
     70 H70        14.7490  -29.2809  -42.4016 H         1 UNK         0.0865 
     71 H71        16.9840  -30.0129  -43.2956 H         1 UNK         0.1346 
     72 H72        20.4524  -28.7609  -41.1062 H         1 UNK         0.1412 
     73 H73        16.6749  -26.8474  -40.4205 H         1 UNK         0.1426 
     74 H74        19.6697  -27.3504  -38.8116 H         1 UNK         0.0716 
     75 H75        18.5442  -26.0788  -39.2201 H         1 UNK         0.0716 
     76 H76        20.1432  -23.9346  -41.8299 H         1 UNK         0.0695 
     77 H77        18.7878  -25.0163  -41.6838 H         1 UNK         0.0695 
     78 H78        20.1598  -26.7608  -43.0218 H         1 UNK         0.0983 
     79 H79        18.7422  -24.5363  -44.0631 H         1 UNK         0.3095 
     80 H80        18.2677  -24.2500  -46.2572 H         1 UNK         0.0454 
     81 H81        18.9086  -26.5348  -48.1955 H         1 UNK         0.0851 
     82 H82        19.7978  -25.0292  -48.0454 H         1 UNK         0.0851 
     83 H83        18.1339  -25.0074  -48.6091 H         1 UNK         0.0851 
     84 H84        16.2672  -25.1793  -46.0530 H         1 UNK         0.2976 
     85 H85        22.3444  -26.9125  -42.2998 H         1 UNK         0.3116 
     86 H86        24.3996  -25.1708  -43.3938 H         1 UNK         0.0646 
     87 H87        24.2187  -28.1548  -44.1561 H         1 UNK         0.0847 
     88 H88        25.5610  -27.0832  -44.5335 H         1 UNK         0.0847 
     89 H89        23.9952  -26.8149  -45.2784 H         1 UNK         0.0847 
     90 H90        26.5498  -26.0244  -42.5485 H         1 UNK         0.3040 
     91 H91        26.3413  -26.4394  -39.6996 H         1 UNK         0.1015 
     92 H92        28.7877  -26.1946  -41.5265 H         1 UNK         0.0786 
     93 H93        28.7965  -26.0862  -39.7712 H         1 UNK         0.0786 
     94 H94        27.9694  -24.8601  -40.7129 H         1 UNK         0.0786 
     95 H95        25.1726  -28.6432  -40.5501 H         1 UNK         0.3172 
     96 H96        26.8280  -30.7530  -39.4274 H         1 UNK         0.0595 
     97 H97        26.4138  -32.3475  -41.3291 H         1 UNK         0.0839 
     98 H98        27.4461  -31.0196  -41.8326 H         1 UNK         0.0839 
     99 H99        25.7463  -31.0385  -42.2956 H         1 UNK         0.0839 
    100 H100       25.4530  -31.3909  -37.8706 H         1 UNK         0.2998 
    101 H101       22.6568  -30.9099  -37.8569 H         1 UNK         0.0822 
    102 H102       22.7137  -32.2601  -35.7515 H         1 UNK         0.0787 
    103 H103       24.3480  -32.7928  -36.1200 H         1 UNK         0.0787 
    104 H104       24.0215  -31.0904  -35.7887 H         1 UNK         0.0787 
    105 H105       24.4836  -33.6293  -39.0651 H         1 UNK         0.3055 
    106 H106       22.1772  -35.4294  -39.3278 H         1 UNK         0.1106 
    107 H107       23.8594  -36.9267  -40.3887 H         1 UNK         0.0828 
    108 H108       25.0595  -35.6430  -40.3656 H         1 UNK         0.0828 
    109 H109       24.4600  -36.3271  -38.8541 H         1 UNK         0.0828 
    110 H110       23.1036  -32.6690  -41.0134 H         1 UNK         0.2931 
    111 H111       22.6797  -31.7589  -42.9401 H         1 UNK         0.0412 
    112 H112       25.1495  -34.2433  -44.5581 H         1 UNK         0.3472 
    113 H113       24.7965  -34.0631  -42.8578 H         1 UNK         0.3472 
    114 H114       20.6239  -33.9646  -43.4482 H         1 UNK         0.0970 
    115 H115       20.7658  -32.5142  -44.3905 H         1 UNK         0.0970 
    116 H116       19.2230  -30.6343  -44.0632 H         1 UNK         0.0612 
    117 H117       20.6507  -30.0295  -43.2567 H         1 UNK         0.0612 
@<TRIPOS>BOND
     1    1    2 1    
     2    1   62 1    
     3    1   63 1    
     4    1   64 1    
     5    2    3 2    
     6    2    4 am   BACKBONE|DICT|INTERRES
     7    4    5 1    
     8    4   65 1    
     9    5    6 1    
    10    5   25 1    
    11    5   66 1    
    12    6    7 1    
    13    6   67 1    
    14    6   68 1    
    15    7    8 1    
    16    8    9 1    
    17    8   69 1    
    18    8   70 1    
    19    9   10 ar   
    20    9   14 ar   
    21   10   11 ar   
    22   10   71 1    
    23   11   12 ar   
    24   11   61 1    
    25   12   13 ar   
    26   12   72 1    
    27   13   14 ar   
    28   13   15 1    
    29   14   73 1    
    30   15   16 1    
    31   15   74 1    
    32   15   75 1    
    33   16   17 1    
    34   17   18 1    
    35   17   76 1    
    36   17   77 1    
    37   18   19 1    
    38   18   27 1    
    39   18   78 1    
    40   19   20 am   BACKBONE|DICT|INTERRES
    41   19   79 1    
    42   20   21 2    
    43   20   22 1    
    44   22   23 1    
    45   22   24 1    
    46   22   80 1    
    47   23   81 1    
    48   23   82 1    
    49   23   83 1    
    50   24   25 am   BACKBONE|DICT|INTERRES
    51   24   84 1    
    52   25   26 2    
    53   27   28 2    
    54   27   29 am   BACKBONE|DICT|INTERRES
    55   29   30 1    
    56   29   85 1    
    57   30   31 1    
    58   30   32 1    
    59   30   86 1    
    60   31   87 1    
    61   31   88 1    
    62   31   89 1    
    63   32   33 2    
    64   32   34 am   BACKBONE|DICT|INTERRES
    65   34   35 1    
    66   34   90 1    
    67   35   36 1    
    68   35   37 1    
    69   35   91 1    
    70   36   92 1    
    71   36   93 1    
    72   36   94 1    
    73   37   38 2    
    74   37   39 am   BACKBONE|DICT|INTERRES
    75   39   40 1    
    76   39   95 1    
    77   40   41 1    
    78   40   42 1    
    79   40   96 1    
    80   41   97 1    
    81   41   98 1    
    82   41   99 1    
    83   42   43 2    
    84   42   44 am   BACKBONE|DICT|INTERRES
    85   44   45 1    
    86   44  100 1    
    87   45   46 1    
    88   45   47 1    
    89   45  101 1    
    90   46  102 1    
    91   46  103 1    
    92   46  104 1    
    93   47   48 2    
    94   47   49 am   BACKBONE|DICT|INTERRES
    95   49   50 1    
    96   49  105 1    
    97   50   51 1    
    98   50   52 1    
    99   50  106 1    
   100   51  107 1    
   101   51  108 1    
   102   51  109 1    
   103   52   53 2    
   104   52   54 am   BACKBONE|DICT|INTERRES
   105   54   55 1    
   106   54  110 1    
   107   55   56 1    
   108   55   59 1    
   109   55  111 1    
   110   56   57 am   BACKBONE|DICT|INTERRES
   111   56   58 2    
   112   57  112 1    
   113   57  113 1    
   114   59   60 1    
   115   59  114 1    
   116   59  115 1    
   117   60   61 1    
   118   61  116 1    
   119   61  117 1    
@<TRIPOS>SUBSTRUCTURE
     1 UNK         1 GROUP             0       ****    0 ROOT    
