@<TRIPOS>MOLECULE
3R8
117   119    1
SMALL
USER_CHARGES


@<TRIPOS>ATOM
      1 CA         17.4164  -29.5814  -40.9100 C.3       0 UNK        -0.2013 
      2 C          16.8079  -28.4302  -41.6939 C.2       0 UNK         0.4866 
      3 O          15.9063  -27.7588  -41.1901 O.2       0 UNK        -0.5176 
      4 N          17.2878  -28.2080  -42.9235 N.am      1 UNK        -0.4884 
      5 CA         16.8314  -27.1421  -43.8243 C.3       1 UNK         0.0853 
      6 C6         16.7599  -27.6165  -45.3037 C.3       10 UNK        -0.0849 
      7 S7         15.8007  -29.1597  -45.5090 S.3       10 UNK        -0.2776 
      8 C8         16.7838  -30.0771  -46.7402 C.3       10 UNK         0.0316 
      9 C9         18.1766  -30.4310  -46.2354 C.ar      10 UNK        -0.0863 
     10 C10        18.3558  -31.4696  -45.3172 C.ar      10 UNK        -0.1009 
     11 C11        19.6368  -31.8083  -44.8692 C.ar      10 UNK        -0.0712 
     12 C12        20.7418  -31.0874  -45.3353 C.ar      10 UNK        -0.0894 
     13 C13        20.5780  -30.0546  -46.2644 C.ar      10 UNK        -0.0745 
     14 C14        19.2927  -29.7400  -46.7155 C.ar      10 UNK        -0.0972 
     15 C15        21.7921  -29.3346  -46.8409 C.3       10 UNK         0.0209 
     16 S16        21.6543  -27.5181  -46.7748 S.3       10 UNK        -0.2568 
     17 C17        22.1969  -27.1578  -45.0741 C.3       10 UNK        -0.0983 
     18 CA         22.0438  -25.6496  -44.7456 C.3       3 UNK         0.0876 
     19 N          20.6317  -25.2553  -44.7498 N.am      3 UNK        -0.4424 
     20 C          20.1602  -24.0026  -44.7355 C.2       2 UNK         0.4918 
     21 O          20.8825  -23.0048  -44.7719 O.2       2 UNK        -0.4875 
     22 CA         18.6263  -23.8154  -44.7081 C.3       2 UNK         0.0481 
     23 CB         18.1611  -22.9730  -45.9089 C.3       2 UNK        -0.1831 
     24 N          17.8536  -25.0655  -44.6884 N.am      2 UNK        -0.4498 
     25 C          17.6956  -25.8714  -43.6272 C.2       1 UNK         0.5027 
     26 O          18.2114  -25.6375  -42.5323 O.2       1 UNK        -0.4969 
     27 C          22.7555  -25.2856  -43.4211 C.2       3 UNK         0.5005 
     28 O          22.1006  -24.9892  -42.4185 O.2       3 UNK        -0.5279 
     29 N          24.0960  -25.3194  -43.4512 N.am      4 UNK        -0.4463 
     30 CA         24.9772  -25.0883  -42.3035 C.3       4 UNK         0.0283 
     31 CB         26.3146  -24.5070  -42.8082 C.3       4 UNK        -0.1875 
     32 C          25.1255  -26.3767  -41.4679 C.2       4 UNK         0.4949 
     33 O          24.1240  -26.9008  -40.9833 O.2       4 UNK        -0.5039 
     34 N          26.3548  -26.8929  -41.3179 N.am      5 UNK        -0.4663 
     35 CA         26.6765  -28.0940  -40.5307 C.3       5 UNK         0.0242 
     36 CB         28.1984  -28.3087  -40.5336 C.3       5 UNK        -0.1982 
     37 C          25.9523  -29.3736  -40.9923 C.2       5 UNK         0.5017 
     38 O          25.7023  -30.2583  -40.1738 O.2       5 UNK        -0.5012 
     39 N          25.5950  -29.4314  -42.2825 N.am      6 UNK        -0.4439 
     40 CA         24.8052  -30.5033  -42.8896 C.3       6 UNK         0.0297 
     41 CB         24.8734  -30.3786  -44.4191 C.3       6 UNK        -0.2006 
     42 C          23.3426  -30.5634  -42.4055 C.2       6 UNK         0.4892 
     43 O          22.7275  -31.6195  -42.5424 O.2       6 UNK        -0.5089 
     44 N          22.8145  -29.4759  -41.8166 N.am      7 UNK        -0.4243 
     45 CA         21.4667  -29.4222  -41.2321 C.3       7 UNK         0.0196 
     46 CB         20.9943  -27.9637  -41.1217 C.3       7 UNK        -0.2007 
     47 C          21.3390  -30.1528  -39.8793 C.2       7 UNK         0.5020 
     48 O          20.2596  -30.1364  -39.2868 O.2       7 UNK        -0.5147 
     49 N          22.4051  -30.8314  -39.4259 N.am      8 UNK        -0.4734 
     50 CA         22.4210  -31.7398  -38.2706 C.3       8 UNK         0.0238 
     51 CB         23.8593  -32.2328  -38.0439 C.3       8 UNK        -0.1912 
     52 C          21.4490  -32.9348  -38.3837 C.2       8 UNK         0.5038 
     53 O          21.1821  -33.5876  -37.3739 O.2       8 UNK        -0.5046 
     54 N          20.9193  -33.1786  -39.5903 N.am      9 UNK        -0.4200 
     55 CA         19.7612  -34.0383  -39.8665 C.3       9 UNK         0.0839 
     56 C          18.4430  -33.6206  -39.1446 C.2       9 UNK         0.5513 
     57 N          18.2859  -32.3740  -38.7106 N.am      9 UNK        -0.7519 
     58 O          17.5534  -34.4497  -38.9713 O.2       9 UNK        -0.4960 
     59 C59        19.5391  -34.1940  -41.3951 C.3       10 UNK        -0.0876 
     60 S60        19.2324  -32.6050  -42.2502 S.3       10 UNK        -0.2414 
     61 C61        19.8277  -32.9849  -43.9221 C.3       10 UNK         0.0169 
     62 H62        18.3283  -29.9479  -41.3779 H         1 UNK         0.0903 
     63 H63        17.6666  -29.2608  -39.8991 H         1 UNK         0.0903 
     64 H64        16.7121  -30.4099  -40.8418 H         1 UNK         0.0903 
     65 H65        18.0205  -28.8003  -43.2871 H         1 UNK         0.3096 
     66 H66        15.8175  -26.8522  -43.5388 H         1 UNK         0.1121 
     67 H67        16.2778  -26.8630  -45.9288 H         1 UNK         0.0849 
     68 H68        17.7646  -27.7484  -45.7041 H         1 UNK         0.0849 
     69 H69        16.2531  -30.9940  -47.0009 H         1 UNK         0.0865 
     70 H70        16.8416  -29.4917  -47.6593 H         1 UNK         0.0865 
     71 H71        17.4983  -32.0214  -44.9561 H         1 UNK         0.1346 
     72 H72        21.7331  -31.3552  -44.9977 H         1 UNK         0.1412 
     73 H73        19.1642  -28.9549  -47.4484 H         1 UNK         0.1426 
     74 H74        21.8985  -29.6321  -47.8849 H         1 UNK         0.0716 
     75 H75        22.7093  -29.6466  -46.3423 H         1 UNK         0.0716 
     76 H76        21.6287  -27.7756  -44.3763 H         1 UNK         0.0695 
     77 H77        23.2377  -27.4716  -44.9911 H         1 UNK         0.0695 
     78 H78        22.5382  -25.0733  -45.5311 H         1 UNK         0.0983 
     79 H79        19.9656  -26.0092  -44.7070 H         1 UNK         0.3095 
     80 H80        18.3928  -23.2584  -43.7985 H         1 UNK         0.0454 
     81 H81        18.6608  -22.0034  -45.9271 H         1 UNK         0.0851 
     82 H82        18.3775  -23.4672  -46.8568 H         1 UNK         0.0851 
     83 H83        17.0895  -22.7774  -45.8672 H         1 UNK         0.0851 
     84 H84        17.4067  -25.3194  -45.5576 H         1 UNK         0.2976 
     85 H85        24.5514  -25.5781  -44.3149 H         1 UNK         0.3116 
     86 H86        24.5210  -24.3420  -41.6497 H         1 UNK         0.0646 
     87 H87        26.9856  -24.2767  -41.9793 H         1 UNK         0.0847 
     88 H88        26.1532  -23.5725  -43.3461 H         1 UNK         0.0847 
     89 H89        26.8342  -25.1872  -43.4843 H         1 UNK         0.0847 
     90 H90        27.1332  -26.4106  -41.7443 H         1 UNK         0.3040 
     91 H91        26.3587  -27.9053  -39.5028 H         1 UNK         0.1015 
     92 H92        28.7219  -27.4524  -40.1077 H         1 UNK         0.0786 
     93 H93        28.5820  -28.4715  -41.5416 H         1 UNK         0.0786 
     94 H94        28.4709  -29.1806  -39.9367 H         1 UNK         0.0786 
     95 H95        25.8514  -28.6557  -42.8752 H         1 UNK         0.3172 
     96 H96        25.2681  -31.4526  -42.6117 H         1 UNK         0.0595 
     97 H97        25.8979  -30.4773  -44.7785 H         1 UNK         0.0839 
     98 H98        24.4900  -29.4196  -44.7635 H         1 UNK         0.0839 
     99 H99        24.2882  -31.1618  -44.9033 H         1 UNK         0.0839 
    100 H100       23.3912  -28.6510  -41.6792 H         1 UNK         0.2998 
    101 H101       20.7885  -29.9305  -41.9207 H         1 UNK         0.0822 
    102 H102       21.0064  -27.4662  -42.0897 H         1 UNK         0.0787 
    103 H103       19.9701  -27.9056  -40.7517 H         1 UNK         0.0787 
    104 H104       21.6159  -27.3866  -40.4373 H         1 UNK         0.0787 
    105 H105       23.2624  -30.7736  -39.9593 H         1 UNK         0.3055 
    106 H106       22.1099  -31.1643  -37.3962 H         1 UNK         0.1106 
    107 H107       24.2378  -32.7818  -38.9071 H         1 UNK         0.0828 
    108 H108       24.5380  -31.4013  -37.8526 H         1 UNK         0.0828 
    109 H109       23.9161  -32.8987  -37.1816 H         1 UNK         0.0828 
    110 H110       21.2107  -32.5910  -40.3584 H         1 UNK         0.2931 
    111 H111       20.0162  -35.0252  -39.4762 H         1 UNK         0.0412 
    112 H112       17.4328  -32.1202  -38.2394 H         1 UNK         0.3472 
    113 H113       18.9995  -31.6730  -38.8795 H         1 UNK         0.3472 
    114 H114       18.7056  -34.8691  -41.5981 H         1 UNK         0.0970 
    115 H115       20.4163  -34.6689  -41.8372 H         1 UNK         0.0970 
    116 H116       19.2882  -33.8511  -44.3080 H         1 UNK         0.0612 
    117 H117       20.8796  -33.2702  -43.8706 H         1 UNK         0.0612 
@<TRIPOS>BOND
     1    1    2 1    
     2    1   62 1    
     3    1   63 1    
     4    1   64 1    
     5    2    3 2    
     6    2    4 am   BACKBONE|DICT|INTERRES
     7    4    5 1    
     8    4   65 1    
     9    5    6 1    
    10    5   25 1    
    11    5   66 1    
    12    6    7 1    
    13    6   67 1    
    14    6   68 1    
    15    7    8 1    
    16    8    9 1    
    17    8   69 1    
    18    8   70 1    
    19    9   10 ar   
    20    9   14 ar   
    21   10   11 ar   
    22   10   71 1    
    23   11   12 ar   
    24   11   61 1    
    25   12   13 ar   
    26   12   72 1    
    27   13   14 ar   
    28   13   15 1    
    29   14   73 1    
    30   15   16 1    
    31   15   74 1    
    32   15   75 1    
    33   16   17 1    
    34   17   18 1    
    35   17   76 1    
    36   17   77 1    
    37   18   19 1    
    38   18   27 1    
    39   18   78 1    
    40   19   20 am   BACKBONE|DICT|INTERRES
    41   19   79 1    
    42   20   21 2    
    43   20   22 1    
    44   22   23 1    
    45   22   24 1    
    46   22   80 1    
    47   23   81 1    
    48   23   82 1    
    49   23   83 1    
    50   24   25 am   BACKBONE|DICT|INTERRES
    51   24   84 1    
    52   25   26 2    
    53   27   28 2    
    54   27   29 am   BACKBONE|DICT|INTERRES
    55   29   30 1    
    56   29   85 1    
    57   30   31 1    
    58   30   32 1    
    59   30   86 1    
    60   31   87 1    
    61   31   88 1    
    62   31   89 1    
    63   32   33 2    
    64   32   34 am   BACKBONE|DICT|INTERRES
    65   34   35 1    
    66   34   90 1    
    67   35   36 1    
    68   35   37 1    
    69   35   91 1    
    70   36   92 1    
    71   36   93 1    
    72   36   94 1    
    73   37   38 2    
    74   37   39 am   BACKBONE|DICT|INTERRES
    75   39   40 1    
    76   39   95 1    
    77   40   41 1    
    78   40   42 1    
    79   40   96 1    
    80   41   97 1    
    81   41   98 1    
    82   41   99 1    
    83   42   43 2    
    84   42   44 am   BACKBONE|DICT|INTERRES
    85   44   45 1    
    86   44  100 1    
    87   45   46 1    
    88   45   47 1    
    89   45  101 1    
    90   46  102 1    
    91   46  103 1    
    92   46  104 1    
    93   47   48 2    
    94   47   49 am   BACKBONE|DICT|INTERRES
    95   49   50 1    
    96   49  105 1    
    97   50   51 1    
    98   50   52 1    
    99   50  106 1    
   100   51  107 1    
   101   51  108 1    
   102   51  109 1    
   103   52   53 2    
   104   52   54 am   BACKBONE|DICT|INTERRES
   105   54   55 1    
   106   54  110 1    
   107   55   56 1    
   108   55   59 1    
   109   55  111 1    
   110   56   57 am   BACKBONE|DICT|INTERRES
   111   56   58 2    
   112   57  112 1    
   113   57  113 1    
   114   59   60 1    
   115   59  114 1    
   116   59  115 1    
   117   60   61 1    
   118   61  116 1    
   119   61  117 1    
@<TRIPOS>SUBSTRUCTURE
     1 UNK         1 GROUP             0       ****    0 ROOT    
