@<TRIPOS>MOLECULE
3R8
117   119    1
SMALL
USER_CHARGES


@<TRIPOS>ATOM
      1 CA         16.2491  -24.8747  -47.8707 C.3       0 UNK        -0.2013 
      2 C          16.2975  -25.4154  -46.4494 C.2       0 UNK         0.4866 
      3 O          15.6546  -24.8524  -45.5633 O.2       0 UNK        -0.5176 
      4 N          17.0562  -26.4999  -46.2342 N.am      1 UNK        -0.4884 
      5 CA         17.2498  -27.1958  -44.9520 C.3       1 UNK         0.0853 
      6 C6         15.9794  -27.9394  -44.4521 C.3       10 UNK        -0.0849 
      7 S7         15.6149  -29.3727  -45.5260 S.3       10 UNK        -0.2776 
      8 C8         16.0489  -30.8018  -44.4689 C.3       10 UNK         0.0316 
      9 C9         17.3958  -30.6566  -43.7657 C.ar      10 UNK        -0.0863 
     10 C10        18.5696  -30.4722  -44.4999 C.ar      10 UNK        -0.1009 
     11 C11        19.7935  -30.2838  -43.8511 C.ar      10 UNK        -0.0712 
     12 C12        19.8445  -30.3350  -42.4543 C.ar      10 UNK        -0.0894 
     13 C13        18.6778  -30.5264  -41.7008 C.ar      10 UNK        -0.0745 
     14 C14        17.4610  -30.6878  -42.3700 C.ar      10 UNK        -0.0972 
     15 C15        18.6732  -30.5838  -40.1710 C.3       10 UNK         0.0209 
     16 S16        20.0385  -29.7062  -39.3347 S.3       10 UNK        -0.2568 
     17 C17        19.6649  -27.9568  -39.7005 C.3       10 UNK        -0.0983 
     18 CA         20.7381  -27.3007  -40.6092 C.3       3 UNK         0.0876 
     19 N          20.1377  -26.3167  -41.5195 N.am      3 UNK        -0.4424 
     20 C          20.7509  -25.7452  -42.5631 C.2       2 UNK         0.4918 
     21 O          21.9374  -25.9258  -42.8395 O.2       2 UNK        -0.4875 
     22 CA         19.8806  -24.8289  -43.4422 C.3       2 UNK         0.0481 
     23 CB         20.7287  -23.8932  -44.3231 C.3       2 UNK        -0.1831 
     24 N          18.9996  -25.6232  -44.2978 N.am      2 UNK        -0.4498 
     25 C          17.9122  -26.2940  -43.8892 C.2       1 UNK         0.5027 
     26 O          17.4621  -26.2275  -42.7426 O.2       1 UNK        -0.4969 
     27 C          21.9542  -26.7686  -39.8093 C.2       3 UNK         0.5005 
     28 O          22.7483  -27.5601  -39.3007 O.2       3 UNK        -0.5279 
     29 N          22.1026  -25.4381  -39.7314 N.am      4 UNK        -0.4463 
     30 CA         23.2760  -24.7619  -39.1765 C.3       4 UNK         0.0283 
     31 CB         22.9203  -23.2949  -38.8855 C.3       4 UNK        -0.1875 
     32 C          24.5172  -24.8390  -40.0882 C.2       4 UNK         0.4949 
     33 O          25.6324  -24.7446  -39.5750 O.2       4 UNK        -0.5039 
     34 N          24.3218  -24.9837  -41.4087 N.am      5 UNK        -0.4663 
     35 CA         25.4071  -25.0564  -42.3932 C.3       5 UNK         0.0242 
     36 CB         24.8998  -24.5743  -43.7627 C.3       5 UNK        -0.1982 
     37 C          25.9950  -26.4718  -42.4975 C.2       5 UNK         0.5017 
     38 O          27.2134  -26.6159  -42.6042 O.2       5 UNK        -0.5012 
     39 N          25.1243  -27.4842  -42.4467 N.am      6 UNK        -0.4439 
     40 CA         25.4576  -28.9040  -42.4116 C.3       6 UNK         0.0297 
     41 CB         25.6652  -29.4443  -43.8373 C.3       6 UNK        -0.2006 
     42 C          24.2925  -29.6051  -41.7138 C.2       6 UNK         0.4892 
     43 O          23.1451  -29.3024  -42.0377 O.2       6 UNK        -0.5089 
     44 N          24.5936  -30.4899  -40.7586 N.am      7 UNK        -0.4243 
     45 CA         23.5878  -31.1381  -39.9190 C.3       7 UNK         0.0196 
     46 CB         24.2087  -31.4615  -38.5500 C.3       7 UNK        -0.2007 
     47 C          23.0356  -32.4157  -40.5670 C.2       7 UNK         0.5020 
     48 O          23.8148  -33.2012  -41.1102 O.2       7 UNK        -0.5147 
     49 N          21.7188  -32.6236  -40.4100 N.am      8 UNK        -0.4734 
     50 CA         20.9555  -33.8499  -40.6924 C.3       8 UNK         0.0238 
     51 CB         21.2245  -34.8865  -39.5812 C.3       8 UNK        -0.1912 
     52 C          21.1770  -34.4284  -42.1045 C.2       8 UNK         0.5038 
     53 O          21.5799  -35.5861  -42.2403 O.2       8 UNK        -0.5046 
     54 N          20.9251  -33.6048  -43.1289 N.am      9 UNK        -0.4200 
     55 CA         21.1675  -33.9421  -44.5434 C.3       9 UNK         0.0839 
     56 C          20.2047  -35.0057  -45.1473 C.2       9 UNK         0.5513 
     57 N          19.0860  -35.3301  -44.5102 N.am      9 UNK        -0.7519 
     58 O          20.4813  -35.5458  -46.2153 O.2       9 UNK        -0.4960 
     59 C59        21.2285  -32.6870  -45.4541 C.3       10 UNK        -0.0876 
     60 S60        22.2370  -31.3381  -44.7477 S.3       10 UNK        -0.2414 
     61 C61        21.0437  -29.9639  -44.6643 C.3       10 UNK         0.0169 
     62 H62        16.6138  -23.8481  -47.8940 H         1 UNK         0.0903 
     63 H63        16.8572  -25.4661  -48.5550 H         1 UNK         0.0903 
     64 H64        15.2235  -24.8802  -48.2388 H         1 UNK         0.0903 
     65 H65        17.5432  -26.9115  -47.0189 H         1 UNK         0.3096 
     66 H66        18.0091  -27.9512  -45.1493 H         1 UNK         0.1121 
     67 H67        16.0963  -28.2897  -43.4255 H         1 UNK         0.0849 
     68 H68        15.1165  -27.2725  -44.4381 H         1 UNK         0.0849 
     69 H69        15.2485  -30.9457  -43.7413 H         1 UNK         0.0865 
     70 H70        16.0652  -31.7033  -45.0830 H         1 UNK         0.0865 
     71 H71        18.5191  -30.4349  -45.5797 H         1 UNK         0.1346 
     72 H72        20.7976  -30.2112  -41.9631 H         1 UNK         0.1412 
     73 H73        16.5549  -30.8332  -41.7972 H         1 UNK         0.1426 
     74 H74        18.6994  -31.6299  -39.8661 H         1 UNK         0.0716 
     75 H75        17.7332  -30.1830  -39.7877 H         1 UNK         0.0716 
     76 H76        18.6863  -27.9201  -40.1825 H         1 UNK         0.0695 
     77 H77        19.5475  -27.4113  -38.7623 H         1 UNK         0.0695 
     78 H78        21.1355  -28.0700  -41.2678 H         1 UNK         0.0983 
     79 H79        19.1415  -26.1575  -41.4213 H         1 UNK         0.3095 
     80 H80        19.2699  -24.2069  -42.7843 H         1 UNK         0.0454 
     81 H81        20.1011  -23.2089  -44.8940 H         1 UNK         0.0851 
     82 H82        21.3481  -24.4483  -45.0289 H         1 UNK         0.0851 
     83 H83        21.3984  -23.2848  -43.7137 H         1 UNK         0.0851 
     84 H84        19.2927  -25.7361  -45.2575 H         1 UNK         0.2976 
     85 H85        21.3967  -24.8562  -40.1581 H         1 UNK         0.3116 
     86 H86        23.5328  -25.2425  -38.2299 H         1 UNK         0.0646 
     87 H87        23.7667  -22.7702  -38.4399 H         1 UNK         0.0847 
     88 H88        22.0896  -23.2182  -38.1838 H         1 UNK         0.0847 
     89 H89        22.6463  -22.7562  -39.7935 H         1 UNK         0.0847 
     90 H90        23.3800  -25.1141  -41.7642 H         1 UNK         0.3040 
     91 H91        26.2117  -24.3858  -42.0818 H         1 UNK         0.1015 
     92 H92        24.4946  -23.5641  -43.7033 H         1 UNK         0.0786 
     93 H93        24.1213  -25.2247  -44.1626 H         1 UNK         0.0786 
     94 H94        25.7112  -24.5559  -44.4915 H         1 UNK         0.0786 
     95 H95        24.1349  -27.2854  -42.3467 H         1 UNK         0.3172 
     96 H96        26.3687  -29.0498  -41.8272 H         1 UNK         0.0595 
     97 H97        26.4990  -28.9485  -44.3343 H         1 UNK         0.0839 
     98 H98        24.7752  -29.3032  -44.4523 H         1 UNK         0.0839 
     99 H99        25.8831  -30.5128  -43.8208 H         1 UNK         0.0839 
    100 H100       25.5584  -30.7307  -40.5846 H         1 UNK         0.2998 
    101 H101       22.7697  -30.4357  -39.7532 H         1 UNK         0.0822 
    102 H102       24.5634  -30.5578  -38.0537 H         1 UNK         0.0787 
    103 H103       23.4747  -31.9254  -37.8894 H         1 UNK         0.0787 
    104 H104       25.0495  -32.1508  -38.6388 H         1 UNK         0.0787 
    105 H105       21.1896  -31.8851  -39.9642 H         1 UNK         0.3055 
    106 H106       19.8985  -33.5850  -40.6412 H         1 UNK         0.1106 
    107 H107       20.6141  -35.7798  -39.7205 H         1 UNK         0.0828 
    108 H108       22.2682  -35.2030  -39.5697 H         1 UNK         0.0828 
    109 H109       20.9861  -34.4845  -38.5965 H         1 UNK         0.0828 
    110 H110       20.6207  -32.6593  -42.9462 H         1 UNK         0.2931 
    111 H111       22.1609  -34.3944  -44.5774 H         1 UNK         0.0412 
    112 H112       18.8503  -34.8895  -43.6358 H         1 UNK         0.3472 
    113 H113       18.4719  -36.0223  -44.9098 H         1 UNK         0.3472 
    114 H114       21.6603  -32.9510  -46.4213 H         1 UNK         0.0970 
    115 H115       20.2244  -32.3253  -45.6746 H         1 UNK         0.0970 
    116 H116       20.7754  -29.6737  -45.6812 H         1 UNK         0.0612 
    117 H117       21.5403  -29.0965  -44.2268 H         1 UNK         0.0612 
@<TRIPOS>BOND
     1    1    2 1    
     2    1   62 1    
     3    1   63 1    
     4    1   64 1    
     5    2    3 2    
     6    2    4 am   BACKBONE|DICT|INTERRES
     7    4    5 1    
     8    4   65 1    
     9    5    6 1    
    10    5   25 1    
    11    5   66 1    
    12    6    7 1    
    13    6   67 1    
    14    6   68 1    
    15    7    8 1    
    16    8    9 1    
    17    8   69 1    
    18    8   70 1    
    19    9   10 ar   
    20    9   14 ar   
    21   10   11 ar   
    22   10   71 1    
    23   11   12 ar   
    24   11   61 1    
    25   12   13 ar   
    26   12   72 1    
    27   13   14 ar   
    28   13   15 1    
    29   14   73 1    
    30   15   16 1    
    31   15   74 1    
    32   15   75 1    
    33   16   17 1    
    34   17   18 1    
    35   17   76 1    
    36   17   77 1    
    37   18   19 1    
    38   18   27 1    
    39   18   78 1    
    40   19   20 am   BACKBONE|DICT|INTERRES
    41   19   79 1    
    42   20   21 2    
    43   20   22 1    
    44   22   23 1    
    45   22   24 1    
    46   22   80 1    
    47   23   81 1    
    48   23   82 1    
    49   23   83 1    
    50   24   25 am   BACKBONE|DICT|INTERRES
    51   24   84 1    
    52   25   26 2    
    53   27   28 2    
    54   27   29 am   BACKBONE|DICT|INTERRES
    55   29   30 1    
    56   29   85 1    
    57   30   31 1    
    58   30   32 1    
    59   30   86 1    
    60   31   87 1    
    61   31   88 1    
    62   31   89 1    
    63   32   33 2    
    64   32   34 am   BACKBONE|DICT|INTERRES
    65   34   35 1    
    66   34   90 1    
    67   35   36 1    
    68   35   37 1    
    69   35   91 1    
    70   36   92 1    
    71   36   93 1    
    72   36   94 1    
    73   37   38 2    
    74   37   39 am   BACKBONE|DICT|INTERRES
    75   39   40 1    
    76   39   95 1    
    77   40   41 1    
    78   40   42 1    
    79   40   96 1    
    80   41   97 1    
    81   41   98 1    
    82   41   99 1    
    83   42   43 2    
    84   42   44 am   BACKBONE|DICT|INTERRES
    85   44   45 1    
    86   44  100 1    
    87   45   46 1    
    88   45   47 1    
    89   45  101 1    
    90   46  102 1    
    91   46  103 1    
    92   46  104 1    
    93   47   48 2    
    94   47   49 am   BACKBONE|DICT|INTERRES
    95   49   50 1    
    96   49  105 1    
    97   50   51 1    
    98   50   52 1    
    99   50  106 1    
   100   51  107 1    
   101   51  108 1    
   102   51  109 1    
   103   52   53 2    
   104   52   54 am   BACKBONE|DICT|INTERRES
   105   54   55 1    
   106   54  110 1    
   107   55   56 1    
   108   55   59 1    
   109   55  111 1    
   110   56   57 am   BACKBONE|DICT|INTERRES
   111   56   58 2    
   112   57  112 1    
   113   57  113 1    
   114   59   60 1    
   115   59  114 1    
   116   59  115 1    
   117   60   61 1    
   118   61  116 1    
   119   61  117 1    
@<TRIPOS>SUBSTRUCTURE
     1 UNK         1 GROUP             0       ****    0 ROOT    
