@<TRIPOS>MOLECULE
3R8
117   119    1
SMALL
USER_CHARGES


@<TRIPOS>ATOM
      1 CA         15.8916  -23.0894  -45.5703 C.3       0 UNK        -0.2013 
      2 C          16.4063  -24.4778  -45.2231 C.2       0 UNK         0.4866 
      3 O          17.2739  -25.0028  -45.9219 O.2       0 UNK        -0.5176 
      4 N          15.8871  -25.0766  -44.1436 N.am      1 UNK        -0.4884 
      5 CA         16.2453  -26.4126  -43.6493 C.3       1 UNK         0.0853 
      6 C6         15.1089  -27.0232  -42.7901 C.3       10 UNK        -0.0849 
      7 S7         13.7271  -27.5578  -43.8519 S.3       10 UNK        -0.2776 
      8 C8         14.0074  -29.3596  -43.9313 C.3       10 UNK         0.0316 
      9 C9         15.4230  -29.7246  -44.3689 C.ar      10 UNK        -0.0863 
     10 C10        16.3071  -30.3214  -43.4622 C.ar      10 UNK        -0.1009 
     11 C11        17.5924  -30.6979  -43.8628 C.ar      10 UNK        -0.0712 
     12 C12        17.9854  -30.4739  -45.1854 C.ar      10 UNK        -0.0894 
     13 C13        17.1313  -29.8426  -46.0926 C.ar      10 UNK        -0.0745 
     14 C14        15.8443  -29.4812  -45.6808 C.ar      10 UNK        -0.0972 
     15 C15        17.5851  -29.5827  -47.5235 C.3       10 UNK         0.0209 
     16 S16        18.6564  -28.1115  -47.6549 S.3       10 UNK        -0.2568 
     17 C17        20.3161  -28.8104  -47.3378 C.3       10 UNK        -0.0983 
     18 CA         21.2104  -27.9302  -46.4260 C.3       3 UNK         0.0876 
     19 N          20.5151  -27.4593  -45.2178 N.am      3 UNK        -0.4424 
     20 C          21.0052  -26.5695  -44.3389 C.2       2 UNK         0.4918 
     21 O          22.1590  -26.1413  -44.3781 O.2       2 UNK        -0.4875 
     22 CA         20.0521  -26.0666  -43.2414 C.3       2 UNK         0.0481 
     23 CB         20.3789  -24.6339  -42.7774 C.3       2 UNK        -0.1831 
     24 N          18.6644  -26.1275  -43.6894 N.am      2 UNK        -0.4498 
     25 C          17.6050  -26.4010  -42.9231 C.2       1 UNK         0.5027 
     26 O          17.6710  -26.6179  -41.7121 O.2       1 UNK        -0.4969 
     27 C          22.5395  -28.6579  -46.1256 C.2       3 UNK         0.5005 
     28 O          23.4765  -28.5638  -46.9201 O.2       3 UNK        -0.5279 
     29 N          22.5968  -29.3488  -44.9805 N.am      4 UNK        -0.4463 
     30 CA         23.7803  -30.0127  -44.4397 C.3       4 UNK         0.0283 
     31 CB         23.6950  -31.5267  -44.7081 C.3       4 UNK        -0.1875 
     32 C          23.9236  -29.6691  -42.9493 C.2       4 UNK         0.4949 
     33 O          24.1519  -30.5559  -42.1243 O.2       4 UNK        -0.5039 
     34 N          23.7484  -28.3862  -42.6089 N.am      5 UNK        -0.4663 
     35 CA         24.0189  -27.8637  -41.2690 C.3       5 UNK         0.0242 
     36 CB         23.1732  -26.6036  -41.0306 C.3       5 UNK        -0.1982 
     37 C          25.5183  -27.5328  -41.1255 C.2       5 UNK         0.5017 
     38 O          26.1395  -27.1495  -42.1171 O.2       5 UNK        -0.5012 
     39 N          26.1148  -27.6297  -39.9292 N.am      6 UNK        -0.4439 
     40 CA         25.5425  -28.1285  -38.6725 C.3       6 UNK         0.0297 
     41 CB         26.2786  -27.4531  -37.5031 C.3       6 UNK        -0.2006 
     42 C          25.6241  -29.6630  -38.5346 C.2       6 UNK         0.4892 
     43 O          25.0750  -30.1979  -37.5721 O.2       6 UNK        -0.5089 
     44 N          26.3189  -30.3302  -39.4695 N.am      7 UNK        -0.4243 
     45 CA         26.6654  -31.7554  -39.4478 C.3       7 UNK         0.0196 
     46 CB         27.4738  -32.0980  -40.7105 C.3       7 UNK        -0.2007 
     47 C          25.4719  -32.7133  -39.2997 C.2       7 UNK         0.5020 
     48 O          25.5408  -33.6344  -38.4847 O.2       7 UNK        -0.5147 
     49 N          24.4133  -32.4826  -40.0834 N.am      8 UNK        -0.4734 
     50 CA         23.1784  -33.2676  -40.0591 C.3       8 UNK         0.0238 
     51 CB         22.9793  -33.9540  -41.4209 C.3       8 UNK        -0.1912 
     52 C          21.9715  -32.3879  -39.7164 C.2       8 UNK         0.5038 
     53 O          21.1613  -32.7829  -38.8773 O.2       8 UNK        -0.5046 
     54 N          21.8689  -31.2231  -40.3690 N.am      9 UNK        -0.4200 
     55 CA         20.7244  -30.3008  -40.2506 C.3       9 UNK         0.0839 
     56 C          20.8749  -29.2459  -39.1168 C.2       9 UNK         0.5513 
     57 N          21.9224  -29.2839  -38.3019 N.am      9 UNK        -0.7519 
     58 O          20.0200  -28.3784  -38.9662 O.2       9 UNK        -0.4960 
     59 C59        20.3515  -29.6410  -41.6081 C.3       10 UNK        -0.0876 
     60 S60        20.2528  -30.8372  -42.9817 S.3       10 UNK        -0.2414 
     61 C61        18.5234  -31.4109  -42.8868 C.3       10 UNK         0.0169 
     62 H62        15.4614  -23.0894  -46.5714 H         1 UNK         0.0903 
     63 H63        15.1261  -22.7510  -44.8723 H         1 UNK         0.0903 
     64 H64        16.7104  -22.3707  -45.5512 H         1 UNK         0.0903 
     65 H65        15.1875  -24.5899  -43.6011 H         1 UNK         0.3096 
     66 H66        16.3919  -27.0595  -44.5160 H         1 UNK         0.1121 
     67 H67        15.4549  -27.8815  -42.2114 H         1 UNK         0.0849 
     68 H68        14.7435  -26.3022  -42.0569 H         1 UNK         0.0849 
     69 H69        13.7810  -29.7944  -42.9564 H         1 UNK         0.0865 
     70 H70        13.2925  -29.7976  -44.6293 H         1 UNK         0.0865 
     71 H71        15.9867  -30.5135  -42.4472 H         1 UNK         0.1346 
     72 H72        18.9611  -30.8050  -45.5050 H         1 UNK         0.1412 
     73 H73        15.1667  -29.0089  -46.3795 H         1 UNK         0.1426 
     74 H74        16.7164  -29.4309  -48.1660 H         1 UNK         0.0716 
     75 H75        18.1001  -30.4584  -47.9214 H         1 UNK         0.0716 
     76 H76        20.8007  -28.9447  -48.3068 H         1 UNK         0.0695 
     77 H77        20.2202  -29.8129  -46.9249 H         1 UNK         0.0695 
     78 H78        21.4715  -27.0338  -46.9929 H         1 UNK         0.0983 
     79 H79        19.5587  -27.7673  -45.1170 H         1 UNK         0.3095 
     80 H80        20.1804  -26.7396  -42.3936 H         1 UNK         0.0454 
     81 H81        21.4000  -24.5575  -42.4040 H         1 UNK         0.0851 
     82 H82        19.7194  -24.3194  -41.9686 H         1 UNK         0.0851 
     83 H83        20.2752  -23.9169  -43.5924 H         1 UNK         0.0851 
     84 H84        18.4846  -25.8750  -44.6594 H         1 UNK         0.2976 
     85 H85        21.7719  -29.3769  -44.3954 H         1 UNK         0.3116 
     86 H86        24.6809  -29.6304  -44.9245 H         1 UNK         0.0646 
     87 H87        22.8020  -31.9646  -44.2628 H         1 UNK         0.0847 
     88 H88        24.5592  -32.0503  -44.2971 H         1 UNK         0.0847 
     89 H89        23.6696  -31.7356  -45.7775 H         1 UNK         0.0847 
     90 H90        23.5926  -27.7019  -43.3391 H         1 UNK         0.3040 
     91 H91        23.7253  -28.6202  -40.5417 H         1 UNK         0.1015 
     92 H92        23.3817  -26.1685  -40.0525 H         1 UNK         0.0786 
     93 H93        22.1085  -26.8280  -41.0558 H         1 UNK         0.0786 
     94 H94        23.3783  -25.8358  -41.7775 H         1 UNK         0.0786 
     95 H95        27.0887  -27.3649  -39.8800 H         1 UNK         0.3172 
     96 H96        24.4937  -27.8393  -38.5976 H         1 UNK         0.0595 
     97 H97        27.3387  -27.7099  -37.4874 H         1 UNK         0.0839 
     98 H98        25.8565  -27.7596  -36.5447 H         1 UNK         0.0839 
     99 H99        26.1963  -26.3672  -37.5554 H         1 UNK         0.0839 
    100 H100       26.7131  -29.7924  -40.2270 H         1 UNK         0.2998 
    101 H101       27.3110  -31.9108  -38.5809 H         1 UNK         0.0822 
    102 H102       28.3958  -31.5186  -40.7623 H         1 UNK         0.0787 
    103 H103       27.7552  -33.1520  -40.7209 H         1 UNK         0.0787 
    104 H104       26.9027  -31.9039  -41.6197 H         1 UNK         0.0787 
    105 H105       24.4547  -31.7136  -40.7503 H         1 UNK         0.3055 
    106 H106       23.2317  -34.0464  -39.2949 H         1 UNK         0.1106 
    107 H107       23.8003  -34.6358  -41.6427 H         1 UNK         0.0828 
    108 H108       22.0586  -34.5389  -41.4335 H         1 UNK         0.0828 
    109 H109       22.9176  -33.2307  -42.2338 H         1 UNK         0.0828 
    110 H110       22.5835  -30.9730  -41.0430 H         1 UNK         0.2931 
    111 H111       19.8537  -30.8922  -39.9617 H         1 UNK         0.0412 
    112 H112       22.6054  -30.0221  -38.3697 H         1 UNK         0.3472 
    113 H113       21.9896  -28.6029  -37.5623 H         1 UNK         0.3472 
    114 H114       19.4017  -29.1068  -41.5328 H         1 UNK         0.0970 
    115 H115       21.0966  -28.8933  -41.8754 H         1 UNK         0.0970 
    116 H116       18.5055  -32.4762  -43.1192 H         1 UNK         0.0612 
    117 H117       18.1640  -31.3156  -41.8611 H         1 UNK         0.0612 
@<TRIPOS>BOND
     1    1    2 1    
     2    1   62 1    
     3    1   63 1    
     4    1   64 1    
     5    2    3 2    
     6    2    4 am   BACKBONE|DICT|INTERRES
     7    4    5 1    
     8    4   65 1    
     9    5    6 1    
    10    5   25 1    
    11    5   66 1    
    12    6    7 1    
    13    6   67 1    
    14    6   68 1    
    15    7    8 1    
    16    8    9 1    
    17    8   69 1    
    18    8   70 1    
    19    9   10 ar   
    20    9   14 ar   
    21   10   11 ar   
    22   10   71 1    
    23   11   12 ar   
    24   11   61 1    
    25   12   13 ar   
    26   12   72 1    
    27   13   14 ar   
    28   13   15 1    
    29   14   73 1    
    30   15   16 1    
    31   15   74 1    
    32   15   75 1    
    33   16   17 1    
    34   17   18 1    
    35   17   76 1    
    36   17   77 1    
    37   18   19 1    
    38   18   27 1    
    39   18   78 1    
    40   19   20 am   BACKBONE|DICT|INTERRES
    41   19   79 1    
    42   20   21 2    
    43   20   22 1    
    44   22   23 1    
    45   22   24 1    
    46   22   80 1    
    47   23   81 1    
    48   23   82 1    
    49   23   83 1    
    50   24   25 am   BACKBONE|DICT|INTERRES
    51   24   84 1    
    52   25   26 2    
    53   27   28 2    
    54   27   29 am   BACKBONE|DICT|INTERRES
    55   29   30 1    
    56   29   85 1    
    57   30   31 1    
    58   30   32 1    
    59   30   86 1    
    60   31   87 1    
    61   31   88 1    
    62   31   89 1    
    63   32   33 2    
    64   32   34 am   BACKBONE|DICT|INTERRES
    65   34   35 1    
    66   34   90 1    
    67   35   36 1    
    68   35   37 1    
    69   35   91 1    
    70   36   92 1    
    71   36   93 1    
    72   36   94 1    
    73   37   38 2    
    74   37   39 am   BACKBONE|DICT|INTERRES
    75   39   40 1    
    76   39   95 1    
    77   40   41 1    
    78   40   42 1    
    79   40   96 1    
    80   41   97 1    
    81   41   98 1    
    82   41   99 1    
    83   42   43 2    
    84   42   44 am   BACKBONE|DICT|INTERRES
    85   44   45 1    
    86   44  100 1    
    87   45   46 1    
    88   45   47 1    
    89   45  101 1    
    90   46  102 1    
    91   46  103 1    
    92   46  104 1    
    93   47   48 2    
    94   47   49 am   BACKBONE|DICT|INTERRES
    95   49   50 1    
    96   49  105 1    
    97   50   51 1    
    98   50   52 1    
    99   50  106 1    
   100   51  107 1    
   101   51  108 1    
   102   51  109 1    
   103   52   53 2    
   104   52   54 am   BACKBONE|DICT|INTERRES
   105   54   55 1    
   106   54  110 1    
   107   55   56 1    
   108   55   59 1    
   109   55  111 1    
   110   56   57 am   BACKBONE|DICT|INTERRES
   111   56   58 2    
   112   57  112 1    
   113   57  113 1    
   114   59   60 1    
   115   59  114 1    
   116   59  115 1    
   117   60   61 1    
   118   61  116 1    
   119   61  117 1    
@<TRIPOS>SUBSTRUCTURE
     1 UNK         1 GROUP             0       ****    0 ROOT    
