@<TRIPOS>MOLECULE
3R8
117   119    1
SMALL
USER_CHARGES


@<TRIPOS>ATOM
      1 CA         16.8113  -23.3755  -48.2906 C.3       0 UNK        -0.2013 
      2 C          17.7810  -24.5112  -47.9988 C.2       0 UNK         0.4866 
      3 O          18.9410  -24.4451  -48.4077 O.2       0 UNK        -0.5176 
      4 N          17.3129  -25.5550  -47.3026 N.am      1 UNK        -0.4884 
      5 CA         18.1223  -26.6988  -46.8658 C.3       1 UNK         0.0853 
      6 C6         17.2394  -27.9570  -46.6654 C.3       10 UNK        -0.0849 
      7 S7         18.1365  -29.4971  -47.0650 S.3       10 UNK        -0.2776 
      8 C8         17.3856  -30.6878  -45.9099 C.3       10 UNK         0.0316 
      9 C9         17.8286  -30.4273  -44.4797 C.ar      10 UNK        -0.0863 
     10 C10        19.0946  -30.8335  -44.0529 C.ar      10 UNK        -0.1009 
     11 C11        19.5214  -30.5684  -42.7491 C.ar      10 UNK        -0.0712 
     12 C12        18.6728  -29.8848  -41.8715 C.ar      10 UNK        -0.0894 
     13 C13        17.4089  -29.4594  -42.2935 C.ar      10 UNK        -0.0745 
     14 C14        16.9846  -29.7587  -43.5906 C.ar      10 UNK        -0.0972 
     15 C15        16.4962  -28.6617  -41.3717 C.3       10 UNK         0.0209 
     16 S16        16.1930  -26.9838  -42.0266 S.3       10 UNK        -0.2568 
     17 C17        17.3507  -25.9230  -41.0940 C.3       10 UNK        -0.0983 
     18 CA         18.8360  -26.3572  -41.1305 C.3       3 UNK         0.0876 
     19 N          19.3561  -26.5037  -42.4929 N.am      3 UNK        -0.4424 
     20 C          20.5509  -27.0212  -42.8022 C.2       2 UNK         0.4918 
     21 O          21.3117  -27.4965  -41.9536 O.2       2 UNK        -0.4875 
     22 CA         20.9937  -26.9818  -44.2837 C.3       2 UNK         0.0481 
     23 CB         22.1424  -27.9681  -44.5692 C.3       2 UNK        -0.1831 
     24 N          19.9354  -27.1978  -45.2814 N.am      2 UNK        -0.4498 
     25 C          18.9607  -26.3411  -45.6148 C.2       1 UNK         0.5027 
     26 O          18.7244  -25.3066  -44.9840 O.2       1 UNK        -0.4969 
     27 C          19.7081  -25.3722  -40.3264 C.2       3 UNK         0.5005 
     28 O          20.2097  -24.3973  -40.8925 O.2       3 UNK        -0.5279 
     29 N          19.9128  -25.6708  -39.0354 N.am      4 UNK        -0.4463 
     30 CA         20.8095  -25.0048  -38.0750 C.3       4 UNK         0.0283 
     31 CB         20.4647  -23.5129  -37.8956 C.3       4 UNK        -0.1875 
     32 C          22.3115  -25.2014  -38.3657 C.2       4 UNK         0.4949 
     33 O          23.0874  -25.3169  -37.4170 O.2       4 UNK        -0.5039 
     34 N          22.6983  -25.2683  -39.6474 N.am      5 UNK        -0.4663 
     35 CA         24.0478  -25.6090  -40.1053 C.3       5 UNK         0.0242 
     36 CB         24.1772  -25.3113  -41.6082 C.3       5 UNK        -0.1982 
     37 C          24.4155  -27.0714  -39.8010 C.2       5 UNK         0.5017 
     38 O          25.5487  -27.3284  -39.3938 O.2       5 UNK        -0.5012 
     39 N          23.4427  -27.9826  -39.9751 N.am      6 UNK        -0.4439 
     40 CA         23.5010  -29.4153  -39.6549 C.3       6 UNK         0.0297 
     41 CB         23.5745  -29.6269  -38.1279 C.3       6 UNK        -0.2006 
     42 C          24.6179  -30.1517  -40.4213 C.2       6 UNK         0.4892 
     43 O          25.4177  -30.8680  -39.8165 O.2       6 UNK        -0.5089 
     44 N          24.6661  -29.9223  -41.7420 N.am      7 UNK        -0.4243 
     45 CA         25.7293  -30.3783  -42.6450 C.3       7 UNK         0.0196 
     46 CB         25.4956  -29.7778  -44.0411 C.3       7 UNK        -0.2007 
     47 C          25.8934  -31.9067  -42.7387 C.2       7 UNK         0.5020 
     48 O          27.0241  -32.3816  -42.8482 O.2       7 UNK        -0.5147 
     49 N          24.7749  -32.6396  -42.6919 N.am      8 UNK        -0.4734 
     50 CA         24.7023  -34.1045  -42.7207 C.3       8 UNK         0.0238 
     51 CB         25.2041  -34.6837  -44.0613 C.3       8 UNK        -0.1912 
     52 C          23.2612  -34.5471  -42.4530 C.2       8 UNK         0.5038 
     53 O          23.0318  -35.3896  -41.5855 O.2       8 UNK        -0.5046 
     54 N          22.3251  -33.9354  -43.1920 N.am      9 UNK        -0.4200 
     55 CA         20.8649  -34.1008  -43.0776 C.3       9 UNK         0.0839 
     56 C          20.3217  -35.4774  -43.5672 C.2       9 UNK         0.5513 
     57 N          21.0932  -36.2688  -44.3028 N.am      9 UNK        -0.7519 
     58 O          19.1728  -35.8238  -43.3042 O.2       9 UNK        -0.4960 
     59 C59        20.2956  -33.7016  -41.6816 C.3       10 UNK        -0.0876 
     60 S60        20.9407  -32.1558  -40.9425 S.3       10 UNK        -0.2414 
     61 C61        20.9252  -30.9574  -42.3133 C.3       10 UNK         0.0169 
     62 H62        15.8185  -23.5718  -47.8860 H         1 UNK         0.0903 
     63 H63        17.1783  -22.4479  -47.8522 H         1 UNK         0.0903 
     64 H64        16.7160  -23.2301  -49.3663 H         1 UNK         0.0903 
     65 H65        16.3634  -25.5326  -46.9584 H         1 UNK         0.3096 
     66 H66        18.8336  -26.9056  -47.6695 H         1 UNK         0.1121 
     67 H67        16.8214  -27.9870  -45.6591 H         1 UNK         0.0849 
     68 H68        16.3794  -27.9275  -47.3368 H         1 UNK         0.0849 
     69 H69        16.2985  -30.6483  -45.9969 H         1 UNK         0.0865 
     70 H70        17.6773  -31.6978  -46.2018 H         1 UNK         0.0865 
     71 H71        19.7534  -31.3343  -44.7486 H         1 UNK         0.1346 
     72 H72        19.0136  -29.6676  -40.8691 H         1 UNK         0.1412 
     73 H73        16.0051  -29.4355  -43.9163 H         1 UNK         0.1426 
     74 H74        16.8956  -28.6074  -40.3581 H         1 UNK         0.0716 
     75 H75        15.5405  -29.1816  -41.2932 H         1 UNK         0.0716 
     76 H76        16.9958  -25.8799  -40.0624 H         1 UNK         0.0695 
     77 H77        17.2472  -24.9103  -41.4890 H         1 UNK         0.0695 
     78 H78        18.9235  -27.3310  -40.6498 H         1 UNK         0.0983 
     79 H79        18.8237  -26.0661  -43.2375 H         1 UNK         0.3095 
     80 H80        21.3871  -25.9765  -44.4457 H         1 UNK         0.0454 
     81 H81        21.8297  -29.0015  -44.4191 H         1 UNK         0.0851 
     82 H82        22.9952  -27.7834  -43.9154 H         1 UNK         0.0851 
     83 H83        22.5041  -27.8724  -45.5929 H         1 UNK         0.0851 
     84 H84        19.9923  -28.0621  -45.8027 H         1 UNK         0.2976 
     85 H85        19.4655  -26.5023  -38.6731 H         1 UNK         0.3116 
     86 H86        20.6181  -25.4948  -37.1189 H         1 UNK         0.0646 
     87 H87        20.6826  -22.9289  -38.7900 H         1 UNK         0.0847 
     88 H88        21.0457  -23.0781  -37.0814 H         1 UNK         0.0847 
     89 H89        19.4116  -23.3744  -37.6516 H         1 UNK         0.0847 
     90 H90        21.9905  -25.1023  -40.3559 H         1 UNK         0.3040 
     91 H91        24.7554  -24.9729  -39.5685 H         1 UNK         0.1015 
     92 H92        23.9923  -24.2580  -41.8200 H         1 UNK         0.0786 
     93 H93        23.4779  -25.8990  -42.2023 H         1 UNK         0.0786 
     94 H94        25.1818  -25.5417  -41.9656 H         1 UNK         0.0786 
     95 H95        22.5788  -27.6654  -40.4068 H         1 UNK         0.3172 
     96 H96        22.5570  -29.8416  -39.9896 H         1 UNK         0.0595 
     97 H97        24.5108  -29.2546  -37.7107 H         1 UNK         0.0839 
     98 H98        23.5053  -30.6862  -37.8777 H         1 UNK         0.0839 
     99 H99        22.7557  -29.1197  -37.6176 H         1 UNK         0.0839 
    100 H100       23.9762  -29.2989  -42.1345 H         1 UNK         0.2998 
    101 H101       26.6696  -29.9791  -42.2586 H         1 UNK         0.0822 
    102 H102       26.2825  -30.0815  -44.7331 H         1 UNK         0.0787 
    103 H103       24.5452  -30.1015  -44.4675 H         1 UNK         0.0787 
    104 H104       25.4985  -28.6880  -44.0111 H         1 UNK         0.0787 
    105 H105       23.9025  -32.1588  -42.5216 H         1 UNK         0.3055 
    106 H106       25.3252  -34.4938  -41.9122 H         1 UNK         0.1106 
    107 H107       25.0416  -35.7615  -44.1065 H         1 UNK         0.0828 
    108 H108       26.2735  -34.5226  -44.1952 H         1 UNK         0.0828 
    109 H109       24.6924  -34.2390  -44.9152 H         1 UNK         0.0828 
    110 H110       22.6317  -33.3152  -43.9265 H         1 UNK         0.2931 
    111 H111       20.4527  -33.3968  -43.7985 H         1 UNK         0.0412 
    112 H112       22.0343  -35.9955  -44.5350 H         1 UNK         0.3472 
    113 H113       20.7299  -37.1528  -44.6236 H         1 UNK         0.3472 
    114 H114       19.2100  -33.6049  -41.7408 H         1 UNK         0.0970 
    115 H115       20.4813  -34.5021  -40.9634 H         1 UNK         0.0970 
    116 H116       21.4412  -30.0584  -41.9840 H         1 UNK         0.0612 
    117 H117       21.5091  -31.3334  -43.1522 H         1 UNK         0.0612 
@<TRIPOS>BOND
     1    1    2 1    
     2    1   62 1    
     3    1   63 1    
     4    1   64 1    
     5    2    3 2    
     6    2    4 am   BACKBONE|DICT|INTERRES
     7    4    5 1    
     8    4   65 1    
     9    5    6 1    
    10    5   25 1    
    11    5   66 1    
    12    6    7 1    
    13    6   67 1    
    14    6   68 1    
    15    7    8 1    
    16    8    9 1    
    17    8   69 1    
    18    8   70 1    
    19    9   10 ar   
    20    9   14 ar   
    21   10   11 ar   
    22   10   71 1    
    23   11   12 ar   
    24   11   61 1    
    25   12   13 ar   
    26   12   72 1    
    27   13   14 ar   
    28   13   15 1    
    29   14   73 1    
    30   15   16 1    
    31   15   74 1    
    32   15   75 1    
    33   16   17 1    
    34   17   18 1    
    35   17   76 1    
    36   17   77 1    
    37   18   19 1    
    38   18   27 1    
    39   18   78 1    
    40   19   20 am   BACKBONE|DICT|INTERRES
    41   19   79 1    
    42   20   21 2    
    43   20   22 1    
    44   22   23 1    
    45   22   24 1    
    46   22   80 1    
    47   23   81 1    
    48   23   82 1    
    49   23   83 1    
    50   24   25 am   BACKBONE|DICT|INTERRES
    51   24   84 1    
    52   25   26 2    
    53   27   28 2    
    54   27   29 am   BACKBONE|DICT|INTERRES
    55   29   30 1    
    56   29   85 1    
    57   30   31 1    
    58   30   32 1    
    59   30   86 1    
    60   31   87 1    
    61   31   88 1    
    62   31   89 1    
    63   32   33 2    
    64   32   34 am   BACKBONE|DICT|INTERRES
    65   34   35 1    
    66   34   90 1    
    67   35   36 1    
    68   35   37 1    
    69   35   91 1    
    70   36   92 1    
    71   36   93 1    
    72   36   94 1    
    73   37   38 2    
    74   37   39 am   BACKBONE|DICT|INTERRES
    75   39   40 1    
    76   39   95 1    
    77   40   41 1    
    78   40   42 1    
    79   40   96 1    
    80   41   97 1    
    81   41   98 1    
    82   41   99 1    
    83   42   43 2    
    84   42   44 am   BACKBONE|DICT|INTERRES
    85   44   45 1    
    86   44  100 1    
    87   45   46 1    
    88   45   47 1    
    89   45  101 1    
    90   46  102 1    
    91   46  103 1    
    92   46  104 1    
    93   47   48 2    
    94   47   49 am   BACKBONE|DICT|INTERRES
    95   49   50 1    
    96   49  105 1    
    97   50   51 1    
    98   50   52 1    
    99   50  106 1    
   100   51  107 1    
   101   51  108 1    
   102   51  109 1    
   103   52   53 2    
   104   52   54 am   BACKBONE|DICT|INTERRES
   105   54   55 1    
   106   54  110 1    
   107   55   56 1    
   108   55   59 1    
   109   55  111 1    
   110   56   57 am   BACKBONE|DICT|INTERRES
   111   56   58 2    
   112   57  112 1    
   113   57  113 1    
   114   59   60 1    
   115   59  114 1    
   116   59  115 1    
   117   60   61 1    
   118   61  116 1    
   119   61  117 1    
@<TRIPOS>SUBSTRUCTURE
     1 UNK         1 GROUP             0       ****    0 ROOT    
