@<TRIPOS>MOLECULE
3R8
117   119    1
SMALL
USER_CHARGES


@<TRIPOS>ATOM
      1 CA         22.1424  -24.4752  -39.8206 C.3       0 UNK        -0.2013 
      2 C          20.7793  -25.0931  -40.0946 C.2       0 UNK         0.4866 
      3 O          19.7732  -24.6180  -39.5666 O.2       0 UNK        -0.5176 
      4 N          20.7442  -26.1505  -40.9123 N.am      1 UNK        -0.4884 
      5 CA         19.5395  -26.8568  -41.3526 C.3       1 UNK         0.0853 
      6 C6         19.8814  -28.3393  -41.6513 C.3       10 UNK        -0.0849 
      7 S7         18.5559  -29.5147  -41.1919 S.3       10 UNK        -0.2776 
      8 C8         18.2104  -30.4478  -42.7259 C.3       10 UNK         0.0316 
      9 C9         19.4707  -30.7728  -43.5132 C.ar      10 UNK        -0.0863 
     10 C10        20.3959  -31.6960  -43.0216 C.ar      10 UNK        -0.1009 
     11 C11        21.5811  -31.9527  -43.7168 C.ar      10 UNK        -0.0712 
     12 C12        21.8495  -31.2575  -44.9006 C.ar      10 UNK        -0.0894 
     13 C13        20.9344  -30.3226  -45.3935 C.ar      10 UNK        -0.0745 
     14 C14        19.7368  -30.1040  -44.7104 C.ar      10 UNK        -0.0972 
     15 C15        21.2401  -29.5168  -46.6433 C.3       10 UNK         0.0209 
     16 S16        21.9700  -27.9064  -46.1976 S.3       10 UNK        -0.2568 
     17 C17        21.1606  -26.7732  -47.3827 C.3       10 UNK        -0.0983 
     18 CA         20.3343  -25.6402  -46.7134 C.3       3 UNK         0.0876 
     19 N          19.3555  -26.1693  -45.7538 N.am      3 UNK        -0.4424 
     20 C          18.1079  -25.7098  -45.5891 C.2       2 UNK         0.4918 
     21 O          17.6145  -24.8155  -46.2762 O.2       2 UNK        -0.4875 
     22 CA         17.2663  -26.3268  -44.4511 C.3       2 UNK         0.0481 
     23 CB         16.3613  -27.4408  -45.0009 C.3       2 UNK        -0.1831 
     24 N          18.0298  -26.8400  -43.3033 N.am      2 UNK        -0.4498 
     25 C          18.8851  -26.1304  -42.5528 C.2       1 UNK         0.5027 
     26 O          19.1680  -24.9560  -42.8005 O.2       1 UNK        -0.4969 
     27 C          21.2305  -24.5303  -46.1085 C.2       3 UNK         0.5005 
     28 O          22.1737  -24.0997  -46.7746 O.2       3 UNK        -0.5279 
     29 N          20.9369  -24.0825  -44.8750 N.am      4 UNK        -0.4463 
     30 CA         21.6875  -23.1038  -44.0731 C.3       4 UNK         0.0283 
     31 CB         21.7369  -21.7212  -44.7580 C.3       4 UNK        -0.1875 
     32 C          23.0762  -23.6122  -43.6359 C.2       4 UNK         0.4949 
     33 O          23.9810  -22.8114  -43.3966 O.2       4 UNK        -0.5039 
     34 N          23.2102  -24.9356  -43.5147 N.am      5 UNK        -0.4663 
     35 CA         24.3955  -25.6579  -43.0687 C.3       5 UNK         0.0242 
     36 CB         25.3377  -25.8866  -44.2648 C.3       5 UNK        -0.1982 
     37 C          23.9354  -26.9889  -42.4619 C.2       5 UNK         0.5017 
     38 O          22.7800  -27.3728  -42.6638 O.2       5 UNK        -0.5012 
     39 N          24.8410  -27.6587  -41.7346 N.am      6 UNK        -0.4439 
     40 CA         24.6581  -28.9663  -41.0857 C.3       6 UNK         0.0297 
     41 CB         24.5164  -30.0688  -42.1589 C.3       6 UNK        -0.2006 
     42 C          23.5116  -28.9863  -40.0488 C.2       6 UNK         0.4892 
     43 O          23.1064  -27.9287  -39.5612 O.2       6 UNK        -0.5089 
     44 N          23.0250  -30.1872  -39.7135 N.am      7 UNK        -0.4243 
     45 CA         21.8890  -30.4322  -38.8304 C.3       7 UNK         0.0196 
     46 CB         22.2795  -30.1991  -37.3581 C.3       7 UNK        -0.2007 
     47 C          21.4155  -31.8743  -39.0345 C.2       7 UNK         0.5020 
     48 O          22.2554  -32.7715  -39.1365 O.2       7 UNK        -0.5147 
     49 N          20.0897  -32.0665  -39.0413 N.am      8 UNK        -0.4734 
     50 CA         19.3272  -33.3261  -39.0199 C.3       8 UNK         0.0238 
     51 CB         19.5561  -34.0792  -37.6943 C.3       8 UNK        -0.1912 
     52 C          19.5176  -34.2717  -40.2215 C.2       8 UNK         0.5038 
     53 O          18.5239  -34.6615  -40.8346 O.2       8 UNK        -0.5046 
     54 N          20.7687  -34.6428  -40.5180 N.am      9 UNK        -0.4200 
     55 CA         21.1824  -35.6421  -41.5208 C.3       9 UNK         0.0839 
     56 C          20.7452  -37.1077  -41.2053 C.2       9 UNK         0.5513 
     57 N          20.3322  -37.4275  -39.9844 N.am      9 UNK        -0.7519 
     58 O          20.8193  -37.9832  -42.0639 O.2       9 UNK        -0.4960 
     59 C59        20.8730  -35.1912  -42.9858 C.3       10 UNK        -0.0876 
     60 S60        22.3649  -34.6140  -43.8624 S.3       10 UNK        -0.2414 
     61 C61        22.5917  -32.9480  -43.1687 C.3       10 UNK         0.0169 
     62 H62        22.2897  -24.3498  -38.7483 H         1 UNK         0.0903 
     63 H63        22.9526  -25.0983  -40.1982 H         1 UNK         0.0903 
     64 H64        22.2139  -23.4963  -40.2939 H         1 UNK         0.0903 
     65 H65        21.6063  -26.5064  -41.3145 H         1 UNK         0.3096 
     66 H66        18.8165  -26.8219  -40.5346 H         1 UNK         0.1121 
     67 H67        20.2160  -28.4550  -42.6808 H         1 UNK         0.0849 
     68 H68        20.7472  -28.6454  -41.0661 H         1 UNK         0.0849 
     69 H69        17.7016  -31.3769  -42.4641 H         1 UNK         0.0865 
     70 H70        17.5058  -29.8855  -43.3394 H         1 UNK         0.0865 
     71 H71        20.1991  -32.1990  -42.0867 H         1 UNK         0.1346 
     72 H72        22.7776  -31.4314  -45.4276 H         1 UNK         0.1412 
     73 H73        19.0346  -29.3772  -45.0919 H         1 UNK         0.1426 
     74 H74        20.3199  -29.3868  -47.2138 H         1 UNK         0.0716 
     75 H75        21.9303  -30.0572  -47.2927 H         1 UNK         0.0716 
     76 H76        20.5040  -27.3401  -48.0429 H         1 UNK         0.0695 
     77 H77        21.9277  -26.3637  -48.0424 H         1 UNK         0.0695 
     78 H78        19.7913  -25.1434  -47.5205 H         1 UNK         0.0983 
     79 H79        19.6924  -26.9043  -45.1496 H         1 UNK         0.3095 
     80 H80        16.6221  -25.5326  -44.0684 H         1 UNK         0.0454 
     81 H81        16.9374  -28.2774  -45.3958 H         1 UNK         0.0851 
     82 H82        15.7368  -27.0678  -45.8141 H         1 UNK         0.0851 
     83 H83        15.6892  -27.8250  -44.2335 H         1 UNK         0.0851 
     84 H84        17.8394  -27.7902  -43.0185 H         1 UNK         0.2976 
     85 H85        20.1430  -24.4911  -44.3883 H         1 UNK         0.3116 
     86 H86        21.1178  -22.9839  -43.1504 H         1 UNK         0.0646 
     87 H87        22.3706  -21.7279  -45.6450 H         1 UNK         0.0847 
     88 H88        22.1394  -20.9660  -44.0818 H         1 UNK         0.0847 
     89 H89        20.7426  -21.3894  -45.0563 H         1 UNK         0.0847 
     90 H90        22.4128  -25.5339  -43.6925 H         1 UNK         0.3040 
     91 H91        24.9046  -25.0791  -42.2947 H         1 UNK         0.1015 
     92 H92        24.8527  -26.4706  -45.0486 H         1 UNK         0.0786 
     93 H93        26.2376  -26.4243  -43.9642 H         1 UNK         0.0786 
     94 H94        25.6579  -24.9416  -44.7039 H         1 UNK         0.0786 
     95 H95        25.7469  -27.2331  -41.5955 H         1 UNK         0.3172 
     96 H96        25.5762  -29.1577  -40.5286 H         1 UNK         0.0595 
     97 H97        23.5510  -30.0135  -42.6642 H         1 UNK         0.0839 
     98 H98        24.6119  -31.0649  -41.7268 H         1 UNK         0.0839 
     99 H99        25.2915  -29.9823  -42.9204 H         1 UNK         0.0839 
    100 H100       23.4138  -31.0218  -40.1326 H         1 UNK         0.2998 
    101 H101       21.0797  -29.7496  -39.0943 H         1 UNK         0.0822 
    102 H102       22.5634  -29.1625  -37.1769 H         1 UNK         0.0787 
    103 H103       21.4453  -30.4244  -36.6924 H         1 UNK         0.0787 
    104 H104       23.1161  -30.8325  -37.0601 H         1 UNK         0.0787 
    105 H105       19.5105  -31.2376  -39.0075 H         1 UNK         0.3055 
    106 H106       18.2774  -33.0269  -39.0397 H         1 UNK         0.1106 
    107 H107       18.9402  -34.9782  -37.6429 H         1 UNK         0.0828 
    108 H108       20.5947  -34.3882  -37.5718 H         1 UNK         0.0828 
    109 H109       19.2909  -33.4595  -36.8377 H         1 UNK         0.0828 
    110 H110       21.5143  -34.2164  -39.9719 H         1 UNK         0.2931 
    111 H111       22.2654  -35.6914  -41.4032 H         1 UNK         0.0412 
    112 H112       20.0668  -38.3799  -39.7870 H         1 UNK         0.3472 
    113 H113       20.2901  -36.7303  -39.2593 H         1 UNK         0.3472 
    114 H114       20.1049  -34.4203  -43.0242 H         1 UNK         0.0970 
    115 H115       20.4610  -36.0037  -43.5859 H         1 UNK         0.0970 
    116 H116       22.5403  -32.9886  -42.0800 H         1 UNK         0.0612 
    117 H117       23.6009  -32.6139  -43.4120 H         1 UNK         0.0612 
@<TRIPOS>BOND
     1    1    2 1    
     2    1   62 1    
     3    1   63 1    
     4    1   64 1    
     5    2    3 2    
     6    2    4 am   BACKBONE|DICT|INTERRES
     7    4    5 1    
     8    4   65 1    
     9    5    6 1    
    10    5   25 1    
    11    5   66 1    
    12    6    7 1    
    13    6   67 1    
    14    6   68 1    
    15    7    8 1    
    16    8    9 1    
    17    8   69 1    
    18    8   70 1    
    19    9   10 ar   
    20    9   14 ar   
    21   10   11 ar   
    22   10   71 1    
    23   11   12 ar   
    24   11   61 1    
    25   12   13 ar   
    26   12   72 1    
    27   13   14 ar   
    28   13   15 1    
    29   14   73 1    
    30   15   16 1    
    31   15   74 1    
    32   15   75 1    
    33   16   17 1    
    34   17   18 1    
    35   17   76 1    
    36   17   77 1    
    37   18   19 1    
    38   18   27 1    
    39   18   78 1    
    40   19   20 am   BACKBONE|DICT|INTERRES
    41   19   79 1    
    42   20   21 2    
    43   20   22 1    
    44   22   23 1    
    45   22   24 1    
    46   22   80 1    
    47   23   81 1    
    48   23   82 1    
    49   23   83 1    
    50   24   25 am   BACKBONE|DICT|INTERRES
    51   24   84 1    
    52   25   26 2    
    53   27   28 2    
    54   27   29 am   BACKBONE|DICT|INTERRES
    55   29   30 1    
    56   29   85 1    
    57   30   31 1    
    58   30   32 1    
    59   30   86 1    
    60   31   87 1    
    61   31   88 1    
    62   31   89 1    
    63   32   33 2    
    64   32   34 am   BACKBONE|DICT|INTERRES
    65   34   35 1    
    66   34   90 1    
    67   35   36 1    
    68   35   37 1    
    69   35   91 1    
    70   36   92 1    
    71   36   93 1    
    72   36   94 1    
    73   37   38 2    
    74   37   39 am   BACKBONE|DICT|INTERRES
    75   39   40 1    
    76   39   95 1    
    77   40   41 1    
    78   40   42 1    
    79   40   96 1    
    80   41   97 1    
    81   41   98 1    
    82   41   99 1    
    83   42   43 2    
    84   42   44 am   BACKBONE|DICT|INTERRES
    85   44   45 1    
    86   44  100 1    
    87   45   46 1    
    88   45   47 1    
    89   45  101 1    
    90   46  102 1    
    91   46  103 1    
    92   46  104 1    
    93   47   48 2    
    94   47   49 am   BACKBONE|DICT|INTERRES
    95   49   50 1    
    96   49  105 1    
    97   50   51 1    
    98   50   52 1    
    99   50  106 1    
   100   51  107 1    
   101   51  108 1    
   102   51  109 1    
   103   52   53 2    
   104   52   54 am   BACKBONE|DICT|INTERRES
   105   54   55 1    
   106   54  110 1    
   107   55   56 1    
   108   55   59 1    
   109   55  111 1    
   110   56   57 am   BACKBONE|DICT|INTERRES
   111   56   58 2    
   112   57  112 1    
   113   57  113 1    
   114   59   60 1    
   115   59  114 1    
   116   59  115 1    
   117   60   61 1    
   118   61  116 1    
   119   61  117 1    
@<TRIPOS>SUBSTRUCTURE
     1 UNK         1 GROUP             0       ****    0 ROOT    
