@<TRIPOS>MOLECULE
3R8
117   119    1
SMALL
USER_CHARGES


@<TRIPOS>ATOM
      1 CA         14.3028  -23.5189  -45.2619 C.3       0 UNK        -0.2013 
      2 C          15.3241  -24.5904  -44.9127 C.2       0 UNK         0.4866 
      3 O          16.5268  -24.3525  -45.0286 O.2       0 UNK        -0.5176 
      4 N          14.8588  -25.7674  -44.4750 N.am      1 UNK        -0.4884 
      5 CA         15.6753  -26.9310  -44.1018 C.3       1 UNK         0.0853 
      6 C6         14.8694  -28.2494  -44.2248 C.3       10 UNK        -0.0849 
      7 S7         14.5393  -28.6366  -45.9778 S.3       10 UNK        -0.2776 
      8 C8         15.6898  -30.0185  -46.2933 C.3       10 UNK         0.0316 
      9 C9         17.1240  -29.7163  -45.8704 C.ar      10 UNK        -0.0863 
     10 C10        17.7072  -30.4304  -44.8193 C.ar      10 UNK        -0.1009 
     11 C11        19.0268  -30.1802  -44.4337 C.ar      10 UNK        -0.0712 
     12 C12        19.7673  -29.2041  -45.1062 C.ar      10 UNK        -0.0894 
     13 C13        19.1933  -28.4732  -46.1524 C.ar      10 UNK        -0.0745 
     14 C14        17.8733  -28.7392  -46.5337 C.ar      10 UNK        -0.0972 
     15 C15        20.0001  -27.4175  -46.8963 C.3       10 UNK         0.0209 
     16 S16        19.9250  -25.7920  -46.0759 S.3       10 UNK        -0.2568 
     17 C17        21.3563  -25.8883  -44.9481 C.3       10 UNK        -0.0983 
     18 CA         21.1597  -25.1127  -43.6200 C.3       3 UNK         0.0876 
     19 N          19.9247  -25.5094  -42.9324 N.am      3 UNK        -0.4424 
     20 C          19.3524  -24.8452  -41.9181 C.2       2 UNK         0.4918 
     21 O          19.8430  -23.8461  -41.3913 O.2       2 UNK        -0.4875 
     22 CA         17.9922  -25.3833  -41.4457 C.3       2 UNK         0.0481 
     23 CB         17.2207  -24.3931  -40.5526 C.3       2 UNK        -0.1831 
     24 N          17.1874  -25.7326  -42.6131 N.am      2 UNK        -0.4498 
     25 C          16.3224  -26.7456  -42.7128 C.2       1 UNK         0.5027 
     26 O          16.0333  -27.4951  -41.7781 O.2       1 UNK        -0.4969 
     27 C          22.4241  -25.2747  -42.7489 C.2       3 UNK         0.5005 
     28 O          23.4436  -24.6561  -43.0542 O.2       3 UNK        -0.5279 
     29 N          22.3535  -26.1508  -41.7327 N.am      4 UNK        -0.4463 
     30 CA         23.4295  -26.6097  -40.8378 C.3       4 UNK         0.0283 
     31 CB         24.1150  -25.4369  -40.1081 C.3       4 UNK        -0.1875 
     32 C          24.4593  -27.5467  -41.5034 C.2       4 UNK         0.4949 
     33 O          25.3019  -28.1018  -40.7965 O.2       4 UNK        -0.5039 
     34 N          24.3515  -27.7553  -42.8229 N.am      5 UNK        -0.4663 
     35 CA         25.1795  -28.6521  -43.6317 C.3       5 UNK         0.0242 
     36 CB         24.7234  -28.5593  -45.0970 C.3       5 UNK        -0.1982 
     37 C          25.1127  -30.1086  -43.1447 C.2       5 UNK         0.5017 
     38 O          24.0323  -30.5739  -42.7750 O.2       5 UNK        -0.5012 
     39 N          26.2694  -30.7876  -43.1465 N.am      6 UNK        -0.4439 
     40 CA         26.4790  -32.1646  -42.6753 C.3       6 UNK         0.0297 
     41 CB         25.8053  -33.1708  -43.6338 C.3       6 UNK        -0.2006 
     42 C          26.0631  -32.3701  -41.2024 C.2       6 UNK         0.4892 
     43 O          25.4921  -33.4090  -40.8701 O.2       6 UNK        -0.5089 
     44 N          26.3370  -31.3569  -40.3626 N.am      7 UNK        -0.4243 
     45 CA         25.9207  -31.2283  -38.9591 C.3       7 UNK         0.0196 
     46 CB         26.6153  -32.2847  -38.0730 C.3       7 UNK        -0.2007 
     47 C          24.3859  -31.2351  -38.8251 C.2       7 UNK         0.5020 
     48 O          23.8282  -32.0477  -38.0858 O.2       7 UNK        -0.5147 
     49 N          23.7376  -30.3488  -39.5959 N.am      8 UNK        -0.4734 
     50 CA         22.2835  -30.2069  -39.7666 C.3       8 UNK         0.0238 
     51 CB         21.6462  -29.6097  -38.4944 C.3       8 UNK        -0.1912 
     52 C          21.6075  -31.5153  -40.2224 C.2       8 UNK         0.5038 
     53 O          20.5554  -31.8837  -39.6970 O.2       8 UNK        -0.5046 
     54 N          22.2495  -32.1961  -41.1803 N.am      9 UNK        -0.4200 
     55 CA         21.8959  -33.5255  -41.7027 C.3       9 UNK         0.0839 
     56 C          21.9969  -34.6881  -40.6648 C.2       9 UNK         0.5513 
     57 N          22.5988  -34.5026  -39.4958 N.am      9 UNK        -0.7519 
     58 O          21.5439  -35.7980  -40.9346 O.2       9 UNK        -0.4960 
     59 C59        20.5434  -33.5326  -42.4725 C.3       10 UNK        -0.0876 
     60 S60        20.5345  -32.4317  -43.9298 S.3       10 UNK        -0.2414 
     61 C61        19.6483  -30.9748  -43.2960 C.3       10 UNK         0.0169 
     62 H62        14.4140  -23.2218  -46.3044 H         1 UNK         0.0903 
     63 H63        13.2802  -23.8661  -45.1156 H         1 UNK         0.0903 
     64 H64        14.4553  -22.6384  -44.6384 H         1 UNK         0.0903 
     65 H65        13.8608  -25.8981  -44.3880 H         1 UNK         0.3096 
     66 H66        16.5115  -26.9935  -44.8018 H         1 UNK         0.1121 
     67 H67        13.9209  -28.1755  -43.6900 H         1 UNK         0.0849 
     68 H68        15.4006  -29.0871  -43.7701 H         1 UNK         0.0849 
     69 H69        15.3162  -30.9073  -45.7822 H         1 UNK         0.0865 
     70 H70        15.6738  -30.2547  -47.3582 H         1 UNK         0.0865 
     71 H71        17.1375  -31.1915  -44.3034 H         1 UNK         0.1346 
     72 H72        20.7943  -29.0297  -44.8194 H         1 UNK         0.1412 
     73 H73        17.4243  -28.1835  -47.3461 H         1 UNK         0.1426 
     74 H74        19.6153  -27.3079  -47.9114 H         1 UNK         0.0716 
     75 H75        21.0378  -27.7369  -47.0048 H         1 UNK         0.0716 
     76 H76        22.2215  -25.4995  -45.4892 H         1 UNK         0.0695 
     77 H77        21.5792  -26.9349  -44.7420 H         1 UNK         0.0695 
     78 H78        21.0739  -24.0498  -43.8576 H         1 UNK         0.0983 
     79 H79        19.4342  -26.2982  -43.3282 H         1 UNK         0.3095 
     80 H80        18.1994  -26.2846  -40.8653 H         1 UNK         0.0454 
     81 H81        16.2737  -24.8163  -40.2175 H         1 UNK         0.0851 
     82 H82        17.0045  -23.4629  -41.0791 H         1 UNK         0.0851 
     83 H83        17.7942  -24.1401  -39.6601 H         1 UNK         0.0851 
     84 H84        17.3027  -25.1404  -43.4339 H         1 UNK         0.2976 
     85 H85        21.4593  -26.5991  -41.5899 H         1 UNK         0.3116 
     86 H86        22.9337  -27.2088  -40.0740 H         1 UNK         0.0646 
     87 H87        24.7159  -24.8281  -40.7839 H         1 UNK         0.0847 
     88 H88        24.7844  -25.8034  -39.3289 H         1 UNK         0.0847 
     89 H89        23.3849  -24.7861  -39.6271 H         1 UNK         0.0847 
     90 H90        23.6259  -27.2558  -43.3116 H         1 UNK         0.3040 
     91 H91        26.2103  -28.2991  -43.5590 H         1 UNK         0.1015 
     92 H92        23.6888  -28.8841  -45.2181 H         1 UNK         0.0786 
     93 H93        25.3392  -29.1907  -45.7391 H         1 UNK         0.0786 
     94 H94        24.8026  -27.5400  -45.4758 H         1 UNK         0.0786 
     95 H95        27.1003  -30.3117  -43.4721 H         1 UNK         0.3172 
     96 H96        27.5544  -32.3442  -42.7123 H         1 UNK         0.0595 
     97 H97        24.7196  -33.0721  -43.6278 H         1 UNK         0.0839 
     98 H98        26.0398  -34.1985  -43.3532 H         1 UNK         0.0839 
     99 H99        26.1473  -33.0315  -44.6591 H         1 UNK         0.0839 
    100 H100       26.7869  -30.5405  -40.7540 H         1 UNK         0.2998 
    101 H101       26.2546  -30.2449  -38.6236 H         1 UNK         0.0822 
    102 H102       27.6994  -32.2362  -38.1742 H         1 UNK         0.0787 
    103 H103       26.3800  -32.1235  -37.0203 H         1 UNK         0.0787 
    104 H104       26.3001  -33.2984  -38.3226 H         1 UNK         0.0787 
    105 H105       24.3087  -29.7371  -40.1715 H         1 UNK         0.3055 
    106 H106       22.1310  -29.4997  -40.5828 H         1 UNK         0.1106 
    107 H107       20.5894  -29.3906  -38.6519 H         1 UNK         0.0828 
    108 H108       21.7130  -30.2970  -37.6504 H         1 UNK         0.0828 
    109 H109       22.1304  -28.6775  -38.2043 H         1 UNK         0.0828 
    110 H110       23.0772  -31.7738  -41.5912 H         1 UNK         0.2931 
    111 H111       22.6769  -33.7517  -42.4289 H         1 UNK         0.0412 
    112 H112       22.6638  -35.2718  -38.8489 H         1 UNK         0.3472 
    113 H113       23.0010  -33.6052  -39.2515 H         1 UNK         0.3472 
    114 H114       20.3297  -34.5344  -42.8491 H         1 UNK         0.0970 
    115 H115       19.7146  -33.2913  -41.8059 H         1 UNK         0.0970 
    116 H116       18.8708  -31.2828  -42.5953 H         1 UNK         0.0612 
    117 H117       20.3419  -30.3482  -42.7339 H         1 UNK         0.0612 
@<TRIPOS>BOND
     1    1    2 1    
     2    1   62 1    
     3    1   63 1    
     4    1   64 1    
     5    2    3 2    
     6    2    4 am   BACKBONE|DICT|INTERRES
     7    4    5 1    
     8    4   65 1    
     9    5    6 1    
    10    5   25 1    
    11    5   66 1    
    12    6    7 1    
    13    6   67 1    
    14    6   68 1    
    15    7    8 1    
    16    8    9 1    
    17    8   69 1    
    18    8   70 1    
    19    9   10 ar   
    20    9   14 ar   
    21   10   11 ar   
    22   10   71 1    
    23   11   12 ar   
    24   11   61 1    
    25   12   13 ar   
    26   12   72 1    
    27   13   14 ar   
    28   13   15 1    
    29   14   73 1    
    30   15   16 1    
    31   15   74 1    
    32   15   75 1    
    33   16   17 1    
    34   17   18 1    
    35   17   76 1    
    36   17   77 1    
    37   18   19 1    
    38   18   27 1    
    39   18   78 1    
    40   19   20 am   BACKBONE|DICT|INTERRES
    41   19   79 1    
    42   20   21 2    
    43   20   22 1    
    44   22   23 1    
    45   22   24 1    
    46   22   80 1    
    47   23   81 1    
    48   23   82 1    
    49   23   83 1    
    50   24   25 am   BACKBONE|DICT|INTERRES
    51   24   84 1    
    52   25   26 2    
    53   27   28 2    
    54   27   29 am   BACKBONE|DICT|INTERRES
    55   29   30 1    
    56   29   85 1    
    57   30   31 1    
    58   30   32 1    
    59   30   86 1    
    60   31   87 1    
    61   31   88 1    
    62   31   89 1    
    63   32   33 2    
    64   32   34 am   BACKBONE|DICT|INTERRES
    65   34   35 1    
    66   34   90 1    
    67   35   36 1    
    68   35   37 1    
    69   35   91 1    
    70   36   92 1    
    71   36   93 1    
    72   36   94 1    
    73   37   38 2    
    74   37   39 am   BACKBONE|DICT|INTERRES
    75   39   40 1    
    76   39   95 1    
    77   40   41 1    
    78   40   42 1    
    79   40   96 1    
    80   41   97 1    
    81   41   98 1    
    82   41   99 1    
    83   42   43 2    
    84   42   44 am   BACKBONE|DICT|INTERRES
    85   44   45 1    
    86   44  100 1    
    87   45   46 1    
    88   45   47 1    
    89   45  101 1    
    90   46  102 1    
    91   46  103 1    
    92   46  104 1    
    93   47   48 2    
    94   47   49 am   BACKBONE|DICT|INTERRES
    95   49   50 1    
    96   49  105 1    
    97   50   51 1    
    98   50   52 1    
    99   50  106 1    
   100   51  107 1    
   101   51  108 1    
   102   51  109 1    
   103   52   53 2    
   104   52   54 am   BACKBONE|DICT|INTERRES
   105   54   55 1    
   106   54  110 1    
   107   55   56 1    
   108   55   59 1    
   109   55  111 1    
   110   56   57 am   BACKBONE|DICT|INTERRES
   111   56   58 2    
   112   57  112 1    
   113   57  113 1    
   114   59   60 1    
   115   59  114 1    
   116   59  115 1    
   117   60   61 1    
   118   61  116 1    
   119   61  117 1    
@<TRIPOS>SUBSTRUCTURE
     1 UNK         1 GROUP             0       ****    0 ROOT    
