@<TRIPOS>MOLECULE
3R8
117   119    1
SMALL
USER_CHARGES


@<TRIPOS>ATOM
      1 CA         15.9025  -26.5081  -39.7148 C.3       0 UNK        -0.2013 
      2 C          16.1080  -25.9284  -41.1119 C.2       0 UNK         0.4866 
      3 O          16.0064  -24.7115  -41.2928 O.2       0 UNK        -0.5176 
      4 N          16.3874  -26.7914  -42.1018 N.am      1 UNK        -0.4884 
      5 CA         16.6806  -26.4123  -43.4920 C.3       1 UNK         0.0853 
      6 C6         16.6463  -27.6413  -44.4336 C.3       10 UNK        -0.0849 
      7 S7         14.9469  -28.2290  -44.7642 S.3       10 UNK        -0.2776 
      8 C8         15.0996  -30.0555  -44.7773 C.3       10 UNK         0.0316 
      9 C9         16.4407  -30.5599  -45.3010 C.ar      10 UNK        -0.0863 
     10 C10        17.2186  -31.4063  -44.5051 C.ar      10 UNK        -0.1009 
     11 C11        18.4893  -31.8061  -44.9252 C.ar      10 UNK        -0.0712 
     12 C12        18.9772  -31.3658  -46.1579 C.ar      10 UNK        -0.0894 
     13 C13        18.2151  -30.5094  -46.9575 C.ar      10 UNK        -0.0745 
     14 C14        16.9341  -30.1362  -46.5405 C.ar      10 UNK        -0.0972 
     15 C15        18.8051  -29.9366  -48.2379 C.3       10 UNK         0.0209 
     16 S16        19.3956  -28.2249  -48.0014 S.3       10 UNK        -0.2568 
     17 C17        20.6589  -28.4396  -46.6990 C.3       10 UNK        -0.0983 
     18 CA         21.3123  -27.1103  -46.2456 C.3       3 UNK         0.0876 
     19 N          20.3112  -26.1221  -45.8244 N.am      3 UNK        -0.4424 
     20 C          20.5588  -24.8646  -45.4284 C.2       2 UNK         0.4918 
     21 O          21.6772  -24.3499  -45.4453 O.2       2 UNK        -0.4875 
     22 CA         19.3647  -24.0312  -44.9192 C.3       2 UNK         0.0481 
     23 CB         18.9964  -22.9464  -45.9456 C.3       2 UNK        -0.1831 
     24 N          18.1602  -24.8066  -44.5937 N.am      2 UNK        -0.4498 
     25 C          18.0519  -25.7146  -43.6102 C.2       1 UNK         0.5027 
     26 O          18.9878  -26.0533  -42.8771 O.2       1 UNK        -0.4969 
     27 C          22.3527  -27.3931  -45.1392 C.2       3 UNK         0.5005 
     28 O          23.5384  -27.5374  -45.4449 O.2       3 UNK        -0.5279 
     29 N          21.8825  -27.4395  -43.8809 N.am      4 UNK        -0.4463 
     30 CA         22.6103  -27.6047  -42.6163 C.3       4 UNK         0.0283 
     31 CB         23.5470  -26.4096  -42.3534 C.3       4 UNK        -0.1875 
     32 C          23.3595  -28.9385  -42.4505 C.2       4 UNK         0.4949 
     33 O          23.1442  -29.6147  -41.4459 O.2       4 UNK        -0.5039 
     34 N          24.2453  -29.2710  -43.3996 N.am      5 UNK        -0.4663 
     35 CA         25.1403  -30.4379  -43.4257 C.3       5 UNK         0.0242 
     36 CB         24.3357  -31.7245  -43.6983 C.3       5 UNK        -0.1982 
     37 C          26.0128  -30.5385  -42.1581 C.2       5 UNK         0.5017 
     38 O          26.0372  -31.5820  -41.5052 O.2       5 UNK        -0.5012 
     39 N          26.6690  -29.4202  -41.8098 N.am      6 UNK        -0.4439 
     40 CA         27.4461  -29.2018  -40.5795 C.3       6 UNK         0.0297 
     41 CB         28.6951  -30.1096  -40.5368 C.3       6 UNK        -0.2006 
     42 C          26.5802  -29.3011  -39.3040 C.2       6 UNK         0.4892 
     43 O          27.0227  -29.8525  -38.2948 O.2       6 UNK        -0.5089 
     44 N          25.3571  -28.7553  -39.3929 N.am      7 UNK        -0.4243 
     45 CA         24.3016  -28.7214  -38.3713 C.3       7 UNK         0.0196 
     46 CB         24.7497  -27.9173  -37.1315 C.3       7 UNK        -0.2007 
     47 C          23.7287  -30.1093  -38.0140 C.2       7 UNK         0.5020 
     48 O          23.2065  -30.2863  -36.9118 O.2       7 UNK        -0.5147 
     49 N          23.8087  -31.0651  -38.9498 N.am      8 UNK        -0.4734 
     50 CA         23.1830  -32.3835  -38.8347 C.3       8 UNK         0.0238 
     51 CB         23.9426  -33.3930  -39.7099 C.3       8 UNK        -0.1912 
     52 C          21.6954  -32.3495  -39.2221 C.2       8 UNK         0.5038 
     53 O          20.9098  -33.0979  -38.6377 O.2       8 UNK        -0.5046 
     54 N          21.3355  -31.5002  -40.1943 N.am      9 UNK        -0.4200 
     55 CA         19.9545  -31.2983  -40.6539 C.3       9 UNK         0.0839 
     56 C          19.1390  -30.4337  -39.6567 C.2       9 UNK         0.5513 
     57 N          17.8483  -30.7067  -39.5121 N.am      9 UNK        -0.7519 
     58 O          19.6516  -29.4960  -39.0483 O.2       9 UNK        -0.4960 
     59 C59        19.9011  -30.6903  -42.0787 C.3       10 UNK        -0.0876 
     60 S60        20.7388  -31.7406  -43.3154 S.3       10 UNK        -0.2414 
     61 C61        19.3557  -32.6812  -44.0335 C.3       10 UNK         0.0169 
     62 H62        14.8937  -26.2857  -39.3592 H         1 UNK         0.0903 
     63 H63        16.0410  -27.5915  -39.6974 H         1 UNK         0.0903 
     64 H64        16.6140  -26.0674  -39.0157 H         1 UNK         0.0903 
     65 H65        16.4650  -27.7782  -41.8928 H         1 UNK         0.3096 
     66 H66        15.9134  -25.6977  -43.8124 H         1 UNK         0.1121 
     67 H67        17.0826  -27.4098  -45.4105 H         1 UNK         0.0849 
     68 H68        17.2610  -28.4420  -44.0113 H         1 UNK         0.0849 
     69 H69        14.9259  -30.4156  -43.7610 H         1 UNK         0.0865 
     70 H70        14.2982  -30.4744  -45.3888 H         1 UNK         0.0865 
     71 H71        16.8486  -31.7312  -43.5421 H         1 UNK         0.1346 
     72 H72        19.9728  -31.6516  -46.4692 H         1 UNK         0.1412 
     73 H73        16.3475  -29.4617  -47.1498 H         1 UNK         0.1426 
     74 H74        18.0502  -29.9469  -49.0254 H         1 UNK         0.0716 
     75 H75        19.6295  -30.5561  -48.5947 H         1 UNK         0.0716 
     76 H76        21.4174  -29.1310  -47.0721 H         1 UNK         0.0695 
     77 H77        20.1904  -28.9265  -45.8422 H         1 UNK         0.0695 
     78 H78        21.8502  -26.6832  -47.0947 H         1 UNK         0.0983 
     79 H79        19.3542  -26.4389  -45.8297 H         1 UNK         0.3095 
     80 H80        19.6911  -23.5346  -44.0029 H         1 UNK         0.0454 
     81 H81        19.8602  -22.3233  -46.1839 H         1 UNK         0.0851 
     82 H82        18.2199  -22.2832  -45.5633 H         1 UNK         0.0851 
     83 H83        18.6404  -23.3789  -46.8820 H         1 UNK         0.0851 
     84 H84        17.3448  -24.6089  -45.1596 H         1 UNK         0.2976 
     85 H85        20.8877  -27.2893  -43.7671 H         1 UNK         0.3116 
     86 H86        21.8422  -27.5845  -41.8406 H         1 UNK         0.0646 
     87 H87        24.3484  -26.3453  -43.0904 H         1 UNK         0.0847 
     88 H88        22.9983  -25.4677  -42.3783 H         1 UNK         0.0847 
     89 H89        24.0122  -26.4846  -41.3699 H         1 UNK         0.0847 
     90 H90        24.2892  -28.6490  -44.2063 H         1 UNK         0.3040 
     91 H91        25.8251  -30.2926  -44.2628 H         1 UNK         0.1015 
     92 H92        24.9979  -32.5817  -43.8260 H         1 UNK         0.0786 
     93 H93        23.7391  -31.6353  -44.6062 H         1 UNK         0.0786 
     94 H94        23.6597  -31.9562  -42.8754 H         1 UNK         0.0786 
     95 H95        26.5783  -28.6188  -42.4199 H         1 UNK         0.3172 
     96 H96        27.7974  -28.1695  -40.6229 H         1 UNK         0.0595 
     97 H97        28.4306  -31.1613  -40.4199 H         1 UNK         0.0839 
     98 H98        29.3403  -29.8450  -39.6981 H         1 UNK         0.0839 
     99 H99        29.2900  -30.0114  -41.4451 H         1 UNK         0.0839 
    100 H100       25.0914  -28.3769  -40.2901 H         1 UNK         0.2998 
    101 H101       23.4717  -28.1774  -38.8259 H         1 UNK         0.0822 
    102 H102       23.9149  -27.7518  -36.4489 H         1 UNK         0.0787 
    103 H103       25.1354  -26.9366  -37.4116 H         1 UNK         0.0787 
    104 H104       25.5270  -28.4373  -36.5707 H         1 UNK         0.0787 
    105 H105       24.2181  -30.8279  -39.8458 H         1 UNK         0.3055 
    106 H106       23.2489  -32.7192  -37.7968 H         1 UNK         0.1106 
    107 H107       24.9978  -33.4389  -39.4391 H         1 UNK         0.0828 
    108 H108       23.5318  -34.3969  -39.5931 H         1 UNK         0.0828 
    109 H109       23.8812  -33.1370  -40.7680 H         1 UNK         0.0828 
    110 H110       22.0361  -30.8896  -40.6072 H         1 UNK         0.2931 
    111 H111       19.4800  -32.2809  -40.7039 H         1 UNK         0.0412 
    112 H112       17.2994  -30.1528  -38.8731 H         1 UNK         0.3472 
    113 H113       17.4176  -31.4743  -40.0044 H         1 UNK         0.3472 
    114 H114       18.8687  -30.5224  -42.3881 H         1 UNK         0.0970 
    115 H115       20.3749  -29.7078  -42.0900 H         1 UNK         0.0970 
    116 H116       19.7598  -33.5054  -44.6230 H         1 UNK         0.0612 
    117 H117       18.7690  -33.1337  -43.2325 H         1 UNK         0.0612 
@<TRIPOS>BOND
     1    1    2 1    
     2    1   62 1    
     3    1   63 1    
     4    1   64 1    
     5    2    3 2    
     6    2    4 am   BACKBONE|DICT|INTERRES
     7    4    5 1    
     8    4   65 1    
     9    5    6 1    
    10    5   25 1    
    11    5   66 1    
    12    6    7 1    
    13    6   67 1    
    14    6   68 1    
    15    7    8 1    
    16    8    9 1    
    17    8   69 1    
    18    8   70 1    
    19    9   10 ar   
    20    9   14 ar   
    21   10   11 ar   
    22   10   71 1    
    23   11   12 ar   
    24   11   61 1    
    25   12   13 ar   
    26   12   72 1    
    27   13   14 ar   
    28   13   15 1    
    29   14   73 1    
    30   15   16 1    
    31   15   74 1    
    32   15   75 1    
    33   16   17 1    
    34   17   18 1    
    35   17   76 1    
    36   17   77 1    
    37   18   19 1    
    38   18   27 1    
    39   18   78 1    
    40   19   20 am   BACKBONE|DICT|INTERRES
    41   19   79 1    
    42   20   21 2    
    43   20   22 1    
    44   22   23 1    
    45   22   24 1    
    46   22   80 1    
    47   23   81 1    
    48   23   82 1    
    49   23   83 1    
    50   24   25 am   BACKBONE|DICT|INTERRES
    51   24   84 1    
    52   25   26 2    
    53   27   28 2    
    54   27   29 am   BACKBONE|DICT|INTERRES
    55   29   30 1    
    56   29   85 1    
    57   30   31 1    
    58   30   32 1    
    59   30   86 1    
    60   31   87 1    
    61   31   88 1    
    62   31   89 1    
    63   32   33 2    
    64   32   34 am   BACKBONE|DICT|INTERRES
    65   34   35 1    
    66   34   90 1    
    67   35   36 1    
    68   35   37 1    
    69   35   91 1    
    70   36   92 1    
    71   36   93 1    
    72   36   94 1    
    73   37   38 2    
    74   37   39 am   BACKBONE|DICT|INTERRES
    75   39   40 1    
    76   39   95 1    
    77   40   41 1    
    78   40   42 1    
    79   40   96 1    
    80   41   97 1    
    81   41   98 1    
    82   41   99 1    
    83   42   43 2    
    84   42   44 am   BACKBONE|DICT|INTERRES
    85   44   45 1    
    86   44  100 1    
    87   45   46 1    
    88   45   47 1    
    89   45  101 1    
    90   46  102 1    
    91   46  103 1    
    92   46  104 1    
    93   47   48 2    
    94   47   49 am   BACKBONE|DICT|INTERRES
    95   49   50 1    
    96   49  105 1    
    97   50   51 1    
    98   50   52 1    
    99   50  106 1    
   100   51  107 1    
   101   51  108 1    
   102   51  109 1    
   103   52   53 2    
   104   52   54 am   BACKBONE|DICT|INTERRES
   105   54   55 1    
   106   54  110 1    
   107   55   56 1    
   108   55   59 1    
   109   55  111 1    
   110   56   57 am   BACKBONE|DICT|INTERRES
   111   56   58 2    
   112   57  112 1    
   113   57  113 1    
   114   59   60 1    
   115   59  114 1    
   116   59  115 1    
   117   60   61 1    
   118   61  116 1    
   119   61  117 1    
@<TRIPOS>SUBSTRUCTURE
     1 UNK         1 GROUP             0       ****    0 ROOT    
