@<TRIPOS>MOLECULE
3R8
117   119    1
SMALL
USER_CHARGES


@<TRIPOS>ATOM
      1 CA         14.3696  -23.3796  -43.9774 C.3       0 UNK        -0.2013 
      2 C          15.5856  -24.1770  -44.4231 C.2       0 UNK         0.4866 
      3 O          15.8882  -24.2216  -45.6167 O.2       0 UNK        -0.5176 
      4 N          16.2918  -24.8084  -43.4766 N.am      1 UNK        -0.4884 
      5 CA         17.4907  -25.6181  -43.7156 C.3       1 UNK         0.0853 
      6 C6         17.7228  -26.6602  -42.5860 C.3       10 UNK        -0.0849 
      7 S7         16.3566  -27.8573  -42.3669 S.3       10 UNK        -0.2776 
      8 C8         16.2865  -28.7614  -43.9534 C.3       10 UNK         0.0316 
      9 C9         17.5057  -29.6426  -44.1964 C.ar      10 UNK        -0.0863 
     10 C10        17.4563  -31.0146  -43.9343 C.ar      10 UNK        -0.1009 
     11 C11        18.5656  -31.8282  -44.1890 C.ar      10 UNK        -0.0712 
     12 C12        19.7363  -31.2561  -44.7021 C.ar      10 UNK        -0.0894 
     13 C13        19.7978  -29.8861  -44.9797 C.ar      10 UNK        -0.0745 
     14 C14        18.6740  -29.0926  -44.7263 C.ar      10 UNK        -0.0972 
     15 C15        21.0907  -29.2668  -45.5071 C.3       10 UNK         0.0209 
     16 S16        20.8129  -27.9376  -46.7229 S.3       10 UNK        -0.2568 
     17 C17        22.4295  -27.0857  -46.7288 C.3       10 UNK        -0.0983 
     18 CA         22.5252  -25.8534  -45.7797 C.3       3 UNK         0.0876 
     19 N          21.3116  -25.0280  -45.8301 N.am      3 UNK        -0.4424 
     20 C          21.2300  -23.7115  -45.6016 C.2       2 UNK         0.4918 
     21 O          22.2073  -22.9910  -45.4024 O.2       2 UNK        -0.4875 
     22 CA         19.8146  -23.1047  -45.5297 C.3       2 UNK         0.0481 
     23 CB         19.4266  -22.4954  -46.8857 C.3       2 UNK        -0.1831 
     24 N          18.7636  -24.0403  -45.1023 N.am      2 UNK        -0.4498 
     25 C          18.7239  -24.7163  -43.9438 C.2       1 UNK         0.5027 
     26 O          19.6058  -24.6467  -43.0862 O.2       1 UNK        -0.4969 
     27 C          22.9605  -26.2183  -44.3352 C.2       3 UNK         0.5005 
     28 O          23.7849  -27.1183  -44.1625 O.2       3 UNK        -0.5279 
     29 N          22.4075  -25.5365  -43.3165 N.am      4 UNK        -0.4463 
     30 CA         22.7319  -25.6312  -41.8847 C.3       4 UNK         0.0283 
     31 CB         24.1485  -25.0823  -41.6145 C.3       4 UNK        -0.1875 
     32 C          22.5265  -27.0431  -41.3080 C.2       4 UNK         0.4949 
     33 O          23.3042  -27.4885  -40.4613 O.2       4 UNK        -0.5039 
     34 N          21.5114  -27.7464  -41.8344 N.am      5 UNK        -0.4663 
     35 CA         21.1709  -29.1498  -41.5611 C.3       5 UNK         0.0242 
     36 CB         20.6681  -29.2958  -40.1084 C.3       5 UNK        -0.1982 
     37 C          22.3153  -30.1366  -41.8835 C.2       5 UNK         0.5017 
     38 O          22.3337  -31.2388  -41.3359 O.2       5 UNK        -0.5012 
     39 N          23.2947  -29.7154  -42.7038 N.am      6 UNK        -0.4439 
     40 CA         24.5474  -30.4148  -43.0245 C.3       6 UNK         0.0297 
     41 CB         24.2553  -31.6604  -43.8878 C.3       6 UNK        -0.2006 
     42 C          25.4112  -30.7551  -41.7871 C.2       6 UNK         0.4892 
     43 O          26.2919  -31.6107  -41.8842 O.2       6 UNK        -0.5089 
     44 N          25.1180  -30.1088  -40.6451 N.am      7 UNK        -0.4243 
     45 CA         25.6036  -30.4038  -39.2932 C.3       7 UNK         0.0196 
     46 CB         27.0933  -30.0222  -39.1613 C.3       7 UNK        -0.2007 
     47 C          25.3120  -31.8493  -38.8239 C.2       7 UNK         0.5020 
     48 O          26.0625  -32.3709  -37.9967 O.2       7 UNK        -0.5147 
     49 N          24.2498  -32.4835  -39.3481 N.am      8 UNK        -0.4734 
     50 CA         23.9465  -33.8987  -39.0938 C.3       8 UNK         0.0238 
     51 CB         24.7555  -34.7808  -40.0636 C.3       8 UNK        -0.1912 
     52 C          22.4538  -34.2579  -39.1662 C.2       8 UNK         0.5038 
     53 O          22.0457  -35.2048  -38.4917 O.2       8 UNK        -0.5046 
     54 N          21.6699  -33.5441  -39.9833 N.am      9 UNK        -0.4200 
     55 CA         20.2303  -33.7664  -40.1761 C.3       9 UNK         0.0839 
     56 C          19.3992  -33.3979  -38.9154 C.2       9 UNK         0.5513 
     57 N          18.3287  -34.1299  -38.6404 N.am      9 UNK        -0.7519 
     58 O          19.6987  -32.4408  -38.2045 O.2       9 UNK        -0.4960 
     59 C59        19.7358  -33.0144  -41.4397 C.3       10 UNK        -0.0876 
     60 S60        18.2359  -33.7357  -42.1779 S.3       10 UNK        -0.2414 
     61 C61        18.4870  -33.3301  -43.9366 C.3       10 UNK         0.0169 
     62 H62        13.4730  -23.7592  -44.4667 H         1 UNK         0.0903 
     63 H63        14.2173  -23.4359  -42.8997 H         1 UNK         0.0903 
     64 H64        14.4886  -22.3312  -44.2494 H         1 UNK         0.0903 
     65 H65        16.0052  -24.7328  -42.5105 H         1 UNK         0.3096 
     66 H66        17.3483  -26.1636  -44.6488 H         1 UNK         0.1121 
     67 H67        18.6450  -27.2187  -42.7449 H         1 UNK         0.0849 
     68 H68        17.8614  -26.1484  -41.6316 H         1 UNK         0.0849 
     69 H69        15.3867  -29.3785  -43.9484 H         1 UNK         0.0865 
     70 H70        16.1505  -28.0667  -44.7822 H         1 UNK         0.0865 
     71 H71        16.5520  -31.4557  -43.5374 H         1 UNK         0.1346 
     72 H72        20.5995  -31.8799  -44.8910 H         1 UNK         0.1412 
     73 H73        18.7084  -28.0369  -44.9442 H         1 UNK         0.1426 
     74 H74        21.7297  -30.0271  -45.9587 H         1 UNK         0.0716 
     75 H75        21.6372  -28.8574  -44.6612 H         1 UNK         0.0716 
     76 H76        22.5847  -26.7405  -47.7521 H         1 UNK         0.0695 
     77 H77        23.2304  -27.8071  -46.5555 H         1 UNK         0.0695 
     78 H78        23.3477  -25.2410  -46.1560 H         1 UNK         0.0983 
     79 H79        20.4576  -25.5360  -46.0098 H         1 UNK         0.3095 
     80 H80        19.8465  -22.2997  -44.7928 H         1 UNK         0.0454 
     81 H81        20.1720  -21.7710  -47.2173 H         1 UNK         0.0851 
     82 H82        18.4727  -21.9709  -46.8274 H         1 UNK         0.0851 
     83 H83        19.3443  -23.2571  -47.6621 H         1 UNK         0.0851 
     84 H84        17.9469  -24.1111  -45.7015 H         1 UNK         0.2976 
     85 H85        21.6712  -24.8754  -43.5368 H         1 UNK         0.3116 
     86 H86        22.0209  -24.9860  -41.3665 H         1 UNK         0.0646 
     87 H87        24.9183  -25.7136  -42.0598 H         1 UNK         0.0847 
     88 H88        24.2671  -24.0754  -42.0146 H         1 UNK         0.0847 
     89 H89        24.3513  -25.0297  -40.5441 H         1 UNK         0.0847 
     90 H90        20.9471  -27.2789  -42.5294 H         1 UNK         0.3040 
     91 H91        20.3459  -29.4145  -42.2231 H         1 UNK         0.1015 
     92 H92        20.3146  -30.3048  -39.9026 H         1 UNK         0.0786 
     93 H93        19.8363  -28.6201  -39.9095 H         1 UNK         0.0786 
     94 H94        21.4531  -29.0835  -39.3823 H         1 UNK         0.0786 
     95 H95        23.2403  -28.7691  -43.0699 H         1 UNK         0.3172 
     96 H96        25.1361  -29.7203  -43.6254 H         1 UNK         0.0595 
     97 H97        23.7228  -32.4278  -43.3251 H         1 UNK         0.0839 
     98 H98        25.1793  -32.1100  -44.2532 H         1 UNK         0.0839 
     99 H99        23.6546  -31.4065  -44.7609 H         1 UNK         0.0839 
    100 H100       24.3998  -29.3938  -40.6914 H         1 UNK         0.2998 
    101 H101       25.0366  -29.7544  -38.6245 H         1 UNK         0.0822 
    102 H102       27.4284  -30.0966  -38.1260 H         1 UNK         0.0787 
    103 H103       27.2695  -28.9958  -39.4830 H         1 UNK         0.0787 
    104 H104       27.7314  -30.6753  -39.7575 H         1 UNK         0.0787 
    105 H105       23.6626  -31.9891  -40.0119 H         1 UNK         0.3055 
    106 H106       24.2546  -34.1449  -38.0747 H         1 UNK         0.1106 
    107 H107       25.8281  -34.6484  -39.9213 H         1 UNK         0.0828 
    108 H108       24.5385  -35.8388  -39.9094 H         1 UNK         0.0828 
    109 H109       24.5260  -34.5460  -41.1038 H         1 UNK         0.0828 
    110 H110       22.0493  -32.7475  -40.4886 H         1 UNK         0.2931 
    111 H111       20.1124  -34.8372  -40.3562 H         1 UNK         0.0412 
    112 H112       17.7692  -33.9014  -37.8336 H         1 UNK         0.3472 
    113 H113       18.0610  -34.8974  -39.2374 H         1 UNK         0.3472 
    114 H114       20.5141  -33.0384  -42.2042 H         1 UNK         0.0970 
    115 H115       19.5529  -31.9592  -41.2377 H         1 UNK         0.0970 
    116 H116       19.3868  -33.8342  -44.2928 H         1 UNK         0.0612 
    117 H117       17.6576  -33.7426  -44.5124 H         1 UNK         0.0612 
@<TRIPOS>BOND
     1    1    2 1    
     2    1   62 1    
     3    1   63 1    
     4    1   64 1    
     5    2    3 2    
     6    2    4 am   BACKBONE|DICT|INTERRES
     7    4    5 1    
     8    4   65 1    
     9    5    6 1    
    10    5   25 1    
    11    5   66 1    
    12    6    7 1    
    13    6   67 1    
    14    6   68 1    
    15    7    8 1    
    16    8    9 1    
    17    8   69 1    
    18    8   70 1    
    19    9   10 ar   
    20    9   14 ar   
    21   10   11 ar   
    22   10   71 1    
    23   11   12 ar   
    24   11   61 1    
    25   12   13 ar   
    26   12   72 1    
    27   13   14 ar   
    28   13   15 1    
    29   14   73 1    
    30   15   16 1    
    31   15   74 1    
    32   15   75 1    
    33   16   17 1    
    34   17   18 1    
    35   17   76 1    
    36   17   77 1    
    37   18   19 1    
    38   18   27 1    
    39   18   78 1    
    40   19   20 am   BACKBONE|DICT|INTERRES
    41   19   79 1    
    42   20   21 2    
    43   20   22 1    
    44   22   23 1    
    45   22   24 1    
    46   22   80 1    
    47   23   81 1    
    48   23   82 1    
    49   23   83 1    
    50   24   25 am   BACKBONE|DICT|INTERRES
    51   24   84 1    
    52   25   26 2    
    53   27   28 2    
    54   27   29 am   BACKBONE|DICT|INTERRES
    55   29   30 1    
    56   29   85 1    
    57   30   31 1    
    58   30   32 1    
    59   30   86 1    
    60   31   87 1    
    61   31   88 1    
    62   31   89 1    
    63   32   33 2    
    64   32   34 am   BACKBONE|DICT|INTERRES
    65   34   35 1    
    66   34   90 1    
    67   35   36 1    
    68   35   37 1    
    69   35   91 1    
    70   36   92 1    
    71   36   93 1    
    72   36   94 1    
    73   37   38 2    
    74   37   39 am   BACKBONE|DICT|INTERRES
    75   39   40 1    
    76   39   95 1    
    77   40   41 1    
    78   40   42 1    
    79   40   96 1    
    80   41   97 1    
    81   41   98 1    
    82   41   99 1    
    83   42   43 2    
    84   42   44 am   BACKBONE|DICT|INTERRES
    85   44   45 1    
    86   44  100 1    
    87   45   46 1    
    88   45   47 1    
    89   45  101 1    
    90   46  102 1    
    91   46  103 1    
    92   46  104 1    
    93   47   48 2    
    94   47   49 am   BACKBONE|DICT|INTERRES
    95   49   50 1    
    96   49  105 1    
    97   50   51 1    
    98   50   52 1    
    99   50  106 1    
   100   51  107 1    
   101   51  108 1    
   102   51  109 1    
   103   52   53 2    
   104   52   54 am   BACKBONE|DICT|INTERRES
   105   54   55 1    
   106   54  110 1    
   107   55   56 1    
   108   55   59 1    
   109   55  111 1    
   110   56   57 am   BACKBONE|DICT|INTERRES
   111   56   58 2    
   112   57  112 1    
   113   57  113 1    
   114   59   60 1    
   115   59  114 1    
   116   59  115 1    
   117   60   61 1    
   118   61  116 1    
   119   61  117 1    
@<TRIPOS>SUBSTRUCTURE
     1 UNK         1 GROUP             0       ****    0 ROOT    
