@<TRIPOS>MOLECULE
3R8
117   119    1
SMALL
USER_CHARGES


@<TRIPOS>ATOM
      1 CA         16.9881  -25.2938  -46.6260 C.3       0 UNK        -0.2013 
      2 C          18.3385  -25.9190  -46.9419 C.2       0 UNK         0.4866 
      3 O          19.0806  -25.3917  -47.7701 O.2       0 UNK        -0.5176 
      4 N          18.6667  -27.0331  -46.2769 N.am      1 UNK        -0.4884 
      5 CA         19.9120  -27.7976  -46.4644 C.3       1 UNK         0.0853 
      6 C6         19.6696  -29.3303  -46.3732 C.3       10 UNK        -0.0849 
      7 S7         18.3330  -29.8979  -47.4865 S.3       10 UNK        -0.2776 
      8 C8         17.5847  -31.2821  -46.5521 C.3       10 UNK         0.0316 
      9 C9         17.0825  -30.9384  -45.1481 C.ar      10 UNK        -0.0863 
     10 C10        17.0826  -31.9384  -44.1718 C.ar      10 UNK        -0.1009 
     11 C11        16.6828  -31.6686  -42.8555 C.ar      10 UNK        -0.0712 
     12 C12        16.2608  -30.3753  -42.5314 C.ar      10 UNK        -0.0894 
     13 C13        16.2234  -29.3703  -43.5025 C.ar      10 UNK        -0.0745 
     14 C14        16.6167  -29.6628  -44.8110 C.ar      10 UNK        -0.0972 
     15 C15        15.7489  -27.9691  -43.1479 C.3       10 UNK         0.0209 
     16 S16        17.1426  -26.8107  -42.9724 S.3       10 UNK        -0.2568 
     17 C17        17.8434  -27.2877  -41.3527 C.3       10 UNK        -0.0983 
     18 CA         19.1307  -28.1461  -41.4748 C.3       3 UNK         0.0876 
     19 N          20.1590  -27.5410  -42.3346 N.am      3 UNK        -0.4424 
     20 C          20.7805  -26.3597  -42.2153 C.2       2 UNK         0.4918 
     21 O          20.8104  -25.7013  -41.1753 O.2       2 UNK        -0.4875 
     22 CA         21.3843  -25.7598  -43.5001 C.3       2 UNK         0.0481 
     23 CB         22.9211  -25.8316  -43.5429 C.3       2 UNK        -0.1831 
     24 N          20.7273  -26.2778  -44.7102 N.am      2 UNK        -0.4498 
     25 C          21.0069  -27.3527  -45.4661 C.2       1 UNK         0.5027 
     26 O          22.0435  -28.0087  -45.3798 O.2       1 UNK        -0.4969 
     27 C          19.6193  -28.6056  -40.0861 C.2       3 UNK         0.5005 
     28 O          19.3199  -29.7340  -39.6947 O.2       3 UNK        -0.5279 
     29 N          20.3581  -27.7500  -39.3715 N.am      4 UNK        -0.4463 
     30 CA         20.8455  -27.9872  -38.0090 C.3       4 UNK         0.0283 
     31 CB         19.8691  -27.3441  -37.0070 C.3       4 UNK        -0.1875 
     32 C          22.2864  -27.4939  -37.7869 C.2       4 UNK         0.4949 
     33 O          22.7769  -27.5786  -36.6605 O.2       4 UNK        -0.5039 
     34 N          22.9479  -26.9964  -38.8372 N.am      5 UNK        -0.4663 
     35 CA         24.3354  -26.5364  -38.8245 C.3       5 UNK         0.0242 
     36 CB         24.3607  -25.0108  -38.6265 C.3       5 UNK        -0.1982 
     37 C          24.9907  -26.9282  -40.1525 C.2       5 UNK         0.5017 
     38 O          24.2736  -27.2187  -41.1121 O.2       5 UNK        -0.5012 
     39 N          26.3309  -26.9165  -40.1937 N.am      6 UNK        -0.4439 
     40 CA         27.1720  -27.2721  -41.3450 C.3       6 UNK         0.0297 
     41 CB         27.0440  -26.2097  -42.4625 C.3       6 UNK        -0.2006 
     42 C          26.9022  -28.7180  -41.8099 C.2       6 UNK         0.4892 
     43 O          27.2065  -29.6485  -41.0621 O.2       6 UNK        -0.5089 
     44 N          26.3193  -28.8826  -43.0059 N.am      7 UNK        -0.4243 
     45 CA         25.8589  -30.1661  -43.5477 C.3       7 UNK         0.0196 
     46 CB         25.5528  -29.9938  -45.0445 C.3       7 UNK        -0.2007 
     47 C          24.6262  -30.7341  -42.8170 C.2       7 UNK         0.5020 
     48 O          24.3780  -31.9381  -42.9045 O.2       7 UNK        -0.5147 
     49 N          23.8831  -29.8657  -42.1160 N.am      8 UNK        -0.4734 
     50 CA         22.6700  -30.1386  -41.3481 C.3       8 UNK         0.0238 
     51 CB         23.0193  -30.8686  -40.0321 C.3       8 UNK        -0.1912 
     52 C          21.5871  -30.8212  -42.2039 C.2       8 UNK         0.5038 
     53 O          21.1817  -30.2530  -43.2184 O.2       8 UNK        -0.5046 
     54 N          21.1306  -32.0025  -41.7786 N.am      9 UNK        -0.4200 
     55 CA         20.1517  -32.8284  -42.4945 C.3       9 UNK         0.0839 
     56 C          20.7605  -33.6642  -43.6635 C.2       9 UNK         0.5513 
     57 N          22.0685  -33.6422  -43.8971 N.am      9 UNK        -0.7519 
     58 O          20.0343  -34.3346  -44.3915 O.2       9 UNK        -0.4960 
     59 C59        19.3317  -33.6726  -41.4807 C.3       10 UNK        -0.0876 
     60 S60        17.6946  -34.2162  -42.0783 S.3       10 UNK        -0.2414 
     61 C61        16.6511  -32.7464  -41.7678 C.3       10 UNK         0.0169 
     62 H62        16.4042  -25.1819  -47.5392 H         1 UNK         0.0903 
     63 H63        16.4098  -25.8999  -45.9288 H         1 UNK         0.0903 
     64 H64        17.1247  -24.3067  -46.1853 H         1 UNK         0.0903 
     65 H65        18.0288  -27.4071  -45.5887 H         1 UNK         0.3096 
     66 H66        20.3101  -27.5919  -47.4607 H         1 UNK         0.1121 
     67 H67        20.5772  -29.8772  -46.6358 H         1 UNK         0.0849 
     68 H68        19.4399  -29.6164  -45.3454 H         1 UNK         0.0849 
     69 H69        18.3254  -32.0818  -46.4931 H         1 UNK         0.0865 
     70 H70        16.7494  -31.6796  -47.1299 H         1 UNK         0.0865 
     71 H71        17.4101  -32.9313  -44.4464 H         1 UNK         0.1346 
     72 H72        15.9474  -30.1531  -41.5202 H         1 UNK         0.1412 
     73 H73        16.5700  -28.8893  -45.5635 H         1 UNK         0.1426 
     74 H74        15.1540  -27.9749  -42.2333 H         1 UNK         0.0716 
     75 H75        15.0877  -27.6036  -43.9350 H         1 UNK         0.0716 
     76 H76        17.0822  -27.8186  -40.7780 H         1 UNK         0.0695 
     77 H77        18.0496  -26.3702  -40.7986 H         1 UNK         0.0695 
     78 H78        18.8486  -29.0616  -41.9984 H         1 UNK         0.0983 
     79 H79        20.3156  -28.0469  -43.1960 H         1 UNK         0.3095 
     80 H80        21.1245  -24.7005  -43.4793 H         1 UNK         0.0454 
     81 H81        23.3164  -25.3897  -44.4570 H         1 UNK         0.0851 
     82 H82        23.2835  -26.8572  -43.4800 H         1 UNK         0.0851 
     83 H83        23.3538  -25.2843  -42.7048 H         1 UNK         0.0851 
     84 H84        19.8406  -25.8365  -44.9133 H         1 UNK         0.2976 
     85 H85        20.5518  -26.8394  -39.7872 H         1 UNK         0.3116 
     86 H86        20.8735  -29.0614  -37.8147 H         1 UNK         0.0646 
     87 H87        20.1791  -27.5290  -35.9776 H         1 UNK         0.0847 
     88 H88        18.8638  -27.7513  -37.1163 H         1 UNK         0.0847 
     89 H89        19.8101  -26.2636  -37.1420 H         1 UNK         0.0847 
     90 H90        22.5283  -27.0121  -39.7574 H         1 UNK         0.3040 
     91 H91        24.8865  -27.0245  -38.0173 H         1 UNK         0.1015 
     92 H92        23.8957  -24.7275  -37.6821 H         1 UNK         0.0786 
     93 H93        23.8308  -24.4938  -39.4280 H         1 UNK         0.0786 
     94 H94        25.3827  -24.6302  -38.6103 H         1 UNK         0.0786 
     95 H95        26.8323  -26.6899  -39.3458 H         1 UNK         0.3172 
     96 H96        28.2048  -27.2537  -40.9935 H         1 UNK         0.0595 
     97 H97        26.0271  -26.1241  -42.8468 H         1 UNK         0.0839 
     98 H98        27.7004  -26.4398  -43.3029 H         1 UNK         0.0839 
     99 H99        27.3348  -25.2253  -42.0957 H         1 UNK         0.0839 
    100 H100       26.0957  -28.0578  -43.5434 H         1 UNK         0.2998 
    101 H101       26.6673  -30.8925  -43.4404 H         1 UNK         0.0822 
    102 H102       24.7466  -29.2772  -45.2107 H         1 UNK         0.0787 
    103 H103       26.4294  -29.6507  -45.5943 H         1 UNK         0.0787 
    104 H104       25.2418  -30.9400  -45.4897 H         1 UNK         0.0787 
    105 H105       24.1800  -28.8942  -42.0945 H         1 UNK         0.3055 
    106 H106       22.2701  -29.1613  -41.0826 H         1 UNK         0.1106 
    107 H107       22.1367  -30.9990  -39.4040 H         1 UNK         0.0828 
    108 H108       23.4596  -31.8506  -40.2089 H         1 UNK         0.0828 
    109 H109       23.7366  -30.2900  -39.4493 H         1 UNK         0.0828 
    110 H110       21.5383  -32.4084  -40.9499 H         1 UNK         0.2931 
    111 H111       19.4611  -32.1322  -42.9675 H         1 UNK         0.0412 
    112 H112       22.6956  -33.0585  -43.3548 H         1 UNK         0.3472 
    113 H113       22.4352  -34.1857  -44.6620 H         1 UNK         0.3472 
    114 H114       19.8984  -34.5538  -41.1747 H         1 UNK         0.0970 
    115 H115       19.1661  -33.1023  -40.5648 H         1 UNK         0.0970 
    116 H116       16.9256  -32.3132  -40.8047 H         1 UNK         0.0612 
    117 H117       15.6196  -33.0857  -41.6670 H         1 UNK         0.0612 
@<TRIPOS>BOND
     1    1    2 1    
     2    1   62 1    
     3    1   63 1    
     4    1   64 1    
     5    2    3 2    
     6    2    4 am   BACKBONE|DICT|INTERRES
     7    4    5 1    
     8    4   65 1    
     9    5    6 1    
    10    5   25 1    
    11    5   66 1    
    12    6    7 1    
    13    6   67 1    
    14    6   68 1    
    15    7    8 1    
    16    8    9 1    
    17    8   69 1    
    18    8   70 1    
    19    9   10 ar   
    20    9   14 ar   
    21   10   11 ar   
    22   10   71 1    
    23   11   12 ar   
    24   11   61 1    
    25   12   13 ar   
    26   12   72 1    
    27   13   14 ar   
    28   13   15 1    
    29   14   73 1    
    30   15   16 1    
    31   15   74 1    
    32   15   75 1    
    33   16   17 1    
    34   17   18 1    
    35   17   76 1    
    36   17   77 1    
    37   18   19 1    
    38   18   27 1    
    39   18   78 1    
    40   19   20 am   BACKBONE|DICT|INTERRES
    41   19   79 1    
    42   20   21 2    
    43   20   22 1    
    44   22   23 1    
    45   22   24 1    
    46   22   80 1    
    47   23   81 1    
    48   23   82 1    
    49   23   83 1    
    50   24   25 am   BACKBONE|DICT|INTERRES
    51   24   84 1    
    52   25   26 2    
    53   27   28 2    
    54   27   29 am   BACKBONE|DICT|INTERRES
    55   29   30 1    
    56   29   85 1    
    57   30   31 1    
    58   30   32 1    
    59   30   86 1    
    60   31   87 1    
    61   31   88 1    
    62   31   89 1    
    63   32   33 2    
    64   32   34 am   BACKBONE|DICT|INTERRES
    65   34   35 1    
    66   34   90 1    
    67   35   36 1    
    68   35   37 1    
    69   35   91 1    
    70   36   92 1    
    71   36   93 1    
    72   36   94 1    
    73   37   38 2    
    74   37   39 am   BACKBONE|DICT|INTERRES
    75   39   40 1    
    76   39   95 1    
    77   40   41 1    
    78   40   42 1    
    79   40   96 1    
    80   41   97 1    
    81   41   98 1    
    82   41   99 1    
    83   42   43 2    
    84   42   44 am   BACKBONE|DICT|INTERRES
    85   44   45 1    
    86   44  100 1    
    87   45   46 1    
    88   45   47 1    
    89   45  101 1    
    90   46  102 1    
    91   46  103 1    
    92   46  104 1    
    93   47   48 2    
    94   47   49 am   BACKBONE|DICT|INTERRES
    95   49   50 1    
    96   49  105 1    
    97   50   51 1    
    98   50   52 1    
    99   50  106 1    
   100   51  107 1    
   101   51  108 1    
   102   51  109 1    
   103   52   53 2    
   104   52   54 am   BACKBONE|DICT|INTERRES
   105   54   55 1    
   106   54  110 1    
   107   55   56 1    
   108   55   59 1    
   109   55  111 1    
   110   56   57 am   BACKBONE|DICT|INTERRES
   111   56   58 2    
   112   57  112 1    
   113   57  113 1    
   114   59   60 1    
   115   59  114 1    
   116   59  115 1    
   117   60   61 1    
   118   61  116 1    
   119   61  117 1    
@<TRIPOS>SUBSTRUCTURE
     1 UNK         1 GROUP             0       ****    0 ROOT    
