@<TRIPOS>MOLECULE
3R8
117   119    1
SMALL
USER_CHARGES


@<TRIPOS>ATOM
      1 CA         14.9665  -22.7918  -42.6423 C.3       0 UNK        -0.2013 
      2 C          15.6546  -23.4952  -43.8027 C.2       0 UNK         0.4866 
      3 O          15.5308  -23.0547  -44.9462 O.2       0 UNK        -0.5176 
      4 N          16.3705  -24.5905  -43.5199 N.am      1 UNK        -0.4884 
      5 CA         17.1356  -25.3695  -44.4987 C.3       1 UNK         0.0853 
      6 C6         17.6154  -26.7169  -43.9084 C.3       10 UNK        -0.0849 
      7 S7         16.2376  -27.8142  -43.4303 S.3       10 UNK        -0.2776 
      8 C8         16.5362  -29.2818  -44.4728 C.3       10 UNK         0.0316 
      9 C9         17.8940  -29.9147  -44.1948 C.ar      10 UNK        -0.0863 
     10 C10        18.1550  -30.5043  -42.9550 C.ar      10 UNK        -0.1009 
     11 C11        19.4078  -31.0599  -42.6829 C.ar      10 UNK        -0.0712 
     12 C12        20.4065  -31.0215  -43.6614 C.ar      10 UNK        -0.0894 
     13 C13        20.1552  -30.4449  -44.9118 C.ar      10 UNK        -0.0745 
     14 C14        18.8923  -29.9036  -45.1741 C.ar      10 UNK        -0.0972 
     15 C15        21.2427  -30.4247  -45.9826 C.3       10 UNK         0.0209 
     16 S16        21.5576  -28.7612  -46.6660 S.3       10 UNK        -0.2568 
     17 C17        22.1157  -27.8737  -45.1759 C.3       10 UNK        -0.0983 
     18 CA         22.3399  -26.3545  -45.3953 C.3       3 UNK         0.0876 
     19 N          21.1689  -25.7155  -46.0030 N.am      3 UNK        -0.4424 
     20 C          21.1282  -24.4759  -46.5086 C.2       2 UNK         0.4918 
     21 O          22.1074  -23.7345  -46.5881 O.2       2 UNK        -0.4875 
     22 CA         19.7511  -23.9661  -46.9782 C.3       2 UNK         0.0481 
     23 CB         19.6142  -24.1273  -48.5004 C.3       2 UNK        -0.1831 
     24 N          18.6100  -24.6156  -46.3162 N.am      2 UNK        -0.4498 
     25 C          18.3543  -24.5707  -44.9997 C.2       1 UNK         0.5027 
     26 O          19.0780  -23.9975  -44.1811 O.2       1 UNK        -0.4969 
     27 C          22.7387  -25.7158  -44.0456 C.2       3 UNK         0.5005 
     28 O          23.8821  -25.8908  -43.6227 O.2       3 UNK        -0.5279 
     29 N          21.7830  -25.0450  -43.3745 N.am      4 UNK        -0.4463 
     30 CA         21.8174  -24.6308  -41.9646 C.3       4 UNK         0.0283 
     31 CB         22.9016  -23.5612  -41.7134 C.3       4 UNK        -0.1875 
     32 C          21.9275  -25.8482  -41.0222 C.2       4 UNK         0.4949 
     33 O          22.6720  -25.8089  -40.0415 O.2       4 UNK        -0.5039 
     34 N          21.1893  -26.9155  -41.3703 N.am      5 UNK        -0.4663 
     35 CA         21.2456  -28.2673  -40.8059 C.3       5 UNK         0.0242 
     36 CB         20.7197  -28.2945  -39.3526 C.3       5 UNK        -0.1982 
     37 C          22.6474  -28.8760  -41.0015 C.2       5 UNK         0.5017 
     38 O          23.0512  -29.0648  -42.1494 O.2       5 UNK        -0.5012 
     39 N          23.3559  -29.1536  -39.8978 N.am      6 UNK        -0.4439 
     40 CA         24.7458  -29.6198  -39.7780 C.3       6 UNK         0.0297 
     41 CB         25.7295  -28.5765  -40.3436 C.3       6 UNK        -0.2006 
     42 C          25.0350  -31.0180  -40.3560 C.2       6 UNK         0.4892 
     43 O          25.5974  -31.8531  -39.6470 O.2       6 UNK        -0.5089 
     44 N          24.6683  -31.2498  -41.6205 N.am      7 UNK        -0.4243 
     45 CA         24.8791  -32.4955  -42.3547 C.3       7 UNK         0.0196 
     46 CB         24.6751  -32.2327  -43.8564 C.3       7 UNK        -0.2007 
     47 C          23.9424  -33.5986  -41.8401 C.2       7 UNK         0.5020 
     48 O          22.7618  -33.6008  -42.1893 O.2       7 UNK        -0.5147 
     49 N          24.4863  -34.4950  -41.0046 N.am      8 UNK        -0.4734 
     50 CA         23.8489  -35.6383  -40.3321 C.3       8 UNK         0.0238 
     51 CB         23.2734  -36.6520  -41.3425 C.3       8 UNK        -0.1912 
     52 C          22.8053  -35.2302  -39.2782 C.2       8 UNK         0.5038 
     53 O          22.9810  -35.5444  -38.1007 O.2       8 UNK        -0.5046 
     54 N          21.7569  -34.5285  -39.7163 N.am      9 UNK        -0.4200 
     55 CA         20.6936  -33.9440  -38.8866 C.3       9 UNK         0.0839 
     56 C          21.0607  -32.5787  -38.2333 C.2       9 UNK         0.5513 
     57 N          22.2812  -32.0765  -38.3711 N.am      9 UNK        -0.7519 
     58 O          20.2282  -31.9701  -37.5668 O.2       9 UNK        -0.4960 
     59 C59        19.3191  -33.9273  -39.6186 C.3       10 UNK        -0.0876 
     60 S60        19.3553  -33.4828  -41.3907 S.3       10 UNK        -0.2414 
     61 C61        19.6778  -31.6978  -41.3298 C.3       10 UNK         0.0169 
     62 H62        15.1507  -23.2949  -41.6931 H         1 UNK         0.0903 
     63 H63        15.3272  -21.7669  -42.5583 H         1 UNK         0.0903 
     64 H64        13.8897  -22.7622  -42.8067 H         1 UNK         0.0903 
     65 H65        16.4392  -24.9077  -42.5635 H         1 UNK         0.3096 
     66 H66        16.4801  -25.5744  -45.3484 H         1 UNK         0.1121 
     67 H67        18.2522  -27.2333  -44.6275 H         1 UNK         0.0849 
     68 H68        18.2354  -26.5535  -43.0246 H         1 UNK         0.0849 
     69 H69        16.4426  -29.0000  -45.5228 H         1 UNK         0.0865 
     70 H70        15.7530  -30.0173  -44.2834 H         1 UNK         0.0865 
     71 H71        17.3822  -30.5225  -42.1984 H         1 UNK         0.1346 
     72 H72        21.3751  -31.4521  -43.4460 H         1 UNK         0.1412 
     73 H73        18.6953  -29.4592  -46.1402 H         1 UNK         0.1426 
     74 H74        20.9449  -31.0874  -46.7961 H         1 UNK         0.0716 
     75 H75        22.1802  -30.8207  -45.5914 H         1 UNK         0.0716 
     76 H76        23.0376  -28.3472  -44.8317 H         1 UNK         0.0695 
     77 H77        21.3789  -28.0371  -44.3869 H         1 UNK         0.0695 
     78 H78        23.1823  -26.2243  -46.0782 H         1 UNK         0.0983 
     79 H79        20.3302  -26.2742  -46.0374 H         1 UNK         0.3095 
     80 H80        19.7029  -22.9008  -46.7432 H         1 UNK         0.0454 
     81 H81        19.6297  -25.1761  -48.7997 H         1 UNK         0.0851 
     82 H82        20.4333  -23.6289  -49.0210 H         1 UNK         0.0851 
     83 H83        18.6870  -23.6857  -48.8660 H         1 UNK         0.0851 
     84 H84        17.9703  -25.1134  -46.9196 H         1 UNK         0.2976 
     85 H85        20.8970  -24.8792  -43.8411 H         1 UNK         0.3116 
     86 H86        20.8496  -24.1708  -41.7587 H         1 UNK         0.0646 
     87 H87        22.8231  -23.1595  -40.7026 H         1 UNK         0.0847 
     88 H88        22.8005  -22.7240  -42.4037 H         1 UNK         0.0847 
     89 H89        23.9081  -23.9664  -41.8209 H         1 UNK         0.0847 
     90 H90        20.6352  -26.8291  -42.2088 H         1 UNK         0.3040 
     91 H91        20.5695  -28.8728  -41.4090 H         1 UNK         0.1015 
     92 H92        19.6988  -27.9153  -39.3046 H         1 UNK         0.0786 
     93 H93        21.3235  -27.6888  -38.6763 H         1 UNK         0.0786 
     94 H94        20.6954  -29.3127  -38.9612 H         1 UNK         0.0786 
     95 H95        22.9040  -28.9457  -39.0188 H         1 UNK         0.3172 
     96 H96        24.9338  -29.6869  -38.7052 H         1 UNK         0.0595 
     97 H97        25.6005  -28.4311  -41.4168 H         1 UNK         0.0839 
     98 H98        26.7629  -28.8848  -40.1798 H         1 UNK         0.0839 
     99 H99        25.5990  -27.6081  -39.8603 H         1 UNK         0.0839 
    100 H100       24.1495  -30.5108  -42.0911 H         1 UNK         0.2998 
    101 H101       25.9139  -32.8130  -42.2091 H         1 UNK         0.0822 
    102 H102       25.3906  -31.5009  -44.2318 H         1 UNK         0.0787 
    103 H103       24.8101  -33.1474  -44.4350 H         1 UNK         0.0787 
    104 H104       23.6739  -31.8579  -44.0666 H         1 UNK         0.0787 
    105 H105       25.4500  -34.3388  -40.7384 H         1 UNK         0.3055 
    106 H106       24.6491  -36.1461  -39.7903 H         1 UNK         0.1106 
    107 H107       22.8758  -37.5282  -40.8286 H         1 UNK         0.0828 
    108 H108       22.4613  -36.2317  -41.9363 H         1 UNK         0.0828 
    109 H109       24.0421  -37.0028  -42.0309 H         1 UNK         0.0828 
    110 H110       21.7509  -34.2595  -40.6973 H         1 UNK         0.2931 
    111 H111       20.5613  -34.6081  -38.0303 H         1 UNK         0.0412 
    112 H112       22.9884  -32.5824  -38.8793 H         1 UNK         0.3472 
    113 H113       22.5109  -31.2199  -37.8962 H         1 UNK         0.3472 
    114 H114       18.5904  -33.2981  -39.1040 H         1 UNK         0.0970 
    115 H115       18.8974  -34.9323  -39.5702 H         1 UNK         0.0970 
    116 H116       20.7158  -31.5299  -41.0381 H         1 UNK         0.0612 
    117 H117       19.0557  -31.2348  -40.5621 H         1 UNK         0.0612 
@<TRIPOS>BOND
     1    1    2 1    
     2    1   62 1    
     3    1   63 1    
     4    1   64 1    
     5    2    3 2    
     6    2    4 am   BACKBONE|DICT|INTERRES
     7    4    5 1    
     8    4   65 1    
     9    5    6 1    
    10    5   25 1    
    11    5   66 1    
    12    6    7 1    
    13    6   67 1    
    14    6   68 1    
    15    7    8 1    
    16    8    9 1    
    17    8   69 1    
    18    8   70 1    
    19    9   10 ar   
    20    9   14 ar   
    21   10   11 ar   
    22   10   71 1    
    23   11   12 ar   
    24   11   61 1    
    25   12   13 ar   
    26   12   72 1    
    27   13   14 ar   
    28   13   15 1    
    29   14   73 1    
    30   15   16 1    
    31   15   74 1    
    32   15   75 1    
    33   16   17 1    
    34   17   18 1    
    35   17   76 1    
    36   17   77 1    
    37   18   19 1    
    38   18   27 1    
    39   18   78 1    
    40   19   20 am   BACKBONE|DICT|INTERRES
    41   19   79 1    
    42   20   21 2    
    43   20   22 1    
    44   22   23 1    
    45   22   24 1    
    46   22   80 1    
    47   23   81 1    
    48   23   82 1    
    49   23   83 1    
    50   24   25 am   BACKBONE|DICT|INTERRES
    51   24   84 1    
    52   25   26 2    
    53   27   28 2    
    54   27   29 am   BACKBONE|DICT|INTERRES
    55   29   30 1    
    56   29   85 1    
    57   30   31 1    
    58   30   32 1    
    59   30   86 1    
    60   31   87 1    
    61   31   88 1    
    62   31   89 1    
    63   32   33 2    
    64   32   34 am   BACKBONE|DICT|INTERRES
    65   34   35 1    
    66   34   90 1    
    67   35   36 1    
    68   35   37 1    
    69   35   91 1    
    70   36   92 1    
    71   36   93 1    
    72   36   94 1    
    73   37   38 2    
    74   37   39 am   BACKBONE|DICT|INTERRES
    75   39   40 1    
    76   39   95 1    
    77   40   41 1    
    78   40   42 1    
    79   40   96 1    
    80   41   97 1    
    81   41   98 1    
    82   41   99 1    
    83   42   43 2    
    84   42   44 am   BACKBONE|DICT|INTERRES
    85   44   45 1    
    86   44  100 1    
    87   45   46 1    
    88   45   47 1    
    89   45  101 1    
    90   46  102 1    
    91   46  103 1    
    92   46  104 1    
    93   47   48 2    
    94   47   49 am   BACKBONE|DICT|INTERRES
    95   49   50 1    
    96   49  105 1    
    97   50   51 1    
    98   50   52 1    
    99   50  106 1    
   100   51  107 1    
   101   51  108 1    
   102   51  109 1    
   103   52   53 2    
   104   52   54 am   BACKBONE|DICT|INTERRES
   105   54   55 1    
   106   54  110 1    
   107   55   56 1    
   108   55   59 1    
   109   55  111 1    
   110   56   57 am   BACKBONE|DICT|INTERRES
   111   56   58 2    
   112   57  112 1    
   113   57  113 1    
   114   59   60 1    
   115   59  114 1    
   116   59  115 1    
   117   60   61 1    
   118   61  116 1    
   119   61  117 1    
@<TRIPOS>SUBSTRUCTURE
     1 UNK         1 GROUP             0       ****    0 ROOT    
