@<TRIPOS>MOLECULE
3R8
117   119    1
SMALL
USER_CHARGES


@<TRIPOS>ATOM
      1 CA         15.7657  -22.4694  -48.2401 C.3       0 UNK        -0.2013 
      2 C          17.0753  -23.0490  -47.7263 C.2       0 UNK         0.4866 
      3 O          18.0334  -22.3043  -47.5155 O.2       0 UNK        -0.5176 
      4 N          17.1277  -24.3726  -47.5309 N.am      1 UNK        -0.4884 
      5 CA         18.2805  -25.0862  -46.9721 C.3       1 UNK         0.0853 
      6 C6         18.2067  -26.5998  -47.2967 C.3       10 UNK        -0.0849 
      7 S7         19.8453  -27.4028  -47.2590 S.3       10 UNK        -0.2776 
      8 C8         19.3901  -29.1650  -47.3228 C.3       10 UNK         0.0316 
      9 C9         18.9838  -29.7029  -45.9575 C.ar      10 UNK        -0.0863 
     10 C10        19.9599  -30.1560  -45.0636 C.ar      10 UNK        -0.1009 
     11 C11        19.6047  -30.6787  -43.8158 C.ar      10 UNK        -0.0712 
     12 C12        18.2466  -30.7704  -43.4862 C.ar      10 UNK        -0.0894 
     13 C13        17.2649  -30.2520  -44.3359 C.ar      10 UNK        -0.0745 
     14 C14        17.6376  -29.7456  -45.5836 C.ar      10 UNK        -0.0972 
     15 C15        15.8081  -30.1978  -43.8881 C.3       10 UNK         0.0209 
     16 S16        15.6065  -29.5278  -42.1967 S.3       10 UNK        -0.2568 
     17 C17        16.2450  -27.8181  -42.3388 C.3       10 UNK        -0.0983 
     18 CA         17.7470  -27.6646  -41.9640 C.3       3 UNK         0.0876 
     19 N          18.3049  -26.4246  -42.5131 N.am      3 UNK        -0.4424 
     20 C          19.5839  -26.2372  -42.8615 C.2       2 UNK         0.4918 
     21 O          20.4597  -27.0915  -42.7201 O.2       2 UNK        -0.4875 
     22 CA         19.9289  -24.8814  -43.4989 C.3       2 UNK         0.0481 
     23 CB         21.4126  -24.5167  -43.3098 C.3       2 UNK        -0.1831 
     24 N          19.6220  -24.9129  -44.9277 N.am      2 UNK        -0.4498 
     25 C          18.3916  -24.8447  -45.4514 C.2       1 UNK         0.5027 
     26 O          17.3736  -24.6447  -44.7811 O.2       1 UNK        -0.4969 
     27 C          18.0799  -27.8459  -40.4617 C.2       3 UNK         0.5005 
     28 O          17.1848  -28.0603  -39.6424 O.2       3 UNK        -0.5279 
     29 N          19.3739  -27.7456  -40.1354 N.am      4 UNK        -0.4463 
     30 CA         20.0053  -27.9226  -38.8305 C.3       4 UNK         0.0283 
     31 CB         19.4671  -26.9167  -37.7924 C.3       4 UNK        -0.1875 
     32 C          21.5113  -27.7081  -39.0187 C.2       4 UNK         0.4949 
     33 O          21.8988  -26.8296  -39.7911 O.2       4 UNK        -0.5039 
     34 N          22.3265  -28.4920  -38.3000 N.am      5 UNK        -0.4663 
     35 CA         23.7941  -28.4288  -38.1612 C.3       5 UNK         0.0242 
     36 CB         24.2111  -27.1157  -37.4702 C.3       5 UNK        -0.1982 
     37 C          24.6401  -28.6537  -39.4338 C.2       5 UNK         0.5017 
     38 O          25.7493  -29.1756  -39.3189 O.2       5 UNK        -0.5012 
     39 N          24.1446  -28.2402  -40.6040 N.am      6 UNK        -0.4439 
     40 CA         24.8261  -28.3351  -41.8936 C.3       6 UNK         0.0297 
     41 CB         24.0974  -27.4402  -42.9086 C.3       6 UNK        -0.2006 
     42 C          24.8894  -29.7799  -42.4115 C.2       6 UNK         0.4892 
     43 O          23.8672  -30.4680  -42.4141 O.2       6 UNK        -0.5089 
     44 N          26.0733  -30.1833  -42.8956 N.am      7 UNK        -0.4243 
     45 CA         26.3662  -31.4525  -43.5738 C.3       7 UNK         0.0196 
     46 CB         25.8242  -31.4030  -45.0216 C.3       7 UNK        -0.2007 
     47 C          25.8915  -32.6795  -42.7682 C.2       7 UNK         0.5020 
     48 O          26.3971  -32.9125  -41.6692 O.2       7 UNK        -0.5147 
     49 N          24.9175  -33.4239  -43.3097 N.am      8 UNK        -0.4734 
     50 CA         24.3012  -34.6046  -42.6966 C.3       8 UNK         0.0238 
     51 CB         23.3609  -35.2644  -43.7188 C.3       8 UNK        -0.1912 
     52 C          23.5483  -34.3219  -41.3831 C.2       8 UNK         0.5038 
     53 O          23.3633  -35.2514  -40.5961 O.2       8 UNK        -0.5046 
     54 N          23.1401  -33.0655  -41.1622 N.am      9 UNK        -0.4200 
     55 CA         22.5288  -32.5987  -39.9104 C.3       9 UNK         0.0839 
     56 C          23.5644  -32.2699  -38.7955 C.2       9 UNK         0.5513 
     57 N          24.8675  -32.3758  -39.0293 N.am      9 UNK        -0.7519 
     58 O          23.1733  -31.9120  -37.6876 O.2       9 UNK        -0.4960 
     59 C59        21.5629  -31.4102  -40.1488 C.3       10 UNK        -0.0876 
     60 S60        20.1840  -31.8205  -41.2699 S.3       10 UNK        -0.2414 
     61 C61        20.7216  -31.0392  -42.8338 C.3       10 UNK         0.0169 
     62 H62        15.9282  -21.9567  -49.1878 H         1 UNK         0.0903 
     63 H63        15.0114  -23.2403  -48.3969 H         1 UNK         0.0903 
     64 H64        15.3695  -21.7480  -47.5258 H         1 UNK         0.0903 
     65 H65        16.2981  -24.9284  -47.6846 H         1 UNK         0.3096 
     66 H66        19.1732  -24.6718  -47.4474 H         1 UNK         0.1121 
     67 H67        17.5183  -27.1109  -46.6220 H         1 UNK         0.0849 
     68 H68        17.8085  -26.7487  -48.3020 H         1 UNK         0.0849 
     69 H69        18.5910  -29.3155  -48.0505 H         1 UNK         0.0865 
     70 H70        20.2443  -29.7324  -47.6955 H         1 UNK         0.0865 
     71 H71        21.0051  -30.0804  -45.3323 H         1 UNK         0.1346 
     72 H72        17.9386  -31.1583  -42.5267 H         1 UNK         0.1412 
     73 H73        16.8805  -29.3704  -46.2584 H         1 UNK         0.1426 
     74 H74        15.2110  -29.5968  -44.5758 H         1 UNK         0.0716 
     75 H75        15.3949  -31.2067  -43.9184 H         1 UNK         0.0716 
     76 H76        15.6282  -27.1623  -41.7221 H         1 UNK         0.0695 
     77 H77        16.0844  -27.4923  -43.3682 H         1 UNK         0.0695 
     78 H78        18.2834  -28.4662  -42.4619 H         1 UNK         0.0983 
     79 H79        17.6469  -25.6799  -42.7019 H         1 UNK         0.3095 
     80 H80        19.3282  -24.1078  -43.0158 H         1 UNK         0.0454 
     81 H81        21.6276  -23.5183  -43.6904 H         1 UNK         0.0851 
     82 H82        22.0722  -25.2194  -43.8204 H         1 UNK         0.0851 
     83 H83        21.6842  -24.5274  -42.2530 H         1 UNK         0.0851 
     84 H84        20.3906  -25.1440  -45.5417 H         1 UNK         0.2976 
     85 H85        20.0301  -27.5326  -40.8859 H         1 UNK         0.3116 
     86 H86        19.8186  -28.9430  -38.4909 H         1 UNK         0.0646 
     87 H87        18.4189  -27.0962  -37.5560 H         1 UNK         0.0847 
     88 H88        20.0187  -26.9904  -36.8541 H         1 UNK         0.0847 
     89 H89        19.5606  -25.8887  -38.1447 H         1 UNK         0.0847 
     90 H90        21.8927  -29.1968  -37.7185 H         1 UNK         0.3040 
     91 H91        24.0554  -29.2463  -37.4866 H         1 UNK         0.1015 
     92 H92        23.9790  -26.2433  -38.0821 H         1 UNK         0.0786 
     93 H93        25.2848  -27.0993  -37.2772 H         1 UNK         0.0786 
     94 H94        23.7089  -26.9955  -36.5103 H         1 UNK         0.0786 
     95 H95        23.2424  -27.7702  -40.5842 H         1 UNK         0.3172 
     96 H96        25.8417  -27.9540  -41.7675 H         1 UNK         0.0595 
     97 H97        23.0707  -27.7721  -43.0708 H         1 UNK         0.0839 
     98 H98        24.6003  -27.4546  -43.8764 H         1 UNK         0.0839 
     99 H99        24.0644  -26.4033  -42.5740 H         1 UNK         0.0839 
    100 H100       26.8573  -29.5519  -42.8069 H         1 UNK         0.2998 
    101 H101       27.4529  -31.5329  -43.6302 H         1 UNK         0.0822 
    102 H102       24.7417  -31.2711  -45.0533 H         1 UNK         0.0787 
    103 H103       26.2677  -30.5740  -45.5734 H         1 UNK         0.0787 
    104 H104       26.0702  -32.3133  -45.5704 H         1 UNK         0.0787 
    105 H105       24.5493  -33.1359  -44.2049 H         1 UNK         0.3055 
    106 H106       25.1017  -35.3087  -42.4587 H         1 UNK         0.1106 
    107 H107       23.8961  -35.5567  -44.6224 H         1 UNK         0.0828 
    108 H108       22.9088  -36.1681  -43.3072 H         1 UNK         0.0828 
    109 H109       22.5478  -34.5972  -44.0081 H         1 UNK         0.0828 
    110 H110       23.3726  -32.3398  -41.8328 H         1 UNK         0.2931 
    111 H111       21.9252  -33.4154  -39.5098 H         1 UNK         0.0412 
    112 H112       25.5177  -32.1470  -38.2949 H         1 UNK         0.3472 
    113 H113       25.2174  -32.6381  -39.9429 H         1 UNK         0.3472 
    114 H114       21.1104  -31.1029  -39.2049 H         1 UNK         0.0970 
    115 H115       22.1032  -30.5373  -40.5155 H         1 UNK         0.0970 
    116 H116       21.2452  -30.1115  -42.5991 H         1 UNK         0.0612 
    117 H117       21.4436  -31.6952  -43.3219 H         1 UNK         0.0612 
@<TRIPOS>BOND
     1    1    2 1    
     2    1   62 1    
     3    1   63 1    
     4    1   64 1    
     5    2    3 2    
     6    2    4 am   BACKBONE|DICT|INTERRES
     7    4    5 1    
     8    4   65 1    
     9    5    6 1    
    10    5   25 1    
    11    5   66 1    
    12    6    7 1    
    13    6   67 1    
    14    6   68 1    
    15    7    8 1    
    16    8    9 1    
    17    8   69 1    
    18    8   70 1    
    19    9   10 ar   
    20    9   14 ar   
    21   10   11 ar   
    22   10   71 1    
    23   11   12 ar   
    24   11   61 1    
    25   12   13 ar   
    26   12   72 1    
    27   13   14 ar   
    28   13   15 1    
    29   14   73 1    
    30   15   16 1    
    31   15   74 1    
    32   15   75 1    
    33   16   17 1    
    34   17   18 1    
    35   17   76 1    
    36   17   77 1    
    37   18   19 1    
    38   18   27 1    
    39   18   78 1    
    40   19   20 am   BACKBONE|DICT|INTERRES
    41   19   79 1    
    42   20   21 2    
    43   20   22 1    
    44   22   23 1    
    45   22   24 1    
    46   22   80 1    
    47   23   81 1    
    48   23   82 1    
    49   23   83 1    
    50   24   25 am   BACKBONE|DICT|INTERRES
    51   24   84 1    
    52   25   26 2    
    53   27   28 2    
    54   27   29 am   BACKBONE|DICT|INTERRES
    55   29   30 1    
    56   29   85 1    
    57   30   31 1    
    58   30   32 1    
    59   30   86 1    
    60   31   87 1    
    61   31   88 1    
    62   31   89 1    
    63   32   33 2    
    64   32   34 am   BACKBONE|DICT|INTERRES
    65   34   35 1    
    66   34   90 1    
    67   35   36 1    
    68   35   37 1    
    69   35   91 1    
    70   36   92 1    
    71   36   93 1    
    72   36   94 1    
    73   37   38 2    
    74   37   39 am   BACKBONE|DICT|INTERRES
    75   39   40 1    
    76   39   95 1    
    77   40   41 1    
    78   40   42 1    
    79   40   96 1    
    80   41   97 1    
    81   41   98 1    
    82   41   99 1    
    83   42   43 2    
    84   42   44 am   BACKBONE|DICT|INTERRES
    85   44   45 1    
    86   44  100 1    
    87   45   46 1    
    88   45   47 1    
    89   45  101 1    
    90   46  102 1    
    91   46  103 1    
    92   46  104 1    
    93   47   48 2    
    94   47   49 am   BACKBONE|DICT|INTERRES
    95   49   50 1    
    96   49  105 1    
    97   50   51 1    
    98   50   52 1    
    99   50  106 1    
   100   51  107 1    
   101   51  108 1    
   102   51  109 1    
   103   52   53 2    
   104   52   54 am   BACKBONE|DICT|INTERRES
   105   54   55 1    
   106   54  110 1    
   107   55   56 1    
   108   55   59 1    
   109   55  111 1    
   110   56   57 am   BACKBONE|DICT|INTERRES
   111   56   58 2    
   112   57  112 1    
   113   57  113 1    
   114   59   60 1    
   115   59  114 1    
   116   59  115 1    
   117   60   61 1    
   118   61  116 1    
   119   61  117 1    
@<TRIPOS>SUBSTRUCTURE
     1 UNK         1 GROUP             0       ****    0 ROOT    
