@<TRIPOS>MOLECULE
3R8
117   119    1
SMALL
USER_CHARGES


@<TRIPOS>ATOM
      1 CA         17.2415  -23.8190  -39.9115 C.3       0 UNK        -0.2013 
      2 C          16.9050  -24.3349  -41.3026 C.2       0 UNK         0.4866 
      3 O          15.7469  -24.2759  -41.7162 O.2       0 UNK        -0.5176 
      4 N          17.9088  -24.8378  -42.0263 N.am      1 UNK        -0.4884 
      5 CA         17.8131  -25.3543  -43.3899 C.3       1 UNK         0.0853 
      6 C6         17.1327  -26.7497  -43.4598 C.3       10 UNK        -0.0849 
      7 S7         16.2094  -26.9703  -45.0120 S.3       10 UNK        -0.2776 
      8 C8         15.7300  -28.7278  -44.8872 C.3       10 UNK         0.0316 
      9 C9         16.8495  -29.7163  -45.2139 C.ar      10 UNK        -0.0863 
     10 C10        16.9145  -30.9358  -44.5294 C.ar      10 UNK        -0.1009 
     11 C11        17.8674  -31.9012  -44.8728 C.ar      10 UNK        -0.0712 
     12 C12        18.7488  -31.6418  -45.9267 C.ar      10 UNK        -0.0894 
     13 C13        18.7520  -30.3992  -46.5662 C.ar      10 UNK        -0.0745 
     14 C14        17.7815  -29.4537  -46.2252 C.ar      10 UNK        -0.0972 
     15 C15        19.8088  -30.0591  -47.6126 C.3       10 UNK         0.0209 
     16 S16        21.5307  -30.4734  -47.1356 S.3       10 UNK        -0.2568 
     17 C17        21.6310  -30.1773  -45.3320 C.3       10 UNK        -0.0983 
     18 CA         22.0988  -28.7606  -44.9387 C.3       3 UNK         0.0876 
     19 N          21.2345  -27.7003  -45.4642 N.am      3 UNK        -0.4424 
     20 C          21.6457  -26.4388  -45.6477 C.2       2 UNK         0.4918 
     21 O          22.8007  -26.0567  -45.4583 O.2       2 UNK        -0.4875 
     22 CA         20.5781  -25.4206  -46.0839 C.3       2 UNK         0.0481 
     23 CB         20.2689  -25.5632  -47.5830 C.3       2 UNK        -0.1831 
     24 N          19.3308  -25.4882  -45.3129 N.am      2 UNK        -0.4498 
     25 C          19.2336  -25.3636  -43.9815 C.2       1 UNK         0.5027 
     26 O          20.2051  -25.2693  -43.2243 O.2       1 UNK        -0.4969 
     27 C          22.1982  -28.6706  -43.4053 C.2       3 UNK         0.5005 
     28 O          23.2891  -28.8466  -42.8654 O.2       3 UNK        -0.5279 
     29 N          21.0642  -28.3957  -42.7373 N.am      4 UNK        -0.4463 
     30 CA         20.9105  -28.3696  -41.2755 C.3       4 UNK         0.0283 
     31 CB         19.4435  -28.1056  -40.9077 C.3       4 UNK        -0.1875 
     32 C          21.8389  -27.3764  -40.5519 C.2       4 UNK         0.4949 
     33 O          22.1969  -27.6067  -39.3971 O.2       4 UNK        -0.5039 
     34 N          22.2230  -26.2984  -41.2461 N.am      5 UNK        -0.4663 
     35 CA         23.2089  -25.3194  -40.7897 C.3       5 UNK         0.0242 
     36 CB         23.0752  -24.0549  -41.6541 C.3       5 UNK        -0.1982 
     37 C          24.6623  -25.8359  -40.8171 C.2       5 UNK         0.5017 
     38 O          25.5072  -25.2418  -40.1458 O.2       5 UNK        -0.5012 
     39 N          24.9413  -26.8922  -41.5952 N.am      6 UNK        -0.4439 
     40 CA         26.2816  -27.4408  -41.8176 C.3       6 UNK         0.0297 
     41 CB         26.5372  -27.5415  -43.3310 C.3       6 UNK        -0.2006 
     42 C          26.4768  -28.8139  -41.1555 C.2       6 UNK         0.4892 
     43 O          27.5651  -29.0739  -40.6400 O.2       6 UNK        -0.5089 
     44 N          25.4479  -29.6689  -41.1840 N.am      7 UNK        -0.4243 
     45 CA         25.4596  -31.0251  -40.6356 C.3       7 UNK         0.0196 
     46 CB         25.7564  -32.0238  -41.7678 C.3       7 UNK        -0.2007 
     47 C          24.1033  -31.3241  -39.9907 C.2       7 UNK         0.5020 
     48 O          23.1104  -30.6840  -40.3306 O.2       7 UNK        -0.5147 
     49 N          24.0623  -32.3093  -39.0870 N.am      8 UNK        -0.4734 
     50 CA         22.8710  -32.6989  -38.3218 C.3       8 UNK         0.0238 
     51 CB         23.3232  -33.4502  -37.0545 C.3       8 UNK        -0.1912 
     52 C          21.8422  -33.5003  -39.1505 C.2       8 UNK         0.5038 
     53 O          21.5271  -34.6395  -38.7995 O.2       8 UNK        -0.5046 
     54 N          21.3438  -32.8999  -40.2386 N.am      9 UNK        -0.4200 
     55 CA         20.2664  -33.4410  -41.0796 C.3       9 UNK         0.0839 
     56 C          18.9007  -33.4622  -40.3396 C.2       9 UNK         0.5513 
     57 N          18.0977  -34.4975  -40.5420 N.am      9 UNK        -0.7519 
     58 O          18.5520  -32.5321  -39.6153 O.2       9 UNK        -0.4960 
     59 C59        20.1699  -32.6951  -42.4393 C.3       10 UNK        -0.0876 
     60 S60        19.6178  -33.8119  -43.7747 S.3       10 UNK        -0.2414 
     61 C61        17.9201  -33.2271  -44.1178 C.3       10 UNK         0.0169 
     62 H62        16.6615  -24.3566  -39.1619 H         1 UNK         0.0903 
     63 H63        18.2982  -23.9431  -39.6750 H         1 UNK         0.0903 
     64 H64        16.9988  -22.7594  -39.8352 H         1 UNK         0.0903 
     65 H65        18.8623  -24.8114  -41.6823 H         1 UNK         0.3096 
     66 H66        17.2292  -24.6275  -43.9601 H         1 UNK         0.1121 
     67 H67        16.4145  -26.8683  -42.6470 H         1 UNK         0.0849 
     68 H68        17.8496  -27.5635  -43.3412 H         1 UNK         0.0849 
     69 H69        15.3302  -28.9138  -43.8889 H         1 UNK         0.0865 
     70 H70        14.9088  -28.9083  -45.5819 H         1 UNK         0.0865 
     71 H71        16.2053  -31.1452  -43.7399 H         1 UNK         0.1346 
     72 H72        19.4828  -32.3837  -46.2095 H         1 UNK         0.1412 
     73 H73        17.7472  -28.5129  -46.7567 H         1 UNK         0.1426 
     74 H74        19.5679  -30.5848  -48.5374 H         1 UNK         0.0716 
     75 H75        19.7766  -28.9959  -47.8528 H         1 UNK         0.0716 
     76 H76        20.6935  -30.4126  -44.8343 H         1 UNK         0.0695 
     77 H77        22.3413  -30.9119  -44.9466 H         1 UNK         0.0695 
     78 H78        23.1056  -28.6217  -45.3404 H         1 UNK         0.0983 
     79 H79        20.2762  -27.9423  -45.6633 H         1 UNK         0.3095 
     80 H80        20.9977  -24.4253  -45.9235 H         1 UNK         0.0454 
     81 H81        19.7754  -26.5082  -47.8102 H         1 UNK         0.0851 
     82 H82        19.6242  -24.7568  -47.9330 H         1 UNK         0.0851 
     83 H83        21.1835  -25.5222  -48.1765 H         1 UNK         0.0851 
     84 H84        18.4767  -25.5823  -45.8453 H         1 UNK         0.2976 
     85 H85        20.2278  -28.2391  -43.2765 H         1 UNK         0.3116 
     86 H86        21.1470  -29.3684  -40.9152 H         1 UNK         0.0646 
     87 H87        19.1242  -27.1139  -41.2200 H         1 UNK         0.0847 
     88 H88        18.7771  -28.8411  -41.3585 H         1 UNK         0.0847 
     89 H89        19.2998  -28.1637  -39.8278 H         1 UNK         0.0847 
     90 H90        21.8108  -26.1426  -42.1599 H         1 UNK         0.3040 
     91 H91        22.9781  -25.0553  -39.7552 H         1 UNK         0.1015 
     92 H92        23.2740  -24.2647  -42.7063 H         1 UNK         0.0786 
     93 H93        23.7777  -23.2838  -41.3346 H         1 UNK         0.0786 
     94 H94        22.0736  -23.6301  -41.5827 H         1 UNK         0.0786 
     95 H95        24.1783  -27.3708  -42.0675 H         1 UNK         0.3172 
     96 H96        27.0367  -26.7703  -41.4020 H         1 UNK         0.0595 
     97 H97        27.5352  -27.9326  -43.5335 H         1 UNK         0.0839 
     98 H98        26.4688  -26.5644  -43.8095 H         1 UNK         0.0839 
     99 H99        25.8218  -28.2035  -43.8206 H         1 UNK         0.0839 
    100 H100       24.5668  -29.3882  -41.6128 H         1 UNK         0.2998 
    101 H101       26.2259  -31.1102  -39.8620 H         1 UNK         0.0822 
    102 H102       25.7719  -33.0494  -41.3970 H         1 UNK         0.0787 
    103 H103       25.0031  -31.9707  -42.5554 H         1 UNK         0.0787 
    104 H104       26.7283  -31.8290  -42.2217 H         1 UNK         0.0787 
    105 H105       24.9085  -32.8265  -38.8936 H         1 UNK         0.3055 
    106 H106       22.3613  -31.7890  -37.9953 H         1 UNK         0.1106 
    107 H107       23.9844  -32.8362  -36.4427 H         1 UNK         0.0828 
    108 H108       22.4684  -33.7176  -36.4315 H         1 UNK         0.0828 
    109 H109       23.8507  -34.3734  -37.2978 H         1 UNK         0.0828 
    110 H110       21.6843  -31.9676  -40.4539 H         1 UNK         0.2931 
    111 H111       20.5514  -34.4762  -41.2815 H         1 UNK         0.0412 
    112 H112       17.2026  -34.5246  -40.0791 H         1 UNK         0.3472 
    113 H113       18.3725  -35.2538  -41.1497 H         1 UNK         0.3472 
    114 H114       19.5306  -31.8114  -42.3799 H         1 UNK         0.0970 
    115 H115       21.1524  -32.3244  -42.7363 H         1 UNK         0.0970 
    116 H116       17.4095  -33.9822  -44.7165 H         1 UNK         0.0612 
    117 H117       17.3748  -33.1585  -43.1752 H         1 UNK         0.0612 
@<TRIPOS>BOND
     1    1    2 1    
     2    1   62 1    
     3    1   63 1    
     4    1   64 1    
     5    2    3 2    
     6    2    4 am   BACKBONE|DICT|INTERRES
     7    4    5 1    
     8    4   65 1    
     9    5    6 1    
    10    5   25 1    
    11    5   66 1    
    12    6    7 1    
    13    6   67 1    
    14    6   68 1    
    15    7    8 1    
    16    8    9 1    
    17    8   69 1    
    18    8   70 1    
    19    9   10 ar   
    20    9   14 ar   
    21   10   11 ar   
    22   10   71 1    
    23   11   12 ar   
    24   11   61 1    
    25   12   13 ar   
    26   12   72 1    
    27   13   14 ar   
    28   13   15 1    
    29   14   73 1    
    30   15   16 1    
    31   15   74 1    
    32   15   75 1    
    33   16   17 1    
    34   17   18 1    
    35   17   76 1    
    36   17   77 1    
    37   18   19 1    
    38   18   27 1    
    39   18   78 1    
    40   19   20 am   BACKBONE|DICT|INTERRES
    41   19   79 1    
    42   20   21 2    
    43   20   22 1    
    44   22   23 1    
    45   22   24 1    
    46   22   80 1    
    47   23   81 1    
    48   23   82 1    
    49   23   83 1    
    50   24   25 am   BACKBONE|DICT|INTERRES
    51   24   84 1    
    52   25   26 2    
    53   27   28 2    
    54   27   29 am   BACKBONE|DICT|INTERRES
    55   29   30 1    
    56   29   85 1    
    57   30   31 1    
    58   30   32 1    
    59   30   86 1    
    60   31   87 1    
    61   31   88 1    
    62   31   89 1    
    63   32   33 2    
    64   32   34 am   BACKBONE|DICT|INTERRES
    65   34   35 1    
    66   34   90 1    
    67   35   36 1    
    68   35   37 1    
    69   35   91 1    
    70   36   92 1    
    71   36   93 1    
    72   36   94 1    
    73   37   38 2    
    74   37   39 am   BACKBONE|DICT|INTERRES
    75   39   40 1    
    76   39   95 1    
    77   40   41 1    
    78   40   42 1    
    79   40   96 1    
    80   41   97 1    
    81   41   98 1    
    82   41   99 1    
    83   42   43 2    
    84   42   44 am   BACKBONE|DICT|INTERRES
    85   44   45 1    
    86   44  100 1    
    87   45   46 1    
    88   45   47 1    
    89   45  101 1    
    90   46  102 1    
    91   46  103 1    
    92   46  104 1    
    93   47   48 2    
    94   47   49 am   BACKBONE|DICT|INTERRES
    95   49   50 1    
    96   49  105 1    
    97   50   51 1    
    98   50   52 1    
    99   50  106 1    
   100   51  107 1    
   101   51  108 1    
   102   51  109 1    
   103   52   53 2    
   104   52   54 am   BACKBONE|DICT|INTERRES
   105   54   55 1    
   106   54  110 1    
   107   55   56 1    
   108   55   59 1    
   109   55  111 1    
   110   56   57 am   BACKBONE|DICT|INTERRES
   111   56   58 2    
   112   57  112 1    
   113   57  113 1    
   114   59   60 1    
   115   59  114 1    
   116   59  115 1    
   117   60   61 1    
   118   61  116 1    
   119   61  117 1    
@<TRIPOS>SUBSTRUCTURE
     1 UNK         1 GROUP             0       ****    0 ROOT    
