@<TRIPOS>MOLECULE
3R8
117   119    1
SMALL
USER_CHARGES


@<TRIPOS>ATOM
      1 CA         17.1028  -27.0795  -41.8573 C.3       0 UNK        -0.2013 
      2 C          17.4530  -26.7145  -43.2909 C.2       0 UNK         0.4866 
      3 O          18.6182  -26.8302  -43.6780 O.2       0 UNK        -0.5176 
      4 N          16.4546  -26.2684  -44.0717 N.am      1 UNK        -0.4884 
      5 CA         16.5756  -25.7961  -45.4598 C.3       1 UNK         0.0853 
      6 C6         16.9255  -26.9390  -46.4573 C.3       10 UNK        -0.0849 
      7 S7         15.5740  -28.1340  -46.7568 S.3       10 UNK        -0.2776 
      8 C8         15.6339  -29.3100  -45.3528 C.3       10 UNK         0.0316 
      9 C9         17.0032  -29.8953  -45.0039 C.ar      10 UNK        -0.0863 
     10 C10        17.2475  -30.2690  -43.6782 C.ar      10 UNK        -0.1009 
     11 C11        18.4992  -30.7495  -43.2862 C.ar      10 UNK        -0.0712 
     12 C12        19.5131  -30.8726  -44.2376 C.ar      10 UNK        -0.0894 
     13 C13        19.2950  -30.4791  -45.5614 C.ar      10 UNK        -0.0745 
     14 C14        18.0264  -30.0403  -45.9496 C.ar      10 UNK        -0.0972 
     15 C15        20.4535  -30.4404  -46.5492 C.3       10 UNK         0.0209 
     16 S16        21.0943  -28.7398  -46.7718 S.3       10 UNK        -0.2568 
     17 C17        21.6441  -28.3295  -45.0793 C.3       10 UNK        -0.0983 
     18 CA         21.9881  -26.8389  -44.8367 C.3       3 UNK         0.0876 
     19 N          20.9189  -25.9336  -45.2582 N.am      3 UNK        -0.4424 
     20 C          21.1095  -24.7035  -45.7571 C.2       2 UNK         0.4918 
     21 O          22.2225  -24.1984  -45.9094 O.2       2 UNK        -0.4875 
     22 CA         19.8600  -23.9035  -46.1797 C.3       2 UNK         0.0481 
     23 CB         20.0485  -23.2443  -47.5580 C.3       2 UNK        -0.1831 
     24 N          18.6810  -24.7684  -46.2237 N.am      2 UNK        -0.4498 
     25 C          17.5639  -24.6053  -45.5047 C.2       1 UNK         0.5027 
     26 O          17.3113  -23.5917  -44.8494 O.2       1 UNK        -0.4969 
     27 C          22.2810  -26.6141  -43.3429 C.2       3 UNK         0.5005 
     28 O          23.4273  -26.3606  -42.9702 O.2       3 UNK        -0.5279 
     29 N          21.2228  -26.7102  -42.5215 N.am      4 UNK        -0.4463 
     30 CA         21.2076  -26.5737  -41.0638 C.3       4 UNK         0.0283 
     31 CB         21.3210  -25.0804  -40.6822 C.3       4 UNK        -0.1875 
     32 C          22.2347  -27.4913  -40.3630 C.2       4 UNK         0.4949 
     33 O          22.3598  -28.6651  -40.7257 O.2       4 UNK        -0.5039 
     34 N          22.9555  -26.9445  -39.3753 N.am      5 UNK        -0.4663 
     35 CA         23.9446  -27.6370  -38.5443 C.3       5 UNK         0.0242 
     36 CB         24.3338  -26.7223  -37.3712 C.3       5 UNK        -0.1982 
     37 C          25.2014  -28.1179  -39.2927 C.2       5 UNK         0.5017 
     38 O          25.9360  -28.9367  -38.7399 O.2       5 UNK        -0.5012 
     39 N          25.4327  -27.6304  -40.5223 N.am      6 UNK        -0.4439 
     40 CA         26.5003  -28.1212  -41.3999 C.3       6 UNK         0.0297 
     41 CB         26.7260  -27.1407  -42.5613 C.3       6 UNK        -0.2006 
     42 C          26.2144  -29.5385  -41.9291 C.2       6 UNK         0.4892 
     43 O          27.1621  -30.2856  -42.1749 O.2       6 UNK        -0.5089 
     44 N          24.9271  -29.8864  -42.0708 N.am      7 UNK        -0.4243 
     45 CA         24.4704  -31.2430  -42.3666 C.3       7 UNK         0.0196 
     46 CB         23.2597  -31.1981  -43.3095 C.3       7 UNK        -0.2007 
     47 C          24.1205  -31.9893  -41.0743 C.2       7 UNK         0.5020 
     48 O          24.5747  -33.1200  -40.9007 O.2       7 UNK        -0.5147 
     49 N          23.3218  -31.3466  -40.2034 N.am      8 UNK        -0.4734 
     50 CA         22.7967  -31.8757  -38.9348 C.3       8 UNK         0.0238 
     51 CB         23.9257  -32.0020  -37.8898 C.3       8 UNK        -0.1912 
     52 C          22.0083  -33.1873  -39.1350 C.2       8 UNK         0.5038 
     53 O          22.3220  -34.2046  -38.5127 O.2       8 UNK        -0.5046 
     54 N          21.0330  -33.1334  -40.0517 N.am      9 UNK        -0.4200 
     55 CA         20.1873  -34.2536  -40.4894 C.3       9 UNK         0.0839 
     56 C          19.3829  -34.9453  -39.3488 C.2       9 UNK         0.5513 
     57 N          19.0420  -36.2158  -39.5195 N.am      9 UNK        -0.7519 
     58 O          19.0389  -34.3400  -38.3351 O.2       9 UNK        -0.4960 
     59 C59        19.2855  -33.8371  -41.6863 C.3       10 UNK        -0.0876 
     60 S60        18.0088  -32.5966  -41.2681 S.3       10 UNK        -0.2414 
     61 C61        18.7752  -31.0437  -41.8196 C.3       10 UNK         0.0169 
     62 H62        17.5126  -26.3372  -41.1730 H         1 UNK         0.0903 
     63 H63        17.5299  -28.0476  -41.6026 H         1 UNK         0.0903 
     64 H64        16.0256  -27.1333  -41.7016 H         1 UNK         0.0903 
     65 H65        15.5321  -26.1684  -43.6718 H         1 UNK         0.3096 
     66 H66        15.6053  -25.3852  -45.7440 H         1 UNK         0.1121 
     67 H67        17.8342  -27.4552  -46.1517 H         1 UNK         0.0849 
     68 H68        17.1404  -26.5222  -47.4430 H         1 UNK         0.0849 
     69 H69        15.2190  -28.8030  -44.4807 H         1 UNK         0.0865 
     70 H70        14.9558  -30.1359  -45.5702 H         1 UNK         0.0865 
     71 H71        16.4696  -30.1567  -42.9353 H         1 UNK         0.1346 
     72 H72        20.4920  -31.2124  -43.9357 H         1 UNK         0.1412 
     73 H73        17.8634  -29.7445  -46.9764 H         1 UNK         0.1426 
     74 H74        21.2653  -31.0901  -46.2184 H         1 UNK         0.0716 
     75 H75        20.1244  -30.8264  -47.5150 H         1 UNK         0.0716 
     76 H76        20.8615  -28.6365  -44.3874 H         1 UNK         0.0695 
     77 H77        22.5155  -28.9432  -44.8577 H         1 UNK         0.0695 
     78 H78        22.8979  -26.6106  -45.3966 H         1 UNK         0.0983 
     79 H79        19.9756  -26.2430  -45.0493 H         1 UNK         0.3095 
     80 H80        19.7294  -23.1155  -45.4356 H         1 UNK         0.0454 
     81 H81        20.2411  -23.9840  -48.3359 H         1 UNK         0.0851 
     82 H82        19.1655  -22.6748  -47.8479 H         1 UNK         0.0851 
     83 H83        20.8898  -22.5502  -47.5512 H         1 UNK         0.0851 
     84 H84        18.7951  -25.6287  -46.7412 H         1 UNK         0.2976 
     85 H85        20.3161  -26.9050  -42.9437 H         1 UNK         0.3116 
     86 H86        20.2267  -26.9245  -40.7403 H         1 UNK         0.0646 
     87 H87        22.2963  -24.6656  -40.9409 H         1 UNK         0.0847 
     88 H88        20.5674  -24.4888  -41.2024 H         1 UNK         0.0847 
     89 H89        21.1577  -24.9236  -39.6153 H         1 UNK         0.0847 
     90 H90        22.7974  -25.9703  -39.1606 H         1 UNK         0.3040 
     91 H91        23.4643  -28.5294  -38.1365 H         1 UNK         0.1015 
     92 H92        24.8046  -25.8010  -37.7170 H         1 UNK         0.0786 
     93 H93        25.0408  -27.2187  -36.7047 H         1 UNK         0.0786 
     94 H94        23.4644  -26.4524  -36.7713 H         1 UNK         0.0786 
     95 H95        24.7774  -26.9679  -40.9173 H         1 UNK         0.3172 
     96 H96        27.4227  -28.1641  -40.8165 H         1 UNK         0.0595 
     97 H97        27.5969  -27.4341  -43.1489 H         1 UNK         0.0839 
     98 H98        26.9047  -26.1273  -42.2018 H         1 UNK         0.0839 
     99 H99        25.8759  -27.1130  -43.2424 H         1 UNK         0.0839 
    100 H100       24.2162  -29.2123  -41.8148 H         1 UNK         0.2998 
    101 H101       25.2605  -31.8052  -42.8697 H         1 UNK         0.0822 
    102 H102       22.8118  -32.1866  -43.4228 H         1 UNK         0.0787 
    103 H103       22.4867  -30.5232  -42.9407 H         1 UNK         0.0787 
    104 H104       23.5589  -30.8699  -44.3042 H         1 UNK         0.0787 
    105 H105       22.9909  -30.4167  -40.4536 H         1 UNK         0.3055 
    106 H106       22.0823  -31.1412  -38.5587 H         1 UNK         0.1106 
    107 H107       24.4338  -31.0503  -37.7373 H         1 UNK         0.0828 
    108 H108       23.5295  -32.3158  -36.9233 H         1 UNK         0.0828 
    109 H109       24.6749  -32.7362  -38.1875 H         1 UNK         0.0828 
    110 H110       20.8452  -32.2468  -40.4909 H         1 UNK         0.2931 
    111 H111       20.8856  -35.0033  -40.8673 H         1 UNK         0.0412 
    112 H112       18.5099  -36.6809  -38.8002 H         1 UNK         0.3472 
    113 H113       19.3113  -36.7228  -40.3486 H         1 UNK         0.3472 
    114 H114       19.8995  -33.4643  -42.5076 H         1 UNK         0.0970 
    115 H115       18.7761  -34.7142  -42.0890 H         1 UNK         0.0970 
    116 H116       19.8474  -31.0583  -41.6215 H         1 UNK         0.0612 
    117 H117       18.3734  -30.2324  -41.2123 H         1 UNK         0.0612 
@<TRIPOS>BOND
     1    1    2 1    
     2    1   62 1    
     3    1   63 1    
     4    1   64 1    
     5    2    3 2    
     6    2    4 am   BACKBONE|DICT|INTERRES
     7    4    5 1    
     8    4   65 1    
     9    5    6 1    
    10    5   25 1    
    11    5   66 1    
    12    6    7 1    
    13    6   67 1    
    14    6   68 1    
    15    7    8 1    
    16    8    9 1    
    17    8   69 1    
    18    8   70 1    
    19    9   10 ar   
    20    9   14 ar   
    21   10   11 ar   
    22   10   71 1    
    23   11   12 ar   
    24   11   61 1    
    25   12   13 ar   
    26   12   72 1    
    27   13   14 ar   
    28   13   15 1    
    29   14   73 1    
    30   15   16 1    
    31   15   74 1    
    32   15   75 1    
    33   16   17 1    
    34   17   18 1    
    35   17   76 1    
    36   17   77 1    
    37   18   19 1    
    38   18   27 1    
    39   18   78 1    
    40   19   20 am   BACKBONE|DICT|INTERRES
    41   19   79 1    
    42   20   21 2    
    43   20   22 1    
    44   22   23 1    
    45   22   24 1    
    46   22   80 1    
    47   23   81 1    
    48   23   82 1    
    49   23   83 1    
    50   24   25 am   BACKBONE|DICT|INTERRES
    51   24   84 1    
    52   25   26 2    
    53   27   28 2    
    54   27   29 am   BACKBONE|DICT|INTERRES
    55   29   30 1    
    56   29   85 1    
    57   30   31 1    
    58   30   32 1    
    59   30   86 1    
    60   31   87 1    
    61   31   88 1    
    62   31   89 1    
    63   32   33 2    
    64   32   34 am   BACKBONE|DICT|INTERRES
    65   34   35 1    
    66   34   90 1    
    67   35   36 1    
    68   35   37 1    
    69   35   91 1    
    70   36   92 1    
    71   36   93 1    
    72   36   94 1    
    73   37   38 2    
    74   37   39 am   BACKBONE|DICT|INTERRES
    75   39   40 1    
    76   39   95 1    
    77   40   41 1    
    78   40   42 1    
    79   40   96 1    
    80   41   97 1    
    81   41   98 1    
    82   41   99 1    
    83   42   43 2    
    84   42   44 am   BACKBONE|DICT|INTERRES
    85   44   45 1    
    86   44  100 1    
    87   45   46 1    
    88   45   47 1    
    89   45  101 1    
    90   46  102 1    
    91   46  103 1    
    92   46  104 1    
    93   47   48 2    
    94   47   49 am   BACKBONE|DICT|INTERRES
    95   49   50 1    
    96   49  105 1    
    97   50   51 1    
    98   50   52 1    
    99   50  106 1    
   100   51  107 1    
   101   51  108 1    
   102   51  109 1    
   103   52   53 2    
   104   52   54 am   BACKBONE|DICT|INTERRES
   105   54   55 1    
   106   54  110 1    
   107   55   56 1    
   108   55   59 1    
   109   55  111 1    
   110   56   57 am   BACKBONE|DICT|INTERRES
   111   56   58 2    
   112   57  112 1    
   113   57  113 1    
   114   59   60 1    
   115   59  114 1    
   116   59  115 1    
   117   60   61 1    
   118   61  116 1    
   119   61  117 1    
@<TRIPOS>SUBSTRUCTURE
     1 UNK         1 GROUP             0       ****    0 ROOT    
