@<TRIPOS>MOLECULE
3R8
117   119    1
SMALL
USER_CHARGES


@<TRIPOS>ATOM
      1 CA         15.7549  -23.7714  -42.4985 C.3       0 UNK        -0.2013 
      2 C          16.4610  -25.0484  -42.9273 C.2       0 UNK         0.4866 
      3 O          17.3603  -24.9993  -43.7673 O.2       0 UNK        -0.5176 
      4 N          16.0656  -26.1935  -42.3566 N.am      1 UNK        -0.4884 
      5 CA         16.6344  -27.5176  -42.6317 C.3       1 UNK         0.0853 
      6 C6         15.6483  -28.6558  -42.2613 C.3       10 UNK        -0.0849 
      7 S7         14.2918  -28.7571  -43.4784 S.3       10 UNK        -0.2776 
      8 C8         14.8421  -30.1357  -44.5439 C.3       10 UNK         0.0316 
      9 C9         16.2681  -29.9476  -45.0492 C.ar      10 UNK        -0.0863 
     10 C10        17.3018  -30.7440  -44.5458 C.ar      10 UNK        -0.1009 
     11 C11        18.6187  -30.5491  -44.9694 C.ar      10 UNK        -0.0712 
     12 C12        18.8947  -29.5608  -45.9173 C.ar      10 UNK        -0.0894 
     13 C13        17.8721  -28.7581  -46.4350 C.ar      10 UNK        -0.0745 
     14 C14        16.5581  -28.9644  -46.0010 C.ar      10 UNK        -0.0972 
     15 C15        18.1693  -27.6922  -47.4851 C.3       10 UNK         0.0209 
     16 S16        19.1172  -26.2782  -46.8237 S.3       10 UNK        -0.2568 
     17 C17        20.8388  -26.8665  -47.0130 C.3       10 UNK        -0.0983 
     18 CA         21.7061  -26.8285  -45.7205 C.3       3 UNK         0.0876 
     19 N          20.9433  -27.0678  -44.4899 N.am      3 UNK        -0.4424 
     20 C          21.4214  -26.9956  -43.2375 C.2       2 UNK         0.4918 
     21 O          22.6169  -26.8715  -42.9616 O.2       2 UNK        -0.4875 
     22 CA         20.4066  -27.0277  -42.0814 C.3       2 UNK         0.0481 
     23 CB         20.6053  -25.8351  -41.1251 C.3       2 UNK        -0.1831 
     24 N          19.0200  -27.0304  -42.5432 N.am      2 UNK        -0.4498 
     25 C          18.0087  -27.6773  -41.9549 C.2       1 UNK         0.5027 
     26 O          18.1189  -28.3378  -40.9204 O.2       1 UNK        -0.4969 
     27 C          22.8914  -27.8030  -45.8602 C.2       3 UNK         0.5005 
     28 O          22.6793  -29.0158  -45.7848 O.2       3 UNK        -0.5279 
     29 N          24.1022  -27.2616  -46.0645 N.am      4 UNK        -0.4463 
     30 CA         25.3971  -27.9371  -46.2639 C.3       4 UNK         0.0283 
     31 CB         25.3828  -28.8087  -47.5348 C.3       4 UNK        -0.1875 
     32 C          25.9174  -28.7430  -45.0568 C.2       4 UNK         0.4949 
     33 O          27.1177  -28.7108  -44.7867 O.2       4 UNK        -0.5039 
     34 N          25.0211  -29.4390  -44.3497 N.am      5 UNK        -0.4663 
     35 CA         25.3051  -30.2593  -43.1713 C.3       5 UNK         0.0242 
     36 CB         24.1119  -31.1967  -42.9317 C.3       5 UNK        -0.1982 
     37 C          25.5993  -29.4388  -41.9030 C.2       5 UNK         0.5017 
     38 O          26.1181  -30.0066  -40.9429 O.2       5 UNK        -0.5012 
     39 N          25.2485  -28.1427  -41.9086 N.am      6 UNK        -0.4439 
     40 CA         25.4088  -27.1734  -40.8179 C.3       6 UNK         0.0297 
     41 CB         26.9005  -26.9219  -40.5093 C.3       6 UNK        -0.2006 
     42 C          24.5875  -27.5676  -39.5771 C.2       6 UNK         0.4892 
     43 O          25.1313  -27.6871  -38.4784 O.2       6 UNK        -0.5089 
     44 N          23.2832  -27.7783  -39.8061 N.am      7 UNK        -0.4243 
     45 CA         22.2454  -28.1437  -38.8289 C.3       7 UNK         0.0196 
     46 CB         22.1301  -27.0942  -37.7025 C.3       7 UNK        -0.2007 
     47 C          22.3451  -29.5832  -38.2878 C.2       7 UNK         0.5020 
     48 O          21.6235  -29.9218  -37.3497 O.2       7 UNK        -0.5147 
     49 N          23.1781  -30.4287  -38.9105 N.am      8 UNK        -0.4734 
     50 CA         23.2819  -31.8634  -38.6133 C.3       8 UNK         0.0238 
     51 CB         24.7123  -32.3406  -38.9178 C.3       8 UNK        -0.1912 
     52 C          22.2316  -32.7182  -39.3553 C.2       8 UNK         0.5038 
     53 O          22.2675  -33.9435  -39.2323 O.2       8 UNK        -0.5046 
     54 N          21.3339  -32.0727  -40.1144 N.am      9 UNK        -0.4200 
     55 CA         20.2006  -32.6724  -40.8361 C.3       9 UNK         0.0839 
     56 C          19.2466  -33.4786  -39.9115 C.2       9 UNK         0.5513 
     57 N          18.7364  -34.6085  -40.3816 N.am      9 UNK        -0.7519 
     58 O          18.9290  -33.0638  -38.7988 O.2       9 UNK        -0.4960 
     59 C59        19.3966  -31.5937  -41.6093 C.3       10 UNK        -0.0876 
     60 S60        20.4038  -30.7285  -42.8608 S.3       10 UNK        -0.2414 
     61 C61        19.7494  -31.4058  -44.4174 C.3       10 UNK         0.0169 
     62 H62        15.2897  -23.2935  -43.3604 H         1 UNK         0.0903 
     63 H63        14.9794  -23.9624  -41.7570 H         1 UNK         0.0903 
     64 H64        16.4723  -23.0733  -42.0677 H         1 UNK         0.0903 
     65 H65        15.3294  -26.1729  -41.6651 H         1 UNK         0.3096 
     66 H66        16.8266  -27.5789  -43.7035 H         1 UNK         0.1121 
     67 H67        15.2275  -28.4965  -41.2670 H         1 UNK         0.0849 
     68 H68        16.1510  -29.6234  -42.2150 H         1 UNK         0.0849 
     69 H69        14.7494  -31.0708  -43.9892 H         1 UNK         0.0865 
     70 H70        14.1646  -30.2200  -45.3947 H         1 UNK         0.0865 
     71 H71        17.0818  -31.5091  -43.8150 H         1 UNK         0.1346 
     72 H72        19.9142  -29.4269  -46.2460 H         1 UNK         0.1412 
     73 H73        15.7575  -28.3491  -46.3894 H         1 UNK         0.1426 
     74 H74        17.2362  -27.3034  -47.8957 H         1 UNK         0.0716 
     75 H75        18.6959  -28.1407  -48.3285 H         1 UNK         0.0716 
     76 H76        21.3111  -26.2444  -47.7752 H         1 UNK         0.0695 
     77 H77        20.8192  -27.8640  -47.4527 H         1 UNK         0.0695 
     78 H78        22.1036  -25.8159  -45.6238 H         1 UNK         0.0983 
     79 H79        19.9594  -27.2410  -44.6284 H         1 UNK         0.3095 
     80 H80        20.6052  -27.9548  -41.5432 H         1 UNK         0.0454 
     81 H81        21.6372  -25.7501  -40.7852 H         1 UNK         0.0851 
     82 H82        19.9820  -25.9336  -40.2364 H         1 UNK         0.0851 
     83 H83        20.3491  -24.8915  -41.6081 H         1 UNK         0.0851 
     84 H84        18.7850  -26.3962  -43.3013 H         1 UNK         0.2976 
     85 H85        24.1594  -26.2519  -46.0714 H         1 UNK         0.3116 
     86 H86        26.1189  -27.1356  -46.4300 H         1 UNK         0.0646 
     87 H87        24.6917  -29.6477  -47.4479 H         1 UNK         0.0847 
     88 H88        25.0968  -28.2281  -48.4117 H         1 UNK         0.0847 
     89 H89        26.3716  -29.2254  -47.7313 H         1 UNK         0.0847 
     90 H90        24.0592  -29.4220  -44.6869 H         1 UNK         0.3040 
     91 H91        26.1880  -30.8662  -43.3836 H         1 UNK         0.1015 
     92 H92        24.3413  -31.9404  -42.1698 H         1 UNK         0.0786 
     93 H93        23.8373  -31.7393  -43.8366 H         1 UNK         0.0786 
     94 H94        23.2375  -30.6419  -42.5946 H         1 UNK         0.0786 
     95 H95        24.7671  -27.7982  -42.7304 H         1 UNK         0.3172 
     96 H96        24.9881  -26.2339  -41.1799 H         1 UNK         0.0595 
     97 H97        27.3888  -27.8071  -40.1005 H         1 UNK         0.0839 
     98 H98        27.0157  -26.1228  -39.7762 H         1 UNK         0.0839 
     99 H99        27.4454  -26.6221  -41.4044 H         1 UNK         0.0839 
    100 H100       22.9686  -27.6653  -40.7616 H         1 UNK         0.2998 
    101 H101       21.3018  -28.1191  -39.3728 H         1 UNK         0.0822 
    102 H102       21.2472  -27.2754  -37.0884 H         1 UNK         0.0787 
    103 H103       22.0386  -26.0858  -38.1060 H         1 UNK         0.0787 
    104 H104       22.9933  -27.1138  -37.0369 H         1 UNK         0.0787 
    105 H105       23.7722  -30.0710  -39.6456 H         1 UNK         0.3055 
    106 H106       23.1059  -32.0158  -37.5459 H         1 UNK         0.1106 
    107 H107       25.4521  -31.7444  -38.3830 H         1 UNK         0.0828 
    108 H108       24.8531  -33.3780  -38.6116 H         1 UNK         0.0828 
    109 H109       24.9441  -32.2833  -39.9800 H         1 UNK         0.0828 
    110 H110       21.3895  -31.0677  -40.1516 H         1 UNK         0.2931 
    111 H111       20.6280  -33.3649  -41.5642 H         1 UNK         0.0412 
    112 H112       18.9846  -34.9529  -41.2964 H         1 UNK         0.3472 
    113 H113       18.1017  -35.1377  -39.8037 H         1 UNK         0.3472 
    114 H114       18.5275  -32.0404  -42.0932 H         1 UNK         0.0970 
    115 H115       18.9989  -30.8498  -40.9169 H         1 UNK         0.0970 
    116 H116       20.5668  -31.4489  -45.1392 H         1 UNK         0.0612 
    117 H117       19.4188  -32.4357  -44.2759 H         1 UNK         0.0612 
@<TRIPOS>BOND
     1    1    2 1    
     2    1   62 1    
     3    1   63 1    
     4    1   64 1    
     5    2    3 2    
     6    2    4 am   BACKBONE|DICT|INTERRES
     7    4    5 1    
     8    4   65 1    
     9    5    6 1    
    10    5   25 1    
    11    5   66 1    
    12    6    7 1    
    13    6   67 1    
    14    6   68 1    
    15    7    8 1    
    16    8    9 1    
    17    8   69 1    
    18    8   70 1    
    19    9   10 ar   
    20    9   14 ar   
    21   10   11 ar   
    22   10   71 1    
    23   11   12 ar   
    24   11   61 1    
    25   12   13 ar   
    26   12   72 1    
    27   13   14 ar   
    28   13   15 1    
    29   14   73 1    
    30   15   16 1    
    31   15   74 1    
    32   15   75 1    
    33   16   17 1    
    34   17   18 1    
    35   17   76 1    
    36   17   77 1    
    37   18   19 1    
    38   18   27 1    
    39   18   78 1    
    40   19   20 am   BACKBONE|DICT|INTERRES
    41   19   79 1    
    42   20   21 2    
    43   20   22 1    
    44   22   23 1    
    45   22   24 1    
    46   22   80 1    
    47   23   81 1    
    48   23   82 1    
    49   23   83 1    
    50   24   25 am   BACKBONE|DICT|INTERRES
    51   24   84 1    
    52   25   26 2    
    53   27   28 2    
    54   27   29 am   BACKBONE|DICT|INTERRES
    55   29   30 1    
    56   29   85 1    
    57   30   31 1    
    58   30   32 1    
    59   30   86 1    
    60   31   87 1    
    61   31   88 1    
    62   31   89 1    
    63   32   33 2    
    64   32   34 am   BACKBONE|DICT|INTERRES
    65   34   35 1    
    66   34   90 1    
    67   35   36 1    
    68   35   37 1    
    69   35   91 1    
    70   36   92 1    
    71   36   93 1    
    72   36   94 1    
    73   37   38 2    
    74   37   39 am   BACKBONE|DICT|INTERRES
    75   39   40 1    
    76   39   95 1    
    77   40   41 1    
    78   40   42 1    
    79   40   96 1    
    80   41   97 1    
    81   41   98 1    
    82   41   99 1    
    83   42   43 2    
    84   42   44 am   BACKBONE|DICT|INTERRES
    85   44   45 1    
    86   44  100 1    
    87   45   46 1    
    88   45   47 1    
    89   45  101 1    
    90   46  102 1    
    91   46  103 1    
    92   46  104 1    
    93   47   48 2    
    94   47   49 am   BACKBONE|DICT|INTERRES
    95   49   50 1    
    96   49  105 1    
    97   50   51 1    
    98   50   52 1    
    99   50  106 1    
   100   51  107 1    
   101   51  108 1    
   102   51  109 1    
   103   52   53 2    
   104   52   54 am   BACKBONE|DICT|INTERRES
   105   54   55 1    
   106   54  110 1    
   107   55   56 1    
   108   55   59 1    
   109   55  111 1    
   110   56   57 am   BACKBONE|DICT|INTERRES
   111   56   58 2    
   112   57  112 1    
   113   57  113 1    
   114   59   60 1    
   115   59  114 1    
   116   59  115 1    
   117   60   61 1    
   118   61  116 1    
   119   61  117 1    
@<TRIPOS>SUBSTRUCTURE
     1 UNK         1 GROUP             0       ****    0 ROOT    
