@<TRIPOS>MOLECULE
3R8
117   119    1
SMALL
USER_CHARGES


@<TRIPOS>ATOM
      1 CA         16.4911  -22.4285  -41.1971 C.3       0 UNK        -0.2013 
      2 C          16.9808  -22.9937  -42.5220 C.2       0 UNK         0.4866 
      3 O          17.3372  -22.2295  -43.4195 O.2       0 UNK        -0.5176 
      4 N          16.9953  -24.3262  -42.6546 N.am      1 UNK        -0.4884 
      5 CA         17.5120  -25.0431  -43.8241 C.3       1 UNK         0.0853 
      6 C6         17.0029  -26.5086  -43.8425 C.3       10 UNK        -0.0849 
      7 S7         16.9346  -27.2153  -45.5171 S.3       10 UNK        -0.2776 
      8 C8         16.0982  -28.8093  -45.1953 C.3       10 UNK         0.0316 
      9 C9         17.0810  -29.9126  -44.8211 C.ar      10 UNK        -0.0863 
     10 C10        17.0087  -30.5666  -43.5846 C.ar      10 UNK        -0.1009 
     11 C11        17.9141  -31.5888  -43.2701 C.ar      10 UNK        -0.0712 
     12 C12        18.9093  -31.9348  -44.1903 C.ar      10 UNK        -0.0894 
     13 C13        18.9943  -31.2840  -45.4234 C.ar      10 UNK        -0.0745 
     14 C14        18.0570  -30.2989  -45.7421 C.ar      10 UNK        -0.0972 
     15 C15        20.0925  -31.6417  -46.4162 C.3       10 UNK         0.0209 
     16 S16        21.6787  -30.8251  -46.0316 S.3       10 UNK        -0.2568 
     17 C17        21.2789  -29.0544  -46.2268 C.3       10 UNK        -0.0983 
     18 CA         21.9448  -28.0813  -45.2196 C.3       3 UNK         0.0876 
     19 N          21.3737  -26.7431  -45.3766 N.am      3 UNK        -0.4424 
     20 C          21.9342  -25.6108  -44.9379 C.2       2 UNK         0.4918 
     21 O          23.0406  -25.5546  -44.4029 O.2       2 UNK        -0.4875 
     22 CA         21.0974  -24.3289  -45.1012 C.3       2 UNK         0.0481 
     23 CB         21.3917  -23.6654  -46.4555 C.3       2 UNK        -0.1831 
     24 N          19.6489  -24.5406  -44.9607 N.am      2 UNK        -0.4498 
     25 C          19.0531  -24.9612  -43.8350 C.2       1 UNK         0.5027 
     26 O          19.6753  -25.2847  -42.8215 O.2       1 UNK        -0.4969 
     27 C          21.9013  -28.5276  -43.7370 C.2       3 UNK         0.5005 
     28 O          22.9049  -29.0352  -43.2321 O.2       3 UNK        -0.5279 
     29 N          20.7846  -28.2498  -43.0433 N.am      4 UNK        -0.4463 
     30 CA         20.6152  -28.5043  -41.6067 C.3       4 UNK         0.0283 
     31 CB         19.1517  -28.2852  -41.1934 C.3       4 UNK        -0.1875 
     32 C          21.5357  -27.6467  -40.7261 C.2       4 UNK         0.4949 
     33 O          22.0073  -28.1191  -39.6921 O.2       4 UNK        -0.5039 
     34 N          21.7849  -26.4027  -41.1572 N.am      5 UNK        -0.4663 
     35 CA         22.7282  -25.4777  -40.5272 C.3       5 UNK         0.0242 
     36 CB         22.5452  -24.0759  -41.1306 C.3       5 UNK        -0.1982 
     37 C          24.1940  -25.9374  -40.6392 C.2       5 UNK         0.5017 
     38 O          25.0047  -25.5423  -39.8004 O.2       5 UNK        -0.5012 
     39 N          24.5065  -26.7598  -41.6517 N.am      6 UNK        -0.4439 
     40 CA         25.8052  -27.4055  -41.8198 C.3       6 UNK         0.0297 
     41 CB         26.0646  -27.7127  -43.3056 C.3       6 UNK        -0.2006 
     42 C          25.9057  -28.6608  -40.9383 C.2       6 UNK         0.4892 
     43 O          26.7257  -28.6739  -40.0193 O.2       6 UNK        -0.5089 
     44 N          25.0786  -29.6785  -41.2213 N.am      7 UNK        -0.4243 
     45 CA         25.0465  -30.9716  -40.5291 C.3       7 UNK         0.0196 
     46 CB         26.3955  -31.7255  -40.6722 C.3       7 UNK        -0.2007 
     47 C          23.8407  -31.7721  -41.0503 C.2       7 UNK         0.5020 
     48 O          22.7097  -31.3177  -40.8962 O.2       7 UNK        -0.5147 
     49 N          24.1013  -32.9402  -41.6561 N.am      8 UNK        -0.4734 
     50 CA         23.2049  -33.8358  -42.4042 C.3       8 UNK         0.0238 
     51 CB         22.6321  -33.1195  -43.6390 C.3       8 UNK        -0.1912 
     52 C          22.0744  -34.5181  -41.6130 C.2       8 UNK         0.5038 
     53 O          21.8467  -35.7102  -41.8243 O.2       8 UNK        -0.5046 
     54 N          21.3681  -33.7723  -40.7577 N.am      9 UNK        -0.4200 
     55 CA         20.1510  -34.2248  -40.0588 C.3       9 UNK         0.0839 
     56 C          20.3884  -35.2439  -38.9068 C.2       9 UNK         0.5513 
     57 N          21.6187  -35.4768  -38.4656 N.am      9 UNK        -0.7519 
     58 O          19.4357  -35.8362  -38.4064 O.2       9 UNK        -0.4960 
     59 C59        19.2573  -33.0477  -39.5766 C.3       10 UNK        -0.0876 
     60 S60        19.0843  -31.6962  -40.7875 S.3       10 UNK        -0.2414 
     61 C61        17.8340  -32.3281  -41.9410 C.3       10 UNK         0.0169 
     62 H62        15.6305  -21.7804  -41.3607 H         1 UNK         0.0903 
     63 H63        16.1962  -23.2143  -40.5017 H         1 UNK         0.0903 
     64 H64        17.2780  -21.8386  -40.7278 H         1 UNK         0.0903 
     65 H65        16.7251  -24.9025  -41.8704 H         1 UNK         0.3096 
     66 H66        17.1267  -24.5317  -44.7096 H         1 UNK         0.1121 
     67 H67        17.5972  -27.1586  -43.2031 H         1 UNK         0.0849 
     68 H68        15.9875  -26.5488  -43.4441 H         1 UNK         0.0849 
     69 H69        15.3347  -28.6835  -44.4261 H         1 UNK         0.0865 
     70 H70        15.5672  -29.1111  -46.0993 H         1 UNK         0.0865 
     71 H71        16.2476  -30.2865  -42.8694 H         1 UNK         0.1346 
     72 H72        19.6233  -32.7071  -43.9403 H         1 UNK         0.1412 
     73 H73        18.1033  -29.8044  -46.7031 H         1 UNK         0.1426 
     74 H74        19.7923  -31.3795  -47.4319 H         1 UNK         0.0716 
     75 H75        20.2457  -32.7219  -46.4145 H         1 UNK         0.0716 
     76 H76        21.5591  -28.7685  -47.2418 H         1 UNK         0.0695 
     77 H77        20.2017  -28.9218  -46.1815 H         1 UNK         0.0695 
     78 H78        23.0028  -28.0210  -45.4859 H         1 UNK         0.0983 
     79 H79        20.4657  -26.6851  -45.8135 H         1 UNK         0.3095 
     80 H80        21.4049  -23.6375  -44.3140 H         1 UNK         0.0454 
     81 H81        21.0767  -24.2911  -47.2915 H         1 UNK         0.0851 
     82 H82        20.8860  -22.7039  -46.5452 H         1 UNK         0.0851 
     83 H83        22.4600  -23.4781  -46.5738 H         1 UNK         0.0851 
     84 H84        19.0747  -24.2901  -45.7535 H         1 UNK         0.2976 
     85 H85        20.0204  -27.7935  -43.5169 H         1 UNK         0.3116 
     86 H86        20.8717  -29.5490  -41.4329 H         1 UNK         0.0646 
     87 H87        18.9967  -28.5985  -40.1603 H         1 UNK         0.0847 
     88 H88        18.4713  -28.8711  -41.8094 H         1 UNK         0.0847 
     89 H89        18.8605  -27.2371  -41.2540 H         1 UNK         0.0847 
     90 H90        21.2655  -26.0592  -41.9600 H         1 UNK         0.3040 
     91 H91        22.4843  -25.4268  -39.4637 H         1 UNK         0.1015 
     92 H92        21.5162  -23.7299  -41.0288 H         1 UNK         0.0786 
     93 H93        22.8022  -24.0554  -42.1895 H         1 UNK         0.0786 
     94 H94        23.1842  -23.3493  -40.6272 H         1 UNK         0.0786 
     95 H95        23.7672  -27.0482  -42.2797 H         1 UNK         0.3172 
     96 H96        26.5841  -26.7102  -41.4986 H         1 UNK         0.0595 
     97 H97        27.0545  -28.1498  -43.4417 H         1 UNK         0.0839 
     98 H98        26.0263  -26.8044  -43.9074 H         1 UNK         0.0839 
     99 H99        25.3435  -28.4146  -43.7220 H         1 UNK         0.0839 
    100 H100       24.3686  -29.5541  -41.9414 H         1 UNK         0.2998 
    101 H101       24.8638  -30.7824  -39.4695 H         1 UNK         0.0822 
    102 H102       27.2101  -31.1936  -40.1821 H         1 UNK         0.0787 
    103 H103       26.3555  -32.7084  -40.2006 H         1 UNK         0.0787 
    104 H104       26.6777  -31.8605  -41.7172 H         1 UNK         0.0787 
    105 H105       25.0721  -33.2219  -41.6693 H         1 UNK         0.3055 
    106 H106       23.8423  -34.6431  -42.7695 H         1 UNK         0.1106 
    107 H107       22.0056  -32.2713  -43.3592 H         1 UNK         0.0828 
    108 H108       23.4275  -32.7455  -44.2834 H         1 UNK         0.0828 
    109 H109       22.0194  -33.7934  -44.2392 H         1 UNK         0.0828 
    110 H110       21.6201  -32.7905  -40.6643 H         1 UNK         0.2931 
    111 H111       19.5641  -34.7681  -40.8019 H         1 UNK         0.0412 
    112 H112       22.4041  -34.9977  -38.8762 H         1 UNK         0.3472 
    113 H113       21.7620  -36.1411  -37.7211 H         1 UNK         0.3472 
    114 H114       18.2630  -33.4070  -39.3042 H         1 UNK         0.0970 
    115 H115       19.6771  -32.6081  -38.6699 H         1 UNK         0.0970 
    116 H116       17.9929  -33.3939  -42.1098 H         1 UNK         0.0612 
    117 H117       16.8437  -32.2250  -41.4950 H         1 UNK         0.0612 
@<TRIPOS>BOND
     1    1    2 1    
     2    1   62 1    
     3    1   63 1    
     4    1   64 1    
     5    2    3 2    
     6    2    4 am   BACKBONE|DICT|INTERRES
     7    4    5 1    
     8    4   65 1    
     9    5    6 1    
    10    5   25 1    
    11    5   66 1    
    12    6    7 1    
    13    6   67 1    
    14    6   68 1    
    15    7    8 1    
    16    8    9 1    
    17    8   69 1    
    18    8   70 1    
    19    9   10 ar   
    20    9   14 ar   
    21   10   11 ar   
    22   10   71 1    
    23   11   12 ar   
    24   11   61 1    
    25   12   13 ar   
    26   12   72 1    
    27   13   14 ar   
    28   13   15 1    
    29   14   73 1    
    30   15   16 1    
    31   15   74 1    
    32   15   75 1    
    33   16   17 1    
    34   17   18 1    
    35   17   76 1    
    36   17   77 1    
    37   18   19 1    
    38   18   27 1    
    39   18   78 1    
    40   19   20 am   BACKBONE|DICT|INTERRES
    41   19   79 1    
    42   20   21 2    
    43   20   22 1    
    44   22   23 1    
    45   22   24 1    
    46   22   80 1    
    47   23   81 1    
    48   23   82 1    
    49   23   83 1    
    50   24   25 am   BACKBONE|DICT|INTERRES
    51   24   84 1    
    52   25   26 2    
    53   27   28 2    
    54   27   29 am   BACKBONE|DICT|INTERRES
    55   29   30 1    
    56   29   85 1    
    57   30   31 1    
    58   30   32 1    
    59   30   86 1    
    60   31   87 1    
    61   31   88 1    
    62   31   89 1    
    63   32   33 2    
    64   32   34 am   BACKBONE|DICT|INTERRES
    65   34   35 1    
    66   34   90 1    
    67   35   36 1    
    68   35   37 1    
    69   35   91 1    
    70   36   92 1    
    71   36   93 1    
    72   36   94 1    
    73   37   38 2    
    74   37   39 am   BACKBONE|DICT|INTERRES
    75   39   40 1    
    76   39   95 1    
    77   40   41 1    
    78   40   42 1    
    79   40   96 1    
    80   41   97 1    
    81   41   98 1    
    82   41   99 1    
    83   42   43 2    
    84   42   44 am   BACKBONE|DICT|INTERRES
    85   44   45 1    
    86   44  100 1    
    87   45   46 1    
    88   45   47 1    
    89   45  101 1    
    90   46  102 1    
    91   46  103 1    
    92   46  104 1    
    93   47   48 2    
    94   47   49 am   BACKBONE|DICT|INTERRES
    95   49   50 1    
    96   49  105 1    
    97   50   51 1    
    98   50   52 1    
    99   50  106 1    
   100   51  107 1    
   101   51  108 1    
   102   51  109 1    
   103   52   53 2    
   104   52   54 am   BACKBONE|DICT|INTERRES
   105   54   55 1    
   106   54  110 1    
   107   55   56 1    
   108   55   59 1    
   109   55  111 1    
   110   56   57 am   BACKBONE|DICT|INTERRES
   111   56   58 2    
   112   57  112 1    
   113   57  113 1    
   114   59   60 1    
   115   59  114 1    
   116   59  115 1    
   117   60   61 1    
   118   61  116 1    
   119   61  117 1    
@<TRIPOS>SUBSTRUCTURE
     1 UNK         1 GROUP             0       ****    0 ROOT    
