@<TRIPOS>MOLECULE
3R8
117   119    1
SMALL
USER_CHARGES


@<TRIPOS>ATOM
      1 CA         14.9141  -27.2119  -48.3074 C.3       0 UNK        -0.2013 
      2 C          15.9193  -27.3357  -47.1715 C.2       0 UNK         0.4866 
      3 O          15.6861  -28.1035  -46.2377 O.2       0 UNK        -0.5176 
      4 N          17.0316  -26.5912  -47.2584 N.am      1 UNK        -0.4884 
      5 CA         18.1155  -26.4960  -46.2687 C.3       1 UNK         0.0853 
      6 C6         18.7453  -27.8797  -45.9261 C.3       10 UNK        -0.0849 
      7 S7         20.4800  -27.7636  -45.3617 S.3       10 UNK        -0.2776 
      8 C8         20.8179  -29.4409  -44.7373 C.3       10 UNK         0.0316 
      9 C9         19.8896  -29.8671  -43.6056 C.ar      10 UNK        -0.0863 
     10 C10        18.8076  -30.7112  -43.8762 C.ar      10 UNK        -0.1009 
     11 C11        17.9776  -31.1565  -42.8447 C.ar      10 UNK        -0.0712 
     12 C12        18.2499  -30.7711  -41.5299 C.ar      10 UNK        -0.0894 
     13 C13        19.3323  -29.9354  -41.2415 C.ar      10 UNK        -0.0745 
     14 C14        20.1384  -29.4665  -42.2869 C.ar      10 UNK        -0.0972 
     15 C15        19.6405  -29.5823  -39.7931 C.3       10 UNK         0.0209 
     16 S16        18.5657  -28.2408  -39.1888 S.3       10 UNK        -0.2568 
     17 C17        19.7987  -27.0256  -38.6128 C.3       10 UNK        -0.0983 
     18 CA         20.4949  -26.3053  -39.7930 C.3       3 UNK         0.0876 
     19 N          19.5336  -25.6461  -40.6903 N.am      3 UNK        -0.4424 
     20 C          19.7462  -25.4119  -41.9884 C.2       2 UNK         0.4918 
     21 O          20.8403  -25.5684  -42.5366 O.2       2 UNK        -0.4875 
     22 CA         18.5626  -24.8855  -42.8031 C.3       2 UNK         0.0481 
     23 CB         18.5899  -23.3505  -42.8983 C.3       2 UNK        -0.1831 
     24 N          18.6783  -25.4816  -44.1247 N.am      2 UNK        -0.4498 
     25 C          17.7016  -25.6948  -45.0083 C.2       1 UNK         0.5027 
     26 O          16.5494  -25.2768  -44.8623 O.2       1 UNK        -0.4969 
     27 C          21.6763  -25.4139  -39.3453 C.2       3 UNK         0.5005 
     28 O          22.4102  -25.7875  -38.4287 O.2       3 UNK        -0.5279 
     29 N          21.8886  -24.2850  -40.0365 N.am      4 UNK        -0.4463 
     30 CA         23.1700  -23.5806  -40.0896 C.3       4 UNK         0.0283 
     31 CB         22.9681  -22.2002  -40.7344 C.3       4 UNK        -0.1875 
     32 C          24.2264  -24.3940  -40.8654 C.2       4 UNK         0.4949 
     33 O          25.4137  -24.2836  -40.5593 O.2       4 UNK        -0.5039 
     34 N          23.7804  -25.2126  -41.8322 N.am      5 UNK        -0.4663 
     35 CA         24.5993  -26.2166  -42.5071 C.3       5 UNK         0.0242 
     36 CB         23.9283  -26.6095  -43.8334 C.3       5 UNK        -0.1982 
     37 C          24.7594  -27.4481  -41.6023 C.2       5 UNK         0.5017 
     38 O          23.7584  -27.9639  -41.0991 O.2       5 UNK        -0.5012 
     39 N          26.0066  -27.9051  -41.4303 N.am      6 UNK        -0.4439 
     40 CA         26.3574  -29.0688  -40.6084 C.3       6 UNK         0.0297 
     41 CB         27.8561  -29.0147  -40.2698 C.3       6 UNK        -0.2006 
     42 C          26.0063  -30.4167  -41.2644 C.2       6 UNK         0.4892 
     43 O          25.8611  -31.4118  -40.5524 O.2       6 UNK        -0.5089 
     44 N          25.8769  -30.4358  -42.5984 N.am      7 UNK        -0.4243 
     45 CA         25.5136  -31.6036  -43.4041 C.3       7 UNK         0.0196 
     46 CB         26.0088  -31.3834  -44.8461 C.3       7 UNK        -0.2007 
     47 C          23.9998  -31.8800  -43.3339 C.2       7 UNK         0.5020 
     48 O          23.2964  -31.7296  -44.3341 O.2       7 UNK        -0.5147 
     49 N          23.5223  -32.2410  -42.1372 N.am      8 UNK        -0.4734 
     50 CA         22.1175  -32.5220  -41.8403 C.3       8 UNK         0.0238 
     51 CB         21.9364  -32.6513  -40.3196 C.3       8 UNK        -0.1912 
     52 C          21.5838  -33.7680  -42.5648 C.2       8 UNK         0.5038 
     53 O          22.3437  -34.7080  -42.8146 O.2       8 UNK        -0.5046 
     54 N          20.2804  -33.7498  -42.8662 N.am      9 UNK        -0.4200 
     55 CA         19.5429  -34.8522  -43.4952 C.3       9 UNK         0.0839 
     56 C          19.4684  -36.1384  -42.6219 C.2       9 UNK         0.5513 
     57 N          19.2755  -37.2940  -43.2438 N.am      9 UNK        -0.7519 
     58 O          19.5544  -36.0997  -41.3957 O.2       9 UNK        -0.4960 
     59 C59        18.1446  -34.3873  -43.9844 C.3       10 UNK        -0.0876 
     60 S60        17.0465  -33.7698  -42.6574 S.3       10 UNK        -0.2414 
     61 C61        16.7740  -32.0374  -43.1459 C.3       10 UNK         0.0169 
     62 H62        15.2476  -26.5147  -49.0758 H         1 UNK         0.0903 
     63 H63        14.7568  -28.1828  -48.7766 H         1 UNK         0.0903 
     64 H64        13.9569  -26.8601  -47.9233 H         1 UNK         0.0903 
     65 H65        17.1311  -25.9687  -48.0488 H         1 UNK         0.3096 
     66 H66        18.8810  -25.8940  -46.7621 H         1 UNK         0.1121 
     67 H67        18.1416  -28.3914  -45.1758 H         1 UNK         0.0849 
     68 H68        18.7396  -28.5239  -46.8067 H         1 UNK         0.0849 
     69 H69        20.7639  -30.1504  -45.5646 H         1 UNK         0.0865 
     70 H70        21.8497  -29.4727  -44.3847 H         1 UNK         0.0865 
     71 H71        18.6086  -31.0175  -44.8942 H         1 UNK         0.1346 
     72 H72        17.6171  -31.1254  -40.7272 H         1 UNK         0.1412 
     73 H73        20.9828  -28.8237  -42.0752 H         1 UNK         0.1426 
     74 H74        20.6937  -29.3189  -39.6869 H         1 UNK         0.0716 
     75 H75        19.4912  -30.4602  -39.1627 H         1 UNK         0.0716 
     76 H76        19.2976  -26.3020  -37.9676 H         1 UNK         0.0695 
     77 H77        20.5214  -27.5481  -37.9829 H         1 UNK         0.0695 
     78 H78        20.9841  -27.0829  -40.3831 H         1 UNK         0.0983 
     79 H79        18.6165  -25.4751  -40.3031 H         1 UNK         0.3095 
     80 H80        17.6308  -25.2145  -42.3382 H         1 UNK         0.0454 
     81 H81        18.5194  -22.8953  -41.9097 H         1 UNK         0.0851 
     82 H82        17.7533  -22.9744  -43.4870 H         1 UNK         0.0851 
     83 H83        19.5109  -22.9919  -43.3601 H         1 UNK         0.0851 
     84 H84        19.5899  -25.8928  -44.3043 H         1 UNK         0.2976 
     85 H85        21.2272  -24.0670  -40.7678 H         1 UNK         0.3116 
     86 H86        23.5334  -23.4373  -39.0697 H         1 UNK         0.0646 
     87 H87        23.9068  -21.6454  -40.7656 H         1 UNK         0.0847 
     88 H88        22.6034  -22.2803  -41.7593 H         1 UNK         0.0847 
     89 H89        22.2561  -21.5981  -40.1696 H         1 UNK         0.0847 
     90 H90        22.7825  -25.2703  -42.0081 H         1 UNK         0.3040 
     91 H91        25.5796  -25.7873  -42.7265 H         1 UNK         0.1015 
     92 H92        24.5286  -27.3398  -44.3771 H         1 UNK         0.0786 
     93 H93        23.7976  -25.7452  -44.4848 H         1 UNK         0.0786 
     94 H94        22.9453  -27.0533  -43.6694 H         1 UNK         0.0786 
     95 H95        26.7727  -27.4153  -41.8714 H         1 UNK         0.3172 
     96 H96        25.7974  -29.0074  -39.6725 H         1 UNK         0.0595 
     97 H97        28.4768  -29.0638  -41.1655 H         1 UNK         0.0839 
     98 H98        28.1418  -29.8517  -39.6308 H         1 UNK         0.0839 
     99 H99        28.1100  -28.1004  -39.7330 H         1 UNK         0.0839 
    100 H100       25.9874  -29.5645  -43.0948 H         1 UNK         0.2998 
    101 H101       26.0259  -32.4827  -43.0067 H         1 UNK         0.0822 
    102 H102       27.0904  -31.2504  -44.8783 H         1 UNK         0.0787 
    103 H103       25.7708  -32.2425  -45.4750 H         1 UNK         0.0787 
    104 H104       25.5485  -30.5067  -45.3037 H         1 UNK         0.0787 
    105 H105       24.1813  -32.3027  -41.3685 H         1 UNK         0.3055 
    106 H106       21.5443  -31.6661  -42.1885 H         1 UNK         0.1106 
    107 H107       22.2498  -31.7431  -39.8041 H         1 UNK         0.0828 
    108 H108       20.8899  -32.8228  -40.0631 H         1 UNK         0.0828 
    109 H109       22.5122  -33.4849  -39.9156 H         1 UNK         0.0828 
    110 H110       19.7192  -32.9555  -42.5926 H         1 UNK         0.2931 
    111 H111       20.1147  -35.1206  -44.3861 H         1 UNK         0.0412 
    112 H112       19.2126  -38.1394  -42.6976 H         1 UNK         0.3472 
    113 H113       19.1994  -37.3414  -44.2483 H         1 UNK         0.3472 
    114 H114       17.6316  -35.2043  -44.4947 H         1 UNK         0.0970 
    115 H115       18.2678  -33.6135  -44.7431 H         1 UNK         0.0970 
    116 H116       15.9100  -31.6553  -42.6002 H         1 UNK         0.0612 
    117 H117       16.5074  -31.9905  -44.2030 H         1 UNK         0.0612 
@<TRIPOS>BOND
     1    1    2 1    
     2    1   62 1    
     3    1   63 1    
     4    1   64 1    
     5    2    3 2    
     6    2    4 am   BACKBONE|DICT|INTERRES
     7    4    5 1    
     8    4   65 1    
     9    5    6 1    
    10    5   25 1    
    11    5   66 1    
    12    6    7 1    
    13    6   67 1    
    14    6   68 1    
    15    7    8 1    
    16    8    9 1    
    17    8   69 1    
    18    8   70 1    
    19    9   10 ar   
    20    9   14 ar   
    21   10   11 ar   
    22   10   71 1    
    23   11   12 ar   
    24   11   61 1    
    25   12   13 ar   
    26   12   72 1    
    27   13   14 ar   
    28   13   15 1    
    29   14   73 1    
    30   15   16 1    
    31   15   74 1    
    32   15   75 1    
    33   16   17 1    
    34   17   18 1    
    35   17   76 1    
    36   17   77 1    
    37   18   19 1    
    38   18   27 1    
    39   18   78 1    
    40   19   20 am   BACKBONE|DICT|INTERRES
    41   19   79 1    
    42   20   21 2    
    43   20   22 1    
    44   22   23 1    
    45   22   24 1    
    46   22   80 1    
    47   23   81 1    
    48   23   82 1    
    49   23   83 1    
    50   24   25 am   BACKBONE|DICT|INTERRES
    51   24   84 1    
    52   25   26 2    
    53   27   28 2    
    54   27   29 am   BACKBONE|DICT|INTERRES
    55   29   30 1    
    56   29   85 1    
    57   30   31 1    
    58   30   32 1    
    59   30   86 1    
    60   31   87 1    
    61   31   88 1    
    62   31   89 1    
    63   32   33 2    
    64   32   34 am   BACKBONE|DICT|INTERRES
    65   34   35 1    
    66   34   90 1    
    67   35   36 1    
    68   35   37 1    
    69   35   91 1    
    70   36   92 1    
    71   36   93 1    
    72   36   94 1    
    73   37   38 2    
    74   37   39 am   BACKBONE|DICT|INTERRES
    75   39   40 1    
    76   39   95 1    
    77   40   41 1    
    78   40   42 1    
    79   40   96 1    
    80   41   97 1    
    81   41   98 1    
    82   41   99 1    
    83   42   43 2    
    84   42   44 am   BACKBONE|DICT|INTERRES
    85   44   45 1    
    86   44  100 1    
    87   45   46 1    
    88   45   47 1    
    89   45  101 1    
    90   46  102 1    
    91   46  103 1    
    92   46  104 1    
    93   47   48 2    
    94   47   49 am   BACKBONE|DICT|INTERRES
    95   49   50 1    
    96   49  105 1    
    97   50   51 1    
    98   50   52 1    
    99   50  106 1    
   100   51  107 1    
   101   51  108 1    
   102   51  109 1    
   103   52   53 2    
   104   52   54 am   BACKBONE|DICT|INTERRES
   105   54   55 1    
   106   54  110 1    
   107   55   56 1    
   108   55   59 1    
   109   55  111 1    
   110   56   57 am   BACKBONE|DICT|INTERRES
   111   56   58 2    
   112   57  112 1    
   113   57  113 1    
   114   59   60 1    
   115   59  114 1    
   116   59  115 1    
   117   60   61 1    
   118   61  116 1    
   119   61  117 1    
@<TRIPOS>SUBSTRUCTURE
     1 UNK         1 GROUP             0       ****    0 ROOT    
