@<TRIPOS>MOLECULE
3R8
117   119    1
SMALL
USER_CHARGES


@<TRIPOS>ATOM
      1 CA         15.5353  -25.7259  -46.2657 C.3       0 UNK        -0.2013 
      2 C          15.8031  -24.5236  -45.3651 C.2       0 UNK         0.4866 
      3 O          15.5206  -23.3971  -45.7693 O.2       0 UNK        -0.5176 
      4 N          16.3449  -24.6915  -44.1527 N.am      1 UNK        -0.4884 
      5 CA         16.7982  -25.9408  -43.5302 C.3       1 UNK         0.0853 
      6 C6         15.8609  -26.3790  -42.3704 C.3       10 UNK        -0.0849 
      7 S7         14.3890  -27.2361  -43.0251 S.3       10 UNK        -0.2776 
      8 C8         14.7634  -28.9968  -42.7069 C.3       10 UNK         0.0316 
      9 C9         16.1688  -29.4082  -43.1365 C.ar      10 UNK        -0.0863 
     10 C10        17.0901  -29.8402  -42.1781 C.ar      10 UNK        -0.1009 
     11 C11        18.3817  -30.2198  -42.5517 C.ar      10 UNK        -0.0712 
     12 C12        18.7597  -30.1462  -43.8961 C.ar      10 UNK        -0.0894 
     13 C13        17.8511  -29.7108  -44.8648 C.ar      10 UNK        -0.0745 
     14 C14        16.5502  -29.3645  -44.4820 C.ar      10 UNK        -0.0972 
     15 C15        18.2647  -29.6255  -46.3271 C.3       10 UNK         0.0209 
     16 S16        18.8638  -27.9617  -46.7702 S.3       10 UNK        -0.2568 
     17 C17        20.6766  -28.1164  -46.5972 C.3       10 UNK        -0.0983 
     18 CA         21.3040  -26.8590  -45.9298 C.3       3 UNK         0.0876 
     19 N          20.8601  -26.6464  -44.5526 N.am      3 UNK        -0.4424 
     20 C          21.0330  -27.4626  -43.5068 C.2       2 UNK         0.4918 
     21 O          21.6911  -28.5026  -43.5437 O.2       2 UNK        -0.4875 
     22 CA         20.2580  -27.1005  -42.2292 C.3       2 UNK         0.0481 
     23 CB         20.9273  -25.9569  -41.4412 C.3       2 UNK        -0.1831 
     24 N          18.8340  -26.8557  -42.5143 N.am      2 UNK        -0.4498 
     25 C          18.2684  -25.7861  -43.0960 C.2       1 UNK         0.5027 
     26 O          18.8838  -24.7499  -43.3617 O.2       1 UNK        -0.4969 
     27 C          22.8405  -26.8068  -46.0384 C.2       3 UNK         0.5005 
     28 O          23.3808  -25.7528  -46.3794 O.2       3 UNK        -0.5279 
     29 N          23.5155  -27.9286  -45.7554 N.am      4 UNK        -0.4463 
     30 CA         24.9731  -28.0500  -45.8119 C.3       4 UNK         0.0283 
     31 CB         25.3649  -29.5281  -45.9653 C.3       4 UNK        -0.1875 
     32 C          25.6669  -27.4204  -44.5929 C.2       4 UNK         0.4949 
     33 O          26.6716  -26.7304  -44.7664 O.2       4 UNK        -0.5039 
     34 N          25.1230  -27.6607  -43.3934 N.am      5 UNK        -0.4663 
     35 CA         25.6217  -27.1824  -42.1028 C.3       5 UNK         0.0242 
     36 CB         26.9987  -27.7995  -41.7701 C.3       5 UNK        -0.1982 
     37 C          24.5945  -27.5371  -41.0205 C.2       5 UNK         0.5017 
     38 O          23.6833  -28.3277  -41.2792 O.2       5 UNK        -0.5012 
     39 N          24.7589  -26.9564  -39.8243 N.am      6 UNK        -0.4439 
     40 CA         23.9072  -27.1769  -38.6515 C.3       6 UNK         0.0297 
     41 CB         24.4300  -26.3358  -37.4746 C.3       6 UNK        -0.2006 
     42 C          23.8141  -28.6659  -38.2697 C.2       6 UNK         0.4892 
     43 O          24.8157  -29.2495  -37.8510 O.2       6 UNK        -0.5089 
     44 N          22.6154  -29.2371  -38.4556 N.am      7 UNK        -0.4243 
     45 CA         22.2510  -30.6416  -38.2339 C.3       7 UNK         0.0196 
     46 CB         22.3505  -31.0079  -36.7373 C.3       7 UNK        -0.2007 
     47 C          22.9953  -31.6438  -39.1420 C.2       7 UNK         0.5020 
     48 O          23.1147  -32.8143  -38.7754 O.2       7 UNK        -0.5147 
     49 N          23.4408  -31.2051  -40.3318 N.am      8 UNK        -0.4734 
     50 CA         24.1221  -32.0475  -41.3303 C.3       8 UNK         0.0238 
     51 CB         24.6099  -31.1701  -42.4914 C.3       8 UNK        -0.1912 
     52 C          23.2641  -33.2039  -41.8772 C.2       8 UNK         0.5038 
     53 O          23.8131  -34.2005  -42.3480 O.2       8 UNK        -0.5046 
     54 N          21.9402  -33.0461  -41.7898 N.am      9 UNK        -0.4200 
     55 CA         20.9228  -34.0633  -42.0726 C.3       9 UNK         0.0839 
     56 C          20.8587  -35.2309  -41.0418 C.2       9 UNK         0.5513 
     57 N          21.5247  -35.1558  -39.8942 N.am      9 UNK        -0.7519 
     58 O          20.1973  -36.2337  -41.2985 O.2       9 UNK        -0.4960 
     59 C59        19.5365  -33.4031  -42.2976 C.3       10 UNK        -0.0876 
     60 S60        18.9906  -32.3619  -40.8945 S.3       10 UNK        -0.2414 
     61 C61        19.3696  -30.6844  -41.4923 C.3       10 UNK         0.0169 
     62 H62        14.9319  -26.4768  -45.7593 H         1 UNK         0.0903 
     63 H63        14.9929  -25.4195  -47.1599 H         1 UNK         0.0903 
     64 H64        16.4709  -26.1810  -46.5869 H         1 UNK         0.0903 
     65 H65        16.5817  -23.8645  -43.6215 H         1 UNK         0.3096 
     66 H66        16.8369  -26.7305  -44.2783 H         1 UNK         0.1121 
     67 H67        15.5357  -25.5134  -41.7905 H         1 UNK         0.0849 
     68 H68        16.3496  -27.0379  -41.6518 H         1 UNK         0.0849 
     69 H69        14.6118  -29.1960  -41.6448 H         1 UNK         0.0865 
     70 H70        14.0349  -29.6132  -43.2354 H         1 UNK         0.0865 
     71 H71        16.8031  -29.8913  -41.1362 H         1 UNK         0.1346 
     72 H72        19.7646  -30.4197  -44.1881 H         1 UNK         0.1412 
     73 H73        15.8398  -29.0347  -45.2282 H         1 UNK         0.1426 
     74 H74        17.4078  -29.8624  -46.9594 H         1 UNK         0.0716 
     75 H75        19.0219  -30.3757  -46.5598 H         1 UNK         0.0716 
     76 H76        21.0863  -28.2601  -47.5987 H         1 UNK         0.0695 
     77 H77        20.9158  -29.0218  -46.0385 H         1 UNK         0.0695 
     78 H78        20.9442  -25.9922  -46.4874 H         1 UNK         0.0983 
     79 H79        20.3053  -25.8124  -44.3948 H         1 UNK         0.3095 
     80 H80        20.2834  -27.9795  -41.5858 H         1 UNK         0.0454 
     81 H81        21.9234  -26.2495  -41.1137 H         1 UNK         0.0851 
     82 H82        20.3557  -25.7013  -40.5494 H         1 UNK         0.0851 
     83 H83        21.0468  -25.0516  -42.0359 H         1 UNK         0.0851 
     84 H84        18.2517  -27.6757  -42.4007 H         1 UNK         0.2976 
     85 H85        22.9935  -28.7115  -45.3828 H         1 UNK         0.3116 
     86 H86        25.3282  -27.5227  -46.7004 H         1 UNK         0.0646 
     87 H87        24.9968  -30.1344  -45.1391 H         1 UNK         0.0847 
     88 H88        26.4493  -29.6433  -45.9967 H         1 UNK         0.0847 
     89 H89        24.9692  -29.9481  -46.8902 H         1 UNK         0.0847 
     90 H90        24.2622  -28.1940  -43.3231 H         1 UNK         0.3040 
     91 H91        25.7072  -26.0947  -42.1488 H         1 UNK         0.1015 
     92 H92        27.3517  -27.4782  -40.7895 H         1 UNK         0.0786 
     93 H93        27.7615  -27.4990  -42.4878 H         1 UNK         0.0786 
     94 H94        26.9663  -28.8883  -41.7592 H         1 UNK         0.0786 
     95 H95        25.5504  -26.3436  -39.6916 H         1 UNK         0.3172 
     96 H96        22.9078  -26.8142  -38.8998 H         1 UNK         0.0595 
     97 H97        25.4504  -26.6097  -37.2029 H         1 UNK         0.0839 
     98 H98        23.8093  -26.4777  -36.5888 H         1 UNK         0.0839 
     99 H99        24.4182  -25.2711  -37.7088 H         1 UNK         0.0839 
    100 H100       21.8807  -28.6586  -38.8386 H         1 UNK         0.2998 
    101 H101       21.2000  -30.7230  -38.5158 H         1 UNK         0.0822 
    102 H102       21.8020  -30.2989  -36.1172 H         1 UNK         0.0787 
    103 H103       21.9284  -31.9954  -36.5460 H         1 UNK         0.0787 
    104 H104       23.3849  -31.0260  -36.3927 H         1 UNK         0.0787 
    105 H105       23.3390  -30.2207  -40.5640 H         1 UNK         0.3055 
    106 H106       24.9922  -32.4970  -40.8469 H         1 UNK         0.1106 
    107 H107       25.3257  -30.4272  -42.1470 H         1 UNK         0.0828 
    108 H108       25.1110  -31.7690  -43.2531 H         1 UNK         0.0828 
    109 H109       23.7834  -30.6453  -42.9729 H         1 UNK         0.0828 
    110 H110       21.5987  -32.1995  -41.3627 H         1 UNK         0.2931 
    111 H111       21.2055  -34.5306  -43.0178 H         1 UNK         0.0412 
    112 H112       21.4721  -35.9255  -39.2462 H         1 UNK         0.3472 
    113 H113       22.0713  -34.3360  -39.6552 H         1 UNK         0.3472 
    114 H114       18.7735  -34.1615  -42.4826 H         1 UNK         0.0970 
    115 H115       19.5639  -32.8022  -43.2067 H         1 UNK         0.0970 
    116 H116       20.3924  -30.6415  -41.8696 H         1 UNK         0.0612 
    117 H117       19.3303  -30.0018  -40.6424 H         1 UNK         0.0612 
@<TRIPOS>BOND
     1    1    2 1    
     2    1   62 1    
     3    1   63 1    
     4    1   64 1    
     5    2    3 2    
     6    2    4 am   BACKBONE|DICT|INTERRES
     7    4    5 1    
     8    4   65 1    
     9    5    6 1    
    10    5   25 1    
    11    5   66 1    
    12    6    7 1    
    13    6   67 1    
    14    6   68 1    
    15    7    8 1    
    16    8    9 1    
    17    8   69 1    
    18    8   70 1    
    19    9   10 ar   
    20    9   14 ar   
    21   10   11 ar   
    22   10   71 1    
    23   11   12 ar   
    24   11   61 1    
    25   12   13 ar   
    26   12   72 1    
    27   13   14 ar   
    28   13   15 1    
    29   14   73 1    
    30   15   16 1    
    31   15   74 1    
    32   15   75 1    
    33   16   17 1    
    34   17   18 1    
    35   17   76 1    
    36   17   77 1    
    37   18   19 1    
    38   18   27 1    
    39   18   78 1    
    40   19   20 am   BACKBONE|DICT|INTERRES
    41   19   79 1    
    42   20   21 2    
    43   20   22 1    
    44   22   23 1    
    45   22   24 1    
    46   22   80 1    
    47   23   81 1    
    48   23   82 1    
    49   23   83 1    
    50   24   25 am   BACKBONE|DICT|INTERRES
    51   24   84 1    
    52   25   26 2    
    53   27   28 2    
    54   27   29 am   BACKBONE|DICT|INTERRES
    55   29   30 1    
    56   29   85 1    
    57   30   31 1    
    58   30   32 1    
    59   30   86 1    
    60   31   87 1    
    61   31   88 1    
    62   31   89 1    
    63   32   33 2    
    64   32   34 am   BACKBONE|DICT|INTERRES
    65   34   35 1    
    66   34   90 1    
    67   35   36 1    
    68   35   37 1    
    69   35   91 1    
    70   36   92 1    
    71   36   93 1    
    72   36   94 1    
    73   37   38 2    
    74   37   39 am   BACKBONE|DICT|INTERRES
    75   39   40 1    
    76   39   95 1    
    77   40   41 1    
    78   40   42 1    
    79   40   96 1    
    80   41   97 1    
    81   41   98 1    
    82   41   99 1    
    83   42   43 2    
    84   42   44 am   BACKBONE|DICT|INTERRES
    85   44   45 1    
    86   44  100 1    
    87   45   46 1    
    88   45   47 1    
    89   45  101 1    
    90   46  102 1    
    91   46  103 1    
    92   46  104 1    
    93   47   48 2    
    94   47   49 am   BACKBONE|DICT|INTERRES
    95   49   50 1    
    96   49  105 1    
    97   50   51 1    
    98   50   52 1    
    99   50  106 1    
   100   51  107 1    
   101   51  108 1    
   102   51  109 1    
   103   52   53 2    
   104   52   54 am   BACKBONE|DICT|INTERRES
   105   54   55 1    
   106   54  110 1    
   107   55   56 1    
   108   55   59 1    
   109   55  111 1    
   110   56   57 am   BACKBONE|DICT|INTERRES
   111   56   58 2    
   112   57  112 1    
   113   57  113 1    
   114   59   60 1    
   115   59  114 1    
   116   59  115 1    
   117   60   61 1    
   118   61  116 1    
   119   61  117 1    
@<TRIPOS>SUBSTRUCTURE
     1 UNK         1 GROUP             0       ****    0 ROOT    
