@<TRIPOS>MOLECULE
3R8
117   119    1
SMALL
USER_CHARGES


@<TRIPOS>ATOM
      1 CA         14.5258  -23.6483  -44.5902 C.3       0 UNK        -0.2013 
      2 C          15.4111  -24.8720  -44.7739 C.2       0 UNK         0.4866 
      3 O          16.5296  -24.7471  -45.2712 O.2       0 UNK        -0.5176 
      4 N          14.9143  -26.0525  -44.3856 N.am      1 UNK        -0.4884 
      5 CA         15.6528  -27.3193  -44.4044 C.3       1 UNK         0.0853 
      6 C6         14.6871  -28.4989  -44.6923 C.3       10 UNK        -0.0849 
      7 S7         15.4660  -30.0900  -45.1490 S.3       10 UNK        -0.2776 
      8 C8         16.4083  -29.6945  -46.6603 C.3       10 UNK         0.0316 
      9 C9         17.8760  -29.4083  -46.3607 C.ar      10 UNK        -0.0863 
     10 C10        18.6969  -30.4241  -45.8591 C.ar      10 UNK        -0.1009 
     11 C11        20.0512  -30.1854  -45.6108 C.ar      10 UNK        -0.0712 
     12 C12        20.5855  -28.9187  -45.8583 C.ar      10 UNK        -0.0894 
     13 C13        19.7781  -27.8947  -46.3604 C.ar      10 UNK        -0.0745 
     14 C14        18.4274  -28.1481  -46.6184 C.ar      10 UNK        -0.0972 
     15 C15        20.3700  -26.5263  -46.6663 C.3       10 UNK         0.0209 
     16 S16        20.1883  -25.3695  -45.2720 S.3       10 UNK        -0.2568 
     17 C17        21.5293  -25.8966  -44.1529 C.3       10 UNK        -0.0983 
     18 CA         21.0158  -26.2659  -42.7403 C.3       3 UNK         0.0876 
     19 N          20.0245  -27.3435  -42.7730 N.am      3 UNK        -0.4424 
     20 C          19.3032  -27.7568  -41.7227 C.2       2 UNK         0.4918 
     21 O          19.3954  -27.2745  -40.5920 O.2       2 UNK        -0.4875 
     22 CA         18.2779  -28.8665  -42.0127 C.3       2 UNK         0.0481 
     23 CB         17.5073  -29.3287  -40.7583 C.3       2 UNK        -0.1831 
     24 N          17.3619  -28.4924  -43.0951 N.am      2 UNK        -0.4498 
     25 C          16.4648  -27.4950  -43.1006 C.2       1 UNK         0.5027 
     26 O          16.2586  -26.7476  -42.1402 O.2       1 UNK        -0.4969 
     27 C          22.2037  -26.6225  -41.8257 C.2       3 UNK         0.5005 
     28 O          22.7562  -27.7199  -41.9434 O.2       3 UNK        -0.5279 
     29 N          22.6142  -25.6712  -40.9744 N.am      4 UNK        -0.4463 
     30 CA         23.7055  -25.8110  -39.9997 C.3       4 UNK         0.0283 
     31 CB         23.7335  -24.5704  -39.0925 C.3       4 UNK        -0.1875 
     32 C          25.0961  -26.0554  -40.6160 C.2       4 UNK         0.4949 
     33 O          25.9841  -26.5420  -39.9173 O.2       4 UNK        -0.5039 
     34 N          25.2601  -25.7391  -41.9083 N.am      5 UNK        -0.4663 
     35 CA         26.4458  -26.0709  -42.7027 C.3       5 UNK         0.0242 
     36 CB         26.3840  -25.3143  -44.0395 C.3       5 UNK        -0.1982 
     37 C          26.6032  -27.5844  -42.9474 C.2       5 UNK         0.5017 
     38 O          27.7323  -28.0484  -43.1095 O.2       5 UNK        -0.5012 
     39 N          25.4807  -28.3168  -42.9658 N.am      6 UNK        -0.4439 
     40 CA         25.4319  -29.7744  -43.0726 C.3       6 UNK         0.0297 
     41 CB         24.3132  -30.1748  -44.0449 C.3       6 UNK        -0.2006 
     42 C          25.2142  -30.4102  -41.6919 C.2       6 UNK         0.4892 
     43 O          25.9027  -31.3763  -41.3618 O.2       6 UNK        -0.5089 
     44 N          24.2761  -29.8490  -40.9124 N.am      7 UNK        -0.4243 
     45 CA         23.9061  -30.1543  -39.5222 C.3       7 UNK         0.0196 
     46 CB         25.0859  -29.9057  -38.5636 C.3       7 UNK        -0.2007 
     47 C          23.2930  -31.5453  -39.2791 C.2       7 UNK         0.5020 
     48 O          22.3117  -31.6422  -38.5425 O.2       7 UNK        -0.5147 
     49 N          23.8598  -32.5949  -39.8873 N.am      8 UNK        -0.4734 
     50 CA         23.4614  -34.0008  -39.7280 C.3       8 UNK         0.0238 
     51 CB         24.4567  -34.8934  -40.4864 C.3       8 UNK        -0.1912 
     52 C          22.0192  -34.3049  -40.1725 C.2       8 UNK         0.5038 
     53 O          21.4014  -35.2273  -39.6393 O.2       8 UNK        -0.5046 
     54 N          21.5140  -33.5137  -41.1237 N.am      9 UNK        -0.4200 
     55 CA         20.1178  -33.4923  -41.5780 C.3       9 UNK         0.0839 
     56 C          19.1220  -32.8049  -40.5975 C.2       9 UNK         0.5513 
     57 N          19.5620  -32.1841  -39.5088 N.am      9 UNK        -0.7519 
     58 O          17.9156  -32.8581  -40.8201 O.2       9 UNK        -0.4960 
     59 C59        20.0044  -32.9378  -43.0239 C.3       10 UNK        -0.0876 
     60 S60        20.9338  -31.3873  -43.2903 S.3       10 UNK        -0.2414 
     61 C61        20.9499  -31.3006  -45.1056 C.3       10 UNK         0.0169 
     62 H62        13.5594  -23.9042  -44.1563 H         1 UNK         0.0903 
     63 H63        15.0131  -22.9293  -43.9322 H         1 UNK         0.0903 
     64 H64        14.3488  -23.1656  -45.5510 H         1 UNK         0.0903 
     65 H65        14.0078  -26.0830  -43.9403 H         1 UNK         0.3096 
     66 H66        16.3711  -27.2605  -45.2180 H         1 UNK         0.1121 
     67 H67        14.0360  -28.6732  -43.8335 H         1 UNK         0.0849 
     68 H68        14.0197  -28.2313  -45.5136 H         1 UNK         0.0849 
     69 H69        16.3528  -30.5486  -47.3368 H         1 UNK         0.0865 
     70 H70        15.9386  -28.8629  -47.1882 H         1 UNK         0.0865 
     71 H71        18.2826  -31.4057  -45.6714 H         1 UNK         0.1346 
     72 H72        21.6361  -28.7391  -45.6766 H         1 UNK         0.1412 
     73 H73        17.8111  -27.3593  -47.0290 H         1 UNK         0.1426 
     74 H74        21.4223  -26.6130  -46.9414 H         1 UNK         0.0716 
     75 H75        19.8684  -26.0995  -47.5362 H         1 UNK         0.0716 
     76 H76        22.0793  -26.7291  -44.5935 H         1 UNK         0.0695 
     77 H77        22.2396  -25.0696  -44.0934 H         1 UNK         0.0695 
     78 H78        20.5133  -25.3903  -42.3234 H         1 UNK         0.0983 
     79 H79        19.8831  -27.7872  -43.6690 H         1 UNK         0.3095 
     80 H80        18.8397  -29.7247  -42.3761 H         1 UNK         0.0454 
     81 H81        16.9215  -28.5245  -40.3131 H         1 UNK         0.0851 
     82 H82        16.8307  -30.1511  -40.9903 H         1 UNK         0.0851 
     83 H83        18.1969  -29.6836  -39.9924 H         1 UNK         0.0851 
     84 H84        17.4283  -29.0602  -43.9311 H         1 UNK         0.2976 
     85 H85        22.1149  -24.7928  -40.9554 H         1 UNK         0.3116 
     86 H86        23.4777  -26.6807  -39.3796 H         1 UNK         0.0646 
     87 H87        24.5130  -24.6583  -38.3341 H         1 UNK         0.0847 
     88 H88        22.7882  -24.4405  -38.5653 H         1 UNK         0.0847 
     89 H89        23.9328  -23.6597  -39.6587 H         1 UNK         0.0847 
     90 H90        24.4874  -25.3098  -42.3950 H         1 UNK         0.3040 
     91 H91        27.3287  -25.7341  -42.1545 H         1 UNK         0.1015 
     92 H92        26.3462  -24.2358  -43.8843 H         1 UNK         0.0786 
     93 H93        25.5112  -25.6013  -44.6276 H         1 UNK         0.0786 
     94 H94        27.2673  -25.5215  -44.6454 H         1 UNK         0.0786 
     95 H95        24.6001  -27.8534  -42.7684 H         1 UNK         0.3172 
     96 H96        26.3736  -30.1573  -43.4716 H         1 UNK         0.0595 
     97 H97        24.2009  -31.2590  -44.0902 H         1 UNK         0.0839 
     98 H98        24.5266  -29.8276  -45.0558 H         1 UNK         0.0839 
     99 H99        23.3522  -29.7554  -43.7467 H         1 UNK         0.0839 
    100 H100       23.7258  -29.0964  -41.3252 H         1 UNK         0.2998 
    101 H101       23.1279  -29.4309  -39.2726 H         1 UNK         0.0822 
    102 H102       25.4605  -28.8865  -38.6527 H         1 UNK         0.0787 
    103 H103       24.7815  -30.0486  -37.5259 H         1 UNK         0.0787 
    104 H104       25.9170  -30.5854  -38.7539 H         1 UNK         0.0787 
    105 H105       24.6746  -32.4009  -40.4669 H         1 UNK         0.3055 
    106 H106       23.5239  -34.2403  -38.6643 H         1 UNK         0.1106 
    107 H107       24.2042  -35.9484  -40.3702 H         1 UNK         0.0828 
    108 H108       24.4615  -34.6741  -41.5549 H         1 UNK         0.0828 
    109 H109       25.4723  -34.7620  -40.1127 H         1 UNK         0.0828 
    110 H110       22.0967  -32.7746  -41.4887 H         1 UNK         0.2931 
    111 H111       19.7864  -34.5316  -41.6218 H         1 UNK         0.0412 
    112 H112       18.8932  -31.7692  -38.8809 H         1 UNK         0.3472 
    113 H113       20.5516  -32.1276  -39.2926 H         1 UNK         0.3472 
    114 H114       18.9634  -32.7890  -43.3176 H         1 UNK         0.0970 
    115 H115       20.3980  -33.6887  -43.7104 H         1 UNK         0.0970 
    116 H116       20.6441  -32.2520  -45.5427 H         1 UNK         0.0612 
    117 H117       21.9736  -31.1360  -45.4428 H         1 UNK         0.0612 
@<TRIPOS>BOND
     1    1    2 1    
     2    1   62 1    
     3    1   63 1    
     4    1   64 1    
     5    2    3 2    
     6    2    4 am   BACKBONE|DICT|INTERRES
     7    4    5 1    
     8    4   65 1    
     9    5    6 1    
    10    5   25 1    
    11    5   66 1    
    12    6    7 1    
    13    6   67 1    
    14    6   68 1    
    15    7    8 1    
    16    8    9 1    
    17    8   69 1    
    18    8   70 1    
    19    9   10 ar   
    20    9   14 ar   
    21   10   11 ar   
    22   10   71 1    
    23   11   12 ar   
    24   11   61 1    
    25   12   13 ar   
    26   12   72 1    
    27   13   14 ar   
    28   13   15 1    
    29   14   73 1    
    30   15   16 1    
    31   15   74 1    
    32   15   75 1    
    33   16   17 1    
    34   17   18 1    
    35   17   76 1    
    36   17   77 1    
    37   18   19 1    
    38   18   27 1    
    39   18   78 1    
    40   19   20 am   BACKBONE|DICT|INTERRES
    41   19   79 1    
    42   20   21 2    
    43   20   22 1    
    44   22   23 1    
    45   22   24 1    
    46   22   80 1    
    47   23   81 1    
    48   23   82 1    
    49   23   83 1    
    50   24   25 am   BACKBONE|DICT|INTERRES
    51   24   84 1    
    52   25   26 2    
    53   27   28 2    
    54   27   29 am   BACKBONE|DICT|INTERRES
    55   29   30 1    
    56   29   85 1    
    57   30   31 1    
    58   30   32 1    
    59   30   86 1    
    60   31   87 1    
    61   31   88 1    
    62   31   89 1    
    63   32   33 2    
    64   32   34 am   BACKBONE|DICT|INTERRES
    65   34   35 1    
    66   34   90 1    
    67   35   36 1    
    68   35   37 1    
    69   35   91 1    
    70   36   92 1    
    71   36   93 1    
    72   36   94 1    
    73   37   38 2    
    74   37   39 am   BACKBONE|DICT|INTERRES
    75   39   40 1    
    76   39   95 1    
    77   40   41 1    
    78   40   42 1    
    79   40   96 1    
    80   41   97 1    
    81   41   98 1    
    82   41   99 1    
    83   42   43 2    
    84   42   44 am   BACKBONE|DICT|INTERRES
    85   44   45 1    
    86   44  100 1    
    87   45   46 1    
    88   45   47 1    
    89   45  101 1    
    90   46  102 1    
    91   46  103 1    
    92   46  104 1    
    93   47   48 2    
    94   47   49 am   BACKBONE|DICT|INTERRES
    95   49   50 1    
    96   49  105 1    
    97   50   51 1    
    98   50   52 1    
    99   50  106 1    
   100   51  107 1    
   101   51  108 1    
   102   51  109 1    
   103   52   53 2    
   104   52   54 am   BACKBONE|DICT|INTERRES
   105   54   55 1    
   106   54  110 1    
   107   55   56 1    
   108   55   59 1    
   109   55  111 1    
   110   56   57 am   BACKBONE|DICT|INTERRES
   111   56   58 2    
   112   57  112 1    
   113   57  113 1    
   114   59   60 1    
   115   59  114 1    
   116   59  115 1    
   117   60   61 1    
   118   61  116 1    
   119   61  117 1    
@<TRIPOS>SUBSTRUCTURE
     1 UNK         1 GROUP             0       ****    0 ROOT    
