@<TRIPOS>MOLECULE
3R8
117   119    1
SMALL
USER_CHARGES


@<TRIPOS>ATOM
      1 CA         18.1869  -27.9154  -41.7363 C.3       0 UNK        -0.2013 
      2 C          17.3987  -26.7237  -42.2460 C.2       0 UNK         0.4866 
      3 O          17.3188  -25.6986  -41.5689 O.2       0 UNK        -0.5176 
      4 N          16.8193  -26.8549  -43.4461 N.am      1 UNK        -0.4884 
      5 CA         16.0081  -25.8190  -44.1039 C.3       1 UNK         0.0853 
      6 C6         15.1884  -26.3951  -45.2843 C.3       10 UNK        -0.0849 
      7 S7         14.1113  -27.7736  -44.7594 S.3       10 UNK        -0.2776 
      8 C8         14.6812  -29.1420  -45.8202 C.3       10 UNK         0.0316 
      9 C9         16.1076  -29.5877  -45.5157 C.ar      10 UNK        -0.0863 
     10 C10        16.4042  -30.2490  -44.3198 C.ar      10 UNK        -0.1009 
     11 C11        17.6945  -30.7303  -44.0675 C.ar      10 UNK        -0.0712 
     12 C12        18.6956  -30.5329  -45.0270 C.ar      10 UNK        -0.0894 
     13 C13        18.4147  -29.8732  -46.2283 C.ar      10 UNK        -0.0745 
     14 C14        17.1177  -29.4037  -46.4638 C.ar      10 UNK        -0.0972 
     15 C15        19.4897  -29.7420  -47.3032 C.3       10 UNK         0.0209 
     16 S16        19.6793  -28.0294  -47.8980 S.3       10 UNK        -0.2568 
     17 C17        21.4074  -27.6111  -47.4527 C.3       10 UNK        -0.0983 
     18 CA         21.5686  -26.8094  -46.1271 C.3       3 UNK         0.0876 
     19 N          20.5027  -25.8139  -45.9844 N.am      3 UNK        -0.4424 
     20 C          20.5114  -24.6923  -45.2552 C.2       2 UNK         0.4918 
     21 O          21.4714  -24.3143  -44.5840 O.2       2 UNK        -0.4875 
     22 CA         19.1863  -23.9248  -45.2137 C.3       2 UNK         0.0481 
     23 CB         18.9086  -23.2241  -46.5591 C.3       2 UNK        -0.1831 
     24 N          18.1330  -24.8764  -44.8627 N.am      2 UNK        -0.4498 
     25 C          16.8550  -24.6133  -44.5664 C.2       1 UNK         0.5027 
     26 O          16.3447  -23.4936  -44.6264 O.2       1 UNK        -0.4969 
     27 C          21.7211  -27.6995  -44.8685 C.2       3 UNK         0.5005 
     28 O          21.7599  -28.9255  -44.9735 O.2       3 UNK        -0.5279 
     29 N          21.8162  -27.0650  -43.6906 N.am      4 UNK        -0.4463 
     30 CA         21.9986  -27.7227  -42.3927 C.3       4 UNK         0.0283 
     31 CB         21.7735  -26.7026  -41.2656 C.3       4 UNK        -0.1875 
     32 C          23.3718  -28.3979  -42.2393 C.2       4 UNK         0.4949 
     33 O          23.4648  -29.3980  -41.5296 O.2       4 UNK        -0.5039 
     34 N          24.3995  -27.8353  -42.8979 N.am      5 UNK        -0.4663 
     35 CA         25.7715  -28.3494  -43.0314 C.3       5 UNK         0.0242 
     36 CB         25.7943  -29.5090  -44.0487 C.3       5 UNK        -0.1982 
     37 C          26.4375  -28.7124  -41.6876 C.2       5 UNK         0.5017 
     38 O          26.9889  -29.8050  -41.5462 O.2       5 UNK        -0.5012 
     39 N          26.3492  -27.7818  -40.7243 N.am      6 UNK        -0.4439 
     40 CA         26.8217  -27.8975  -39.3368 C.3       6 UNK         0.0297 
     41 CB         28.3609  -28.0146  -39.2768 C.3       6 UNK        -0.2006 
     42 C          26.0951  -29.0126  -38.5566 C.2       6 UNK         0.4892 
     43 O          26.7386  -29.8183  -37.8811 O.2       6 UNK        -0.5089 
     44 N          24.7579  -29.0139  -38.6675 N.am      7 UNK        -0.4243 
     45 CA         23.8069  -29.9384  -38.0385 C.3       7 UNK         0.0196 
     46 CB         23.8375  -29.8114  -36.4992 C.3       7 UNK        -0.2007 
     47 C          23.9562  -31.3911  -38.5307 C.2       7 UNK         0.5020 
     48 O          23.8371  -32.3298  -37.7406 O.2       7 UNK        -0.5147 
     49 N          24.1602  -31.5590  -39.8448 N.am      8 UNK        -0.4734 
     50 CA         24.1943  -32.8595  -40.5261 C.3       8 UNK         0.0238 
     51 CB         24.7256  -32.6715  -41.9546 C.3       8 UNK        -0.1912 
     52 C          22.8207  -33.5543  -40.5584 C.2       8 UNK         0.5038 
     53 O          22.7647  -34.7773  -40.6921 O.2       8 UNK        -0.5046 
     54 N          21.7493  -32.7630  -40.4171 N.am      9 UNK        -0.4200 
     55 CA         20.3585  -33.2111  -40.2645 C.3       9 UNK         0.0839 
     56 C          20.0725  -34.0006  -38.9516 C.2       9 UNK         0.5513 
     57 N          20.9443  -33.9770  -37.9487 N.am      9 UNK        -0.7519 
     58 O          19.0343  -34.6478  -38.8434 O.2       9 UNK        -0.4960 
     59 C59        19.3679  -32.0253  -40.4024 C.3       10 UNK        -0.0876 
     60 S60        19.5408  -31.1150  -41.9764 S.3       10 UNK        -0.2414 
     61 C61        17.9626  -31.5266  -42.7915 C.3       10 UNK         0.0169 
     62 H62        18.8091  -27.6393  -40.8854 H         1 UNK         0.0903 
     63 H63        17.5112  -28.7096  -41.4195 H         1 UNK         0.0903 
     64 H64        18.8361  -28.3030  -42.5210 H         1 UNK         0.0903 
     65 H65        16.8745  -27.7399  -43.9348 H         1 UNK         0.3096 
     66 H66        15.3030  -25.4354  -43.3623 H         1 UNK         0.1121 
     67 H67        14.5493  -25.6219  -45.7157 H         1 UNK         0.0849 
     68 H68        15.8486  -26.7241  -46.0892 H         1 UNK         0.0849 
     69 H69        14.0110  -29.9918  -45.6818 H         1 UNK         0.0865 
     70 H70        14.5782  -28.8479  -46.8661 H         1 UNK         0.0865 
     71 H71        15.6160  -30.4141  -43.5972 H         1 UNK         0.1346 
     72 H72        19.6915  -30.9167  -44.8491 H         1 UNK         0.1412 
     73 H73        16.8912  -28.9176  -47.4034 H         1 UNK         0.1426 
     74 H74        19.2105  -30.3714  -48.1491 H         1 UNK         0.0716 
     75 H75        20.4453  -30.1266  -46.9457 H         1 UNK         0.0716 
     76 H76        21.7809  -26.9910  -48.2691 H         1 UNK         0.0695 
     77 H77        22.0371  -28.5022  -47.4790 H         1 UNK         0.0695 
     78 H78        22.5135  -26.2660  -46.2019 H         1 UNK         0.0983 
     79 H79        19.6696  -26.0370  -46.5115 H         1 UNK         0.3095 
     80 H80        19.2513  -23.1731  -44.4244 H         1 UNK         0.0454 
     81 H81        19.7487  -22.5915  -46.8491 H         1 UNK         0.0851 
     82 H82        18.0317  -22.5796  -46.5023 H         1 UNK         0.0851 
     83 H83        18.7437  -23.9390  -47.3661 H         1 UNK         0.0851 
     84 H84        18.4414  -25.8278  -44.7169 H         1 UNK         0.2976 
     85 H85        21.7835  -26.0497  -43.7005 H         1 UNK         0.3116 
     86 H86        21.2422  -28.5048  -42.3042 H         1 UNK         0.0646 
     87 H87        22.5189  -25.9066  -41.2848 H         1 UNK         0.0847 
     88 H88        20.7902  -26.2378  -41.3382 H         1 UNK         0.0847 
     89 H89        21.8323  -27.1830  -40.2880 H         1 UNK         0.0847 
     90 H90        24.1999  -26.9929  -43.4188 H         1 UNK         0.3040 
     91 H91        26.3711  -27.5393  -43.4501 H         1 UNK         0.1015 
     92 H92        26.8100  -29.8711  -44.2147 H         1 UNK         0.0786 
     93 H93        25.4016  -29.1941  -45.0157 H         1 UNK         0.0786 
     94 H94        25.1962  -30.3531  -43.7089 H         1 UNK         0.0786 
     95 H95        25.8672  -26.9229  -40.9536 H         1 UNK         0.3172 
     96 H96        26.5510  -26.9617  -38.8448 H         1 UNK         0.0595 
     97 H97        28.7161  -28.9555  -39.6987 H         1 UNK         0.0839 
     98 H98        28.7142  -27.9701  -38.2455 H         1 UNK         0.0839 
     99 H99        28.8428  -27.2008  -39.8184 H         1 UNK         0.0839 
    100 H100       24.3466  -28.3390  -39.2969 H         1 UNK         0.2998 
    101 H101       22.8171  -29.6174  -38.3687 H         1 UNK         0.0822 
    102 H102       23.0329  -30.3908  -36.0443 H         1 UNK         0.0787 
    103 H103       23.7077  -28.7762  -36.1827 H         1 UNK         0.0787 
    104 H104       24.7758  -30.1764  -36.0794 H         1 UNK         0.0787 
    105 H105       24.1734  -30.7334  -40.4422 H         1 UNK         0.3055 
    106 H106       24.8808  -33.5115  -39.9812 H         1 UNK         0.1106 
    107 H107       25.7125  -32.2085  -41.9543 H         1 UNK         0.0828 
    108 H108       24.8170  -33.6299  -42.4677 H         1 UNK         0.0828 
    109 H109       24.0572  -32.0461  -42.5478 H         1 UNK         0.0828 
    110 H110       21.9034  -31.7675  -40.3581 H         1 UNK         0.2931 
    111 H111       20.1598  -33.9041  -41.0842 H         1 UNK         0.0412 
    112 H112       20.7411  -34.4961  -37.1089 H         1 UNK         0.3472 
    113 H113       21.8086  -33.4580  -38.0218 H         1 UNK         0.3472 
    114 H114       18.3396  -32.3781  -40.3025 H         1 UNK         0.0970 
    115 H115       19.5153  -31.3138  -39.5876 H         1 UNK         0.0970 
    116 H116       17.9556  -32.5904  -43.0321 H         1 UNK         0.0612 
    117 H117       17.1539  -31.3608  -42.0781 H         1 UNK         0.0612 
@<TRIPOS>BOND
     1    1    2 1    
     2    1   62 1    
     3    1   63 1    
     4    1   64 1    
     5    2    3 2    
     6    2    4 am   BACKBONE|DICT|INTERRES
     7    4    5 1    
     8    4   65 1    
     9    5    6 1    
    10    5   25 1    
    11    5   66 1    
    12    6    7 1    
    13    6   67 1    
    14    6   68 1    
    15    7    8 1    
    16    8    9 1    
    17    8   69 1    
    18    8   70 1    
    19    9   10 ar   
    20    9   14 ar   
    21   10   11 ar   
    22   10   71 1    
    23   11   12 ar   
    24   11   61 1    
    25   12   13 ar   
    26   12   72 1    
    27   13   14 ar   
    28   13   15 1    
    29   14   73 1    
    30   15   16 1    
    31   15   74 1    
    32   15   75 1    
    33   16   17 1    
    34   17   18 1    
    35   17   76 1    
    36   17   77 1    
    37   18   19 1    
    38   18   27 1    
    39   18   78 1    
    40   19   20 am   BACKBONE|DICT|INTERRES
    41   19   79 1    
    42   20   21 2    
    43   20   22 1    
    44   22   23 1    
    45   22   24 1    
    46   22   80 1    
    47   23   81 1    
    48   23   82 1    
    49   23   83 1    
    50   24   25 am   BACKBONE|DICT|INTERRES
    51   24   84 1    
    52   25   26 2    
    53   27   28 2    
    54   27   29 am   BACKBONE|DICT|INTERRES
    55   29   30 1    
    56   29   85 1    
    57   30   31 1    
    58   30   32 1    
    59   30   86 1    
    60   31   87 1    
    61   31   88 1    
    62   31   89 1    
    63   32   33 2    
    64   32   34 am   BACKBONE|DICT|INTERRES
    65   34   35 1    
    66   34   90 1    
    67   35   36 1    
    68   35   37 1    
    69   35   91 1    
    70   36   92 1    
    71   36   93 1    
    72   36   94 1    
    73   37   38 2    
    74   37   39 am   BACKBONE|DICT|INTERRES
    75   39   40 1    
    76   39   95 1    
    77   40   41 1    
    78   40   42 1    
    79   40   96 1    
    80   41   97 1    
    81   41   98 1    
    82   41   99 1    
    83   42   43 2    
    84   42   44 am   BACKBONE|DICT|INTERRES
    85   44   45 1    
    86   44  100 1    
    87   45   46 1    
    88   45   47 1    
    89   45  101 1    
    90   46  102 1    
    91   46  103 1    
    92   46  104 1    
    93   47   48 2    
    94   47   49 am   BACKBONE|DICT|INTERRES
    95   49   50 1    
    96   49  105 1    
    97   50   51 1    
    98   50   52 1    
    99   50  106 1    
   100   51  107 1    
   101   51  108 1    
   102   51  109 1    
   103   52   53 2    
   104   52   54 am   BACKBONE|DICT|INTERRES
   105   54   55 1    
   106   54  110 1    
   107   55   56 1    
   108   55   59 1    
   109   55  111 1    
   110   56   57 am   BACKBONE|DICT|INTERRES
   111   56   58 2    
   112   57  112 1    
   113   57  113 1    
   114   59   60 1    
   115   59  114 1    
   116   59  115 1    
   117   60   61 1    
   118   61  116 1    
   119   61  117 1    
@<TRIPOS>SUBSTRUCTURE
     1 UNK         1 GROUP             0       ****    0 ROOT    
