@<TRIPOS>MOLECULE
3R8
117   119    1
SMALL
USER_CHARGES


@<TRIPOS>ATOM
      1 CA         20.9618  -27.7470  -50.9966 C.3       0 UNK        -0.2013 
      2 C          20.5572  -27.9701  -49.5470 C.2       0 UNK         0.4866 
      3 O          21.3280  -28.5449  -48.7778 O.2       0 UNK        -0.5176 
      4 N          19.3508  -27.5279  -49.1694 N.am      1 UNK        -0.4884 
      5 CA         18.8321  -27.5950  -47.8006 C.3       1 UNK         0.0853 
      6 C6         17.2827  -27.4438  -47.7860 C.3       10 UNK        -0.0849 
      7 S7         16.5221  -27.2042  -46.1385 S.3       10 UNK        -0.2776 
      8 C8         16.2009  -28.9141  -45.5847 C.3       10 UNK         0.0316 
      9 C9         16.3389  -29.0829  -44.0709 C.ar      10 UNK        -0.0863 
     10 C10        16.9801  -30.2144  -43.5546 C.ar      10 UNK        -0.1009 
     11 C11        17.1329  -30.3819  -42.1742 C.ar      10 UNK        -0.0712 
     12 C12        16.6269  -29.4151  -41.3009 C.ar      10 UNK        -0.0894 
     13 C13        16.0269  -28.2568  -41.8025 C.ar      10 UNK        -0.0745 
     14 C14        15.8524  -28.1155  -43.1824 C.ar      10 UNK        -0.0972 
     15 C15        15.6246  -27.1250  -40.8671 C.3       10 UNK         0.0209 
     16 S16        16.7363  -25.6845  -41.0474 S.3       10 UNK        -0.2568 
     17 C17        18.2376  -26.1970  -40.1380 C.3       10 UNK        -0.0983 
     18 CA         19.2263  -27.0392  -40.9886 C.3       3 UNK         0.0876 
     19 N          19.6271  -26.3738  -42.2332 N.am      3 UNK        -0.4424 
     20 C          20.0277  -27.0387  -43.3228 C.2       2 UNK         0.4918 
     21 O          20.1175  -28.2673  -43.3892 O.2       2 UNK        -0.4875 
     22 CA         20.3656  -26.2102  -44.5663 C.3       2 UNK         0.0481 
     23 CB         21.8728  -25.9191  -44.6643 C.3       2 UNK        -0.1831 
     24 N          19.9215  -27.0074  -45.7003 N.am      2 UNK        -0.4498 
     25 C          19.5563  -26.5639  -46.9048 C.2       1 UNK         0.5027 
     26 O          19.7172  -25.4053  -47.2982 O.2       1 UNK        -0.4969 
     27 C          20.4455  -27.5210  -40.1747 C.2       3 UNK         0.5005 
     28 O          21.5839  -27.1867  -40.5086 O.2       3 UNK        -0.5279 
     29 N          20.1736  -28.2972  -39.1139 N.am      4 UNK        -0.4463 
     30 CA         21.1070  -29.1126  -38.3193 C.3       4 UNK         0.0283 
     31 CB         20.2950  -29.9064  -37.2808 C.3       4 UNK        -0.1875 
     32 C          22.3071  -28.4054  -37.6532 C.2       4 UNK         0.4949 
     33 O          23.1364  -29.0863  -37.0481 O.2       4 UNK        -0.5039 
     34 N          22.4136  -27.0773  -37.7832 N.am      5 UNK        -0.4663 
     35 CA         23.6479  -26.3272  -37.5343 C.3       5 UNK         0.0242 
     36 CB         23.3286  -24.8241  -37.5022 C.3       5 UNK        -0.1982 
     37 C          24.7324  -26.6308  -38.5899 C.2       5 UNK         0.5017 
     38 O          25.9197  -26.5551  -38.2714 O.2       5 UNK        -0.5012 
     39 N          24.3057  -26.9818  -39.8108 N.am      6 UNK        -0.4439 
     40 CA         25.1398  -27.4856  -40.8975 C.3       6 UNK         0.0297 
     41 CB         24.6073  -26.9178  -42.2248 C.3       6 UNK        -0.2006 
     42 C          25.0908  -29.0216  -40.9249 C.2       6 UNK         0.4892 
     43 O          24.1532  -29.6286  -40.4028 O.2       6 UNK        -0.5089 
     44 N          26.0848  -29.6250  -41.5881 N.am      7 UNK        -0.4243 
     45 CA         26.2131  -31.0764  -41.7710 C.3       7 UNK         0.0196 
     46 CB         27.6627  -31.3959  -42.1750 C.3       7 UNK        -0.2007 
     47 C          25.2228  -31.6812  -42.7881 C.2       7 UNK         0.5020 
     48 O          25.1794  -32.9045  -42.9226 O.2       7 UNK        -0.5147 
     49 N          24.4548  -30.8348  -43.4903 N.am      8 UNK        -0.4734 
     50 CA         23.5087  -31.1946  -44.5545 C.3       8 UNK         0.0238 
     51 CB         22.8817  -29.9091  -45.1191 C.3       8 UNK        -0.1912 
     52 C          22.4087  -32.1943  -44.1482 C.2       8 UNK         0.5038 
     53 O          21.9273  -32.9294  -45.0117 O.2       8 UNK        -0.5046 
     54 N          22.0457  -32.2210  -42.8593 N.am      9 UNK        -0.4200 
     55 CA         21.1056  -33.1958  -42.2801 C.3       9 UNK         0.0839 
     56 C          21.7101  -34.6139  -42.0593 C.2       9 UNK         0.5513 
     57 N          23.0101  -34.8293  -42.2278 N.am      9 UNK        -0.7519 
     58 O          20.9776  -35.5445  -41.7335 O.2       9 UNK        -0.4960 
     59 C59        20.4349  -32.6693  -40.9833 C.3       10 UNK        -0.0876 
     60 S60        19.6100  -31.0647  -41.2291 S.3       10 UNK        -0.2414 
     61 C61        17.9093  -31.5693  -41.6275 C.3       10 UNK         0.0169 
     62 H62        21.1670  -28.7019  -51.4800 H         1 UNK         0.0903 
     63 H63        20.1823  -27.2400  -51.5651 H         1 UNK         0.0903 
     64 H64        21.8653  -27.1398  -51.0442 H         1 UNK         0.0903 
     65 H65        18.7742  -27.0331  -49.8353 H         1 UNK         0.3096 
     66 H66        19.0622  -28.5908  -47.4138 H         1 UNK         0.1121 
     67 H67        16.8188  -28.3032  -48.2729 H         1 UNK         0.0849 
     68 H68        16.9962  -26.5777  -48.3855 H         1 UNK         0.0849 
     69 H69        15.1952  -29.2067  -45.8888 H         1 UNK         0.0865 
     70 H70        16.8890  -29.5883  -46.0968 H         1 UNK         0.0865 
     71 H71        17.3846  -30.9580  -44.2276 H         1 UNK         0.1346 
     72 H72        16.7697  -29.5320  -40.2354 H         1 UNK         0.1412 
     73 H73        15.3774  -27.2220  -43.5638 H         1 UNK         0.1426 
     74 H74        15.6115  -27.4552  -39.8273 H         1 UNK         0.0716 
     75 H75        14.6057  -26.8143  -41.1025 H         1 UNK         0.0716 
     76 H76        18.7320  -25.2932  -39.7774 H         1 UNK         0.0695 
     77 H77        17.9195  -26.7406  -39.2471 H         1 UNK         0.0695 
     78 H78        18.7164  -27.9537  -41.2789 H         1 UNK         0.0983 
     79 H79        19.5918  -25.3657  -42.2404 H         1 UNK         0.3095 
     80 H80        19.8050  -25.2735  -44.5384 H         1 UNK         0.0454 
     81 H81        22.2178  -25.3546  -43.7973 H         1 UNK         0.0851 
     82 H82        22.4577  -26.8379  -44.7113 H         1 UNK         0.0851 
     83 H83        22.1062  -25.3294  -45.5507 H         1 UNK         0.0851 
     84 H84        19.7362  -27.9704  -45.4443 H         1 UNK         0.2976 
     85 H85        19.1998  -28.4695  -38.9128 H         1 UNK         0.3116 
     86 H86        21.5457  -29.8316  -39.0143 H         1 UNK         0.0646 
     87 H87        20.9356  -30.5743  -36.7032 H         1 UNK         0.0847 
     88 H88        19.5389  -30.5297  -37.7588 H         1 UNK         0.0847 
     89 H89        19.7926  -29.2457  -36.5734 H         1 UNK         0.0847 
     90 H90        21.7035  -26.6120  -38.3311 H         1 UNK         0.3040 
     91 H91        24.0426  -26.6195  -36.5586 H         1 UNK         0.1015 
     92 H92        22.6048  -24.5887  -36.7217 H         1 UNK         0.0786 
     93 H93        22.9234  -24.4767  -38.4536 H         1 UNK         0.0786 
     94 H94        24.2268  -24.2399  -37.2972 H         1 UNK         0.0786 
     95 H95        23.3011  -27.0728  -39.9656 H         1 UNK         0.3172 
     96 H96        26.1738  -27.1625  -40.7602 H         1 UNK         0.0595 
     97 H97        24.5969  -25.8278  -42.2128 H         1 UNK         0.0839 
     98 H98        23.5901  -27.2573  -42.4265 H         1 UNK         0.0839 
     99 H99        25.2287  -27.2244  -43.0669 H         1 UNK         0.0839 
    100 H100       26.8088  -29.0547  -42.0025 H         1 UNK         0.2998 
    101 H101       26.0140  -31.5588  -40.8114 H         1 UNK         0.0822 
    102 H102       28.3716  -31.0401  -41.4270 H         1 UNK         0.0787 
    103 H103       27.8148  -32.4718  -42.2736 H         1 UNK         0.0787 
    104 H104       27.9247  -30.9414  -43.1314 H         1 UNK         0.0787 
    105 H105       24.5551  -29.8504  -43.2942 H         1 UNK         0.3055 
    106 H106       24.0861  -31.6714  -45.3496 H         1 UNK         0.1106 
    107 H107       22.3344  -29.3629  -44.3507 H         1 UNK         0.0828 
    108 H108       23.6383  -29.2424  -45.5329 H         1 UNK         0.0828 
    109 H109       22.1779  -30.1329  -45.9224 H         1 UNK         0.0828 
    110 H110       22.4841  -31.5773  -42.2171 H         1 UNK         0.2931 
    111 H111       20.3039  -33.3360  -43.0079 H         1 UNK         0.0412 
    112 H112       23.3755  -35.7571  -42.0828 H         1 UNK         0.3472 
    113 H113       23.6387  -34.0813  -42.5026 H         1 UNK         0.3472 
    114 H114       21.1795  -32.5488  -40.1944 H         1 UNK         0.0970 
    115 H115       19.7042  -33.3857  -40.6026 H         1 UNK         0.0970 
    116 H116       17.4233  -31.9609  -40.7328 H         1 UNK         0.0612 
    117 H117       17.9295  -32.3798  -42.3577 H         1 UNK         0.0612 
@<TRIPOS>BOND
     1    1    2 1    
     2    1   62 1    
     3    1   63 1    
     4    1   64 1    
     5    2    3 2    
     6    2    4 am   BACKBONE|DICT|INTERRES
     7    4    5 1    
     8    4   65 1    
     9    5    6 1    
    10    5   25 1    
    11    5   66 1    
    12    6    7 1    
    13    6   67 1    
    14    6   68 1    
    15    7    8 1    
    16    8    9 1    
    17    8   69 1    
    18    8   70 1    
    19    9   10 ar   
    20    9   14 ar   
    21   10   11 ar   
    22   10   71 1    
    23   11   12 ar   
    24   11   61 1    
    25   12   13 ar   
    26   12   72 1    
    27   13   14 ar   
    28   13   15 1    
    29   14   73 1    
    30   15   16 1    
    31   15   74 1    
    32   15   75 1    
    33   16   17 1    
    34   17   18 1    
    35   17   76 1    
    36   17   77 1    
    37   18   19 1    
    38   18   27 1    
    39   18   78 1    
    40   19   20 am   BACKBONE|DICT|INTERRES
    41   19   79 1    
    42   20   21 2    
    43   20   22 1    
    44   22   23 1    
    45   22   24 1    
    46   22   80 1    
    47   23   81 1    
    48   23   82 1    
    49   23   83 1    
    50   24   25 am   BACKBONE|DICT|INTERRES
    51   24   84 1    
    52   25   26 2    
    53   27   28 2    
    54   27   29 am   BACKBONE|DICT|INTERRES
    55   29   30 1    
    56   29   85 1    
    57   30   31 1    
    58   30   32 1    
    59   30   86 1    
    60   31   87 1    
    61   31   88 1    
    62   31   89 1    
    63   32   33 2    
    64   32   34 am   BACKBONE|DICT|INTERRES
    65   34   35 1    
    66   34   90 1    
    67   35   36 1    
    68   35   37 1    
    69   35   91 1    
    70   36   92 1    
    71   36   93 1    
    72   36   94 1    
    73   37   38 2    
    74   37   39 am   BACKBONE|DICT|INTERRES
    75   39   40 1    
    76   39   95 1    
    77   40   41 1    
    78   40   42 1    
    79   40   96 1    
    80   41   97 1    
    81   41   98 1    
    82   41   99 1    
    83   42   43 2    
    84   42   44 am   BACKBONE|DICT|INTERRES
    85   44   45 1    
    86   44  100 1    
    87   45   46 1    
    88   45   47 1    
    89   45  101 1    
    90   46  102 1    
    91   46  103 1    
    92   46  104 1    
    93   47   48 2    
    94   47   49 am   BACKBONE|DICT|INTERRES
    95   49   50 1    
    96   49  105 1    
    97   50   51 1    
    98   50   52 1    
    99   50  106 1    
   100   51  107 1    
   101   51  108 1    
   102   51  109 1    
   103   52   53 2    
   104   52   54 am   BACKBONE|DICT|INTERRES
   105   54   55 1    
   106   54  110 1    
   107   55   56 1    
   108   55   59 1    
   109   55  111 1    
   110   56   57 am   BACKBONE|DICT|INTERRES
   111   56   58 2    
   112   57  112 1    
   113   57  113 1    
   114   59   60 1    
   115   59  114 1    
   116   59  115 1    
   117   60   61 1    
   118   61  116 1    
   119   61  117 1    
@<TRIPOS>SUBSTRUCTURE
     1 UNK         1 GROUP             0       ****    0 ROOT    
