@<TRIPOS>MOLECULE
3R8
117   119    1
SMALL
USER_CHARGES


@<TRIPOS>ATOM
      1 CA         15.9479  -22.3103  -42.1694 C.3       0 UNK        -0.2013 
      2 C          16.8094  -23.3881  -42.8098 C.2       0 UNK         0.4866 
      3 O          18.0244  -23.3961  -42.6078 O.2       0 UNK        -0.5176 
      4 N          16.1896  -24.2865  -43.5888 N.am      1 UNK        -0.4884 
      5 CA         16.7714  -25.4368  -44.3031 C.3       1 UNK         0.0853 
      6 C6         17.4829  -26.4646  -43.3824 C.3       10 UNK        -0.0849 
      7 S7         16.3411  -27.2839  -42.2167 S.3       10 UNK        -0.2776 
      8 C8         15.7540  -28.7201  -43.1794 C.3       10 UNK         0.0316 
      9 C9         16.8905  -29.6402  -43.6047 C.ar      10 UNK        -0.0863 
     10 C10        17.4975  -30.4920  -42.6773 C.ar      10 UNK        -0.1009 
     11 C11        18.5602  -31.3177  -43.0592 C.ar      10 UNK        -0.0712 
     12 C12        19.0182  -31.2791  -44.3807 C.ar      10 UNK        -0.0894 
     13 C13        18.4261  -30.4236  -45.3141 C.ar      10 UNK        -0.0745 
     14 C14        17.3466  -29.6259  -44.9259 C.ar      10 UNK        -0.0972 
     15 C15        18.9599  -30.3501  -46.7381 C.3       10 UNK         0.0209 
     16 S16        19.5292  -28.6745  -47.1767 S.3       10 UNK        -0.2568 
     17 C17        20.9197  -28.4348  -46.0201 C.3       10 UNK        -0.0983 
     18 CA         21.6126  -27.0652  -46.2378 C.3       3 UNK         0.0876 
     19 N          20.6969  -25.9457  -45.9788 N.am      3 UNK        -0.4424 
     20 C          20.7593  -24.7409  -46.5618 C.2       2 UNK         0.4918 
     21 O          21.6212  -24.4347  -47.3864 O.2       2 UNK        -0.4875 
     22 CA         19.7223  -23.6804  -46.1290 C.3       2 UNK         0.0481 
     23 CB         19.1155  -22.9395  -47.3387 C.3       2 UNK        -0.1831 
     24 N          18.6738  -24.1745  -45.2226 N.am      2 UNK        -0.4498 
     25 C          17.6842  -25.0410  -45.4829 C.2       1 UNK         0.5027 
     26 O          17.4880  -25.5471  -46.5870 O.2       1 UNK        -0.4969 
     27 C          22.9167  -26.9623  -45.4144 C.2       3 UNK         0.5005 
     28 O          23.8268  -27.7615  -45.6367 O.2       3 UNK        -0.5279 
     29 N          22.9897  -26.0057  -44.4731 N.am      4 UNK        -0.4463 
     30 CA         24.1244  -25.6201  -43.6150 C.3       4 UNK         0.0283 
     31 CB         25.3302  -25.1656  -44.4606 C.3       4 UNK        -0.1875 
     32 C          24.5589  -26.6567  -42.5600 C.2       4 UNK         0.4949 
     33 O          25.0668  -26.2572  -41.5124 O.2       4 UNK        -0.5039 
     34 N          24.3524  -27.9505  -42.8335 N.am      5 UNK        -0.4663 
     35 CA         24.6837  -29.0782  -41.9566 C.3       5 UNK         0.0242 
     36 CB         24.4592  -30.3842  -42.7315 C.3       5 UNK        -0.1982 
     37 C          23.9006  -29.0888  -40.6313 C.2       5 UNK         0.5017 
     38 O          24.4505  -29.5210  -39.6160 O.2       5 UNK        -0.5012 
     39 N          22.6495  -28.6033  -40.6730 N.am      6 UNK        -0.4439 
     40 CA         21.6958  -28.3606  -39.5788 C.3       6 UNK         0.0297 
     41 CB         22.2105  -27.2502  -38.6419 C.3       6 UNK        -0.2006 
     42 C          21.2693  -29.6056  -38.7777 C.2       6 UNK         0.4892 
     43 O          20.0744  -29.8904  -38.6946 O.2       6 UNK        -0.5089 
     44 N          22.2473  -30.3025  -38.1941 N.am      7 UNK        -0.4243 
     45 CA         22.0901  -31.5278  -37.4125 C.3       7 UNK         0.0196 
     46 CB         22.3822  -31.2271  -35.9334 C.3       7 UNK        -0.2007 
     47 C          23.0037  -32.6511  -37.9245 C.2       7 UNK         0.5020 
     48 O          22.6692  -33.8200  -37.7311 O.2       7 UNK        -0.5147 
     49 N          24.1185  -32.3103  -38.5940 N.am      8 UNK        -0.4734 
     50 CA         25.0637  -33.2778  -39.1724 C.3       8 UNK         0.0238 
     51 CB         26.3491  -32.5450  -39.5902 C.3       8 UNK        -0.1912 
     52 C          24.4779  -34.0764  -40.3527 C.2       8 UNK         0.5038 
     53 O          24.9699  -35.1628  -40.6584 O.2       8 UNK        -0.5046 
     54 N          23.4260  -33.5277  -40.9684 N.am      9 UNK        -0.4200 
     55 CA         22.5609  -34.1699  -41.9635 C.3       9 UNK         0.0839 
     56 C          21.5951  -35.2474  -41.3851 C.2       9 UNK         0.5513 
     57 N          21.4729  -35.4127  -40.0723 N.am      9 UNK        -0.7519 
     58 O          20.9491  -35.9583  -42.1504 O.2       9 UNK        -0.4960 
     59 C59        21.8074  -33.1050  -42.8058 C.3       10 UNK        -0.0876 
     60 S60        20.9651  -31.8420  -41.7798 S.3       10 UNK        -0.2414 
     61 C61        19.2097  -32.2447  -42.0401 C.3       10 UNK         0.0169 
     62 H62        16.0332  -22.3596  -41.0842 H         1 UNK         0.0903 
     63 H63        16.2796  -21.3240  -42.4928 H         1 UNK         0.0903 
     64 H64        14.8956  -22.4177  -42.4317 H         1 UNK         0.0903 
     65 H65        15.1916  -24.1879  -43.7178 H         1 UNK         0.3096 
     66 H66        15.9219  -25.9486  -44.7592 H         1 UNK         0.1121 
     67 H67        18.2658  -25.9825  -42.7957 H         1 UNK         0.0849 
     68 H68        18.0026  -27.2218  -43.9683 H         1 UNK         0.0849 
     69 H69        15.0416  -29.2828  -42.5743 H         1 UNK         0.0865 
     70 H70        15.1972  -28.3671  -44.0488 H         1 UNK         0.0865 
     71 H71        17.1466  -30.5013  -41.6541 H         1 UNK         0.1346 
     72 H72        19.8484  -31.9038  -44.6776 H         1 UNK         0.1412 
     73 H73        16.8887  -28.9637  -45.6486 H         1 UNK         0.1426 
     74 H74        18.1691  -30.6461  -47.4285 H         1 UNK         0.0716 
     75 H75        19.7800  -31.0541  -46.8877 H         1 UNK         0.0716 
     76 H76        20.5543  -28.5249  -44.9952 H         1 UNK         0.0695 
     77 H77        21.6226  -29.2563  -46.1727 H         1 UNK         0.0695 
     78 H78        21.9216  -27.0180  -47.2847 H         1 UNK         0.0983 
     79 H79        19.9379  -26.1265  -45.3409 H         1 UNK         0.3095 
     80 H80        20.2805  -22.9452  -45.5479 H         1 UNK         0.0454 
     81 H81        18.4005  -22.1804  -47.0221 H         1 UNK         0.0851 
     82 H82        19.8898  -22.4314  -47.9146 H         1 UNK         0.0851 
     83 H83        18.6044  -23.6204  -48.0196 H         1 UNK         0.0851 
     84 H84        18.7046  -23.8134  -44.2697 H         1 UNK         0.2976 
     85 H85        22.1630  -25.4377  -44.3533 H         1 UNK         0.3116 
     86 H86        23.7772  -24.7502  -43.0549 H         1 UNK         0.0646 
     87 H87        26.1255  -24.7737  -43.8251 H         1 UNK         0.0847 
     88 H88        25.0522  -24.3735  -45.1558 H         1 UNK         0.0847 
     89 H89        25.7557  -25.9861  -45.0391 H         1 UNK         0.0847 
     90 H90        24.0190  -28.1689  -43.7682 H         1 UNK         0.3040 
     91 H91        25.7434  -29.0040  -41.7028 H         1 UNK         0.1015 
     92 H92        25.1166  -30.4471  -43.5989 H         1 UNK         0.0786 
     93 H93        23.4318  -30.4612  -43.0868 H         1 UNK         0.0786 
     94 H94        24.6612  -31.2563  -42.1108 H         1 UNK         0.0786 
     95 H95        22.3180  -28.3283  -41.5866 H         1 UNK         0.3172 
     96 H96        20.7932  -27.9818  -40.0614 H         1 UNK         0.0595 
     97 H97        22.3939  -26.3258  -39.1898 H         1 UNK         0.0839 
     98 H98        23.1395  -27.5304  -38.1443 H         1 UNK         0.0839 
     99 H99        21.4798  -27.0259  -37.8635 H         1 UNK         0.0839 
    100 H100       23.1944  -29.9864  -38.3846 H         1 UNK         0.2998 
    101 H101       21.0642  -31.8935  -37.4958 H         1 UNK         0.0822 
    102 H102       22.2693  -32.1237  -35.3222 H         1 UNK         0.0787 
    103 H103       23.3984  -30.8577  -35.7896 H         1 UNK         0.0787 
    104 H104       21.6947  -30.4781  -35.5400 H         1 UNK         0.0787 
    105 H105       24.3329  -31.3316  -38.7501 H         1 UNK         0.3055 
    106 H106       25.3209  -34.0025  -38.3965 H         1 UNK         0.1106 
    107 H107       26.8265  -32.0662  -38.7351 H         1 UNK         0.0828 
    108 H108       27.0745  -33.2394  -40.0166 H         1 UNK         0.0828 
    109 H109       26.1561  -31.7755  -40.3373 H         1 UNK         0.0828 
    110 H110       23.0879  -32.6418  -40.6230 H         1 UNK         0.2931 
    111 H111       23.2156  -34.7106  -42.6495 H         1 UNK         0.0412 
    112 H112       20.8452  -36.1208  -39.7259 H         1 UNK         0.3472 
    113 H113       21.9900  -34.8396  -39.4167 H         1 UNK         0.3472 
    114 H114       21.1043  -33.5765  -43.4943 H         1 UNK         0.0970 
    115 H115       22.5213  -32.5889  -43.4476 H         1 UNK         0.0970 
    116 H116       19.0930  -33.2823  -42.3551 H         1 UNK         0.0612 
    117 H117       18.7040  -32.1637  -41.0767 H         1 UNK         0.0612 
@<TRIPOS>BOND
     1    1    2 1    
     2    1   62 1    
     3    1   63 1    
     4    1   64 1    
     5    2    3 2    
     6    2    4 am   BACKBONE|DICT|INTERRES
     7    4    5 1    
     8    4   65 1    
     9    5    6 1    
    10    5   25 1    
    11    5   66 1    
    12    6    7 1    
    13    6   67 1    
    14    6   68 1    
    15    7    8 1    
    16    8    9 1    
    17    8   69 1    
    18    8   70 1    
    19    9   10 ar   
    20    9   14 ar   
    21   10   11 ar   
    22   10   71 1    
    23   11   12 ar   
    24   11   61 1    
    25   12   13 ar   
    26   12   72 1    
    27   13   14 ar   
    28   13   15 1    
    29   14   73 1    
    30   15   16 1    
    31   15   74 1    
    32   15   75 1    
    33   16   17 1    
    34   17   18 1    
    35   17   76 1    
    36   17   77 1    
    37   18   19 1    
    38   18   27 1    
    39   18   78 1    
    40   19   20 am   BACKBONE|DICT|INTERRES
    41   19   79 1    
    42   20   21 2    
    43   20   22 1    
    44   22   23 1    
    45   22   24 1    
    46   22   80 1    
    47   23   81 1    
    48   23   82 1    
    49   23   83 1    
    50   24   25 am   BACKBONE|DICT|INTERRES
    51   24   84 1    
    52   25   26 2    
    53   27   28 2    
    54   27   29 am   BACKBONE|DICT|INTERRES
    55   29   30 1    
    56   29   85 1    
    57   30   31 1    
    58   30   32 1    
    59   30   86 1    
    60   31   87 1    
    61   31   88 1    
    62   31   89 1    
    63   32   33 2    
    64   32   34 am   BACKBONE|DICT|INTERRES
    65   34   35 1    
    66   34   90 1    
    67   35   36 1    
    68   35   37 1    
    69   35   91 1    
    70   36   92 1    
    71   36   93 1    
    72   36   94 1    
    73   37   38 2    
    74   37   39 am   BACKBONE|DICT|INTERRES
    75   39   40 1    
    76   39   95 1    
    77   40   41 1    
    78   40   42 1    
    79   40   96 1    
    80   41   97 1    
    81   41   98 1    
    82   41   99 1    
    83   42   43 2    
    84   42   44 am   BACKBONE|DICT|INTERRES
    85   44   45 1    
    86   44  100 1    
    87   45   46 1    
    88   45   47 1    
    89   45  101 1    
    90   46  102 1    
    91   46  103 1    
    92   46  104 1    
    93   47   48 2    
    94   47   49 am   BACKBONE|DICT|INTERRES
    95   49   50 1    
    96   49  105 1    
    97   50   51 1    
    98   50   52 1    
    99   50  106 1    
   100   51  107 1    
   101   51  108 1    
   102   51  109 1    
   103   52   53 2    
   104   52   54 am   BACKBONE|DICT|INTERRES
   105   54   55 1    
   106   54  110 1    
   107   55   56 1    
   108   55   59 1    
   109   55  111 1    
   110   56   57 am   BACKBONE|DICT|INTERRES
   111   56   58 2    
   112   57  112 1    
   113   57  113 1    
   114   59   60 1    
   115   59  114 1    
   116   59  115 1    
   117   60   61 1    
   118   61  116 1    
   119   61  117 1    
@<TRIPOS>SUBSTRUCTURE
     1 UNK         1 GROUP             0       ****    0 ROOT    
