@<TRIPOS>MOLECULE
3R8
117   119    1
SMALL
USER_CHARGES


@<TRIPOS>ATOM
      1 CA         18.1632  -24.8933  -40.8996 C.3       0 UNK        -0.2013 
      2 C          18.1980  -25.1992  -42.3892 C.2       0 UNK         0.4866 
      3 O          19.2602  -25.5336  -42.9211 O.2       0 UNK        -0.5176 
      4 N          17.0455  -25.0890  -43.0675 N.am      1 UNK        -0.4884 
      5 CA         16.8747  -25.2429  -44.5211 C.3       1 UNK         0.0853 
      6 C6         17.0961  -26.7046  -45.0130 C.3       10 UNK        -0.0849 
      7 S7         15.9409  -27.8900  -44.2465 S.3       10 UNK        -0.2776 
      8 C8         16.0990  -29.3251  -45.3599 C.3       10 UNK         0.0316 
      9 C9         17.4573  -30.0055  -45.2405 C.ar      10 UNK        -0.0863 
     10 C10        17.6498  -31.0475  -44.3279 C.ar      10 UNK        -0.1009 
     11 C11        18.8870  -31.6931  -44.2390 C.ar      10 UNK        -0.0712 
     12 C12        19.9426  -31.2742  -45.0549 C.ar      10 UNK        -0.0894 
     13 C13        19.7667  -30.2357  -45.9748 C.ar      10 UNK        -0.0745 
     14 C14        18.5139  -29.6171  -46.0695 C.ar      10 UNK        -0.0972 
     15 C15        20.9157  -29.8552  -46.9071 C.3       10 UNK         0.0209 
     16 S16        21.0054  -28.0706  -47.2857 S.3       10 UNK        -0.2568 
     17 C17        22.5109  -27.5274  -46.3991 C.3       10 UNK        -0.0983 
     18 CA         22.2469  -26.7825  -45.0543 C.3       3 UNK         0.0876 
     19 N          21.2240  -25.7308  -45.1550 N.am      3 UNK        -0.4424 
     20 C          21.2978  -24.6861  -45.9972 C.2       2 UNK         0.4918 
     21 O          22.3180  -24.3865  -46.6193 O.2       2 UNK        -0.4875 
     22 CA         20.0147  -23.8618  -46.2255 C.3       2 UNK         0.0481 
     23 CB         19.8862  -23.3588  -47.6759 C.3       2 UNK        -0.1831 
     24 N          18.8402  -24.6580  -45.8764 N.am      2 UNK        -0.4498 
     25 C          17.7651  -24.1964  -45.2296 C.2       1 UNK         0.5027 
     26 O          17.5050  -22.9982  -45.0993 O.2       1 UNK        -0.4969 
     27 C          22.0102  -27.7990  -43.9170 C.2       3 UNK         0.5005 
     28 O          22.9208  -28.5858  -43.6510 O.2       3 UNK        -0.5279 
     29 N          20.8519  -27.7950  -43.2366 N.am      4 UNK        -0.4463 
     30 CA         20.5246  -28.7846  -42.2002 C.3       4 UNK         0.0283 
     31 CB         19.0424  -28.6827  -41.8137 C.3       4 UNK        -0.1875 
     32 C          21.4138  -28.6664  -40.9534 C.2       4 UNK         0.4949 
     33 O          21.7361  -29.6809  -40.3373 O.2       4 UNK        -0.5039 
     34 N          21.8379  -27.4352  -40.6362 N.am      5 UNK        -0.4663 
     35 CA         22.7946  -27.1380  -39.5680 C.3       5 UNK         0.0242 
     36 CB         22.7877  -25.6260  -39.2921 C.3       5 UNK        -0.1982 
     37 C          24.2217  -27.6248  -39.8817 C.2       5 UNK         0.5017 
     38 O          24.9599  -27.9496  -38.9518 O.2       5 UNK        -0.5012 
     39 N          24.5801  -27.6746  -41.1734 N.am      6 UNK        -0.4439 
     40 CA         25.8580  -28.1990  -41.6594 C.3       6 UNK         0.0297 
     41 CB         26.1935  -27.5802  -43.0268 C.3       6 UNK        -0.2006 
     42 C          25.8384  -29.7332  -41.7390 C.2       6 UNK         0.4892 
     43 O          26.8251  -30.3688  -41.3665 O.2       6 UNK        -0.5089 
     44 N          24.7120  -30.2973  -42.2003 N.am      7 UNK        -0.4243 
     45 CA         24.4541  -31.7392  -42.2448 C.3       7 UNK         0.0196 
     46 CB         23.1856  -31.9969  -43.0743 C.3       7 UNK        -0.2007 
     47 C          24.3179  -32.3743  -40.8489 C.2       7 UNK         0.5020 
     48 O          24.6461  -33.5502  -40.6910 O.2       7 UNK        -0.5147 
     49 N          23.8301  -31.5882  -39.8770 N.am      8 UNK        -0.4734 
     50 CA         23.5411  -31.9483  -38.4828 C.3       8 UNK         0.0238 
     51 CB         24.8291  -32.3416  -37.7283 C.3       8 UNK        -0.1912 
     52 C          22.4169  -32.9955  -38.3556 C.2       8 UNK         0.5038 
     53 O          22.4263  -33.8014  -37.4227 O.2       8 UNK        -0.5046 
     54 N          21.4725  -32.9640  -39.3026 N.am      9 UNK        -0.4200 
     55 CA         20.2773  -33.8133  -39.3437 C.3       9 UNK         0.0839 
     56 C          19.1943  -33.3907  -38.3115 C.2       9 UNK         0.5513 
     57 N          18.2670  -34.2841  -37.9931 N.am      9 UNK        -0.7519 
     58 O          19.1716  -32.2685  -37.8087 O.2       9 UNK        -0.4960 
     59 C59        19.7192  -33.9290  -40.7877 C.3       10 UNK        -0.0876 
     60 S60        19.4043  -32.3233  -41.5956 S.3       10 UNK        -0.2414 
     61 C61        19.0725  -32.8707  -43.2937 C.3       10 UNK         0.0169 
     62 H62        18.5180  -23.8788  -40.7206 H         1 UNK         0.0903 
     63 H63        17.1559  -24.9826  -40.4935 H         1 UNK         0.0903 
     64 H64        18.8100  -25.5775  -40.3517 H         1 UNK         0.0903 
     65 H65        16.2133  -24.8010  -42.5716 H         1 UNK         0.3096 
     66 H66        15.8444  -24.9656  -44.7510 H         1 UNK         0.1121 
     67 H67        16.9657  -26.7587  -46.0955 H         1 UNK         0.0849 
     68 H68        18.1085  -27.0492  -44.7982 H         1 UNK         0.0849 
     69 H69        15.3091  -30.0392  -45.1221 H         1 UNK         0.0865 
     70 H70        15.9183  -29.0132  -46.3898 H         1 UNK         0.0865 
     71 H71        16.8338  -31.3653  -43.6932 H         1 UNK         0.1346 
     72 H72        20.8973  -31.7770  -44.9903 H         1 UNK         0.1412 
     73 H73        18.3547  -28.8342  -46.7973 H         1 UNK         0.1426 
     74 H74        20.7813  -30.3950  -47.8452 H         1 UNK         0.0716 
     75 H75        21.8666  -30.1957  -46.4955 H         1 UNK         0.0716 
     76 H76        23.1943  -28.3681  -46.2660 H         1 UNK         0.0695 
     77 H77        23.0443  -26.8605  -47.0770 H         1 UNK         0.0695 
     78 H78        23.1744  -26.2761  -44.7789 H         1 UNK         0.0983 
     79 H79        20.4165  -25.8049  -44.5480 H         1 UNK         0.3095 
     80 H80        20.0841  -22.9984  -45.5607 H         1 UNK         0.0454 
     81 H81        20.7252  -22.7167  -47.9465 H         1 UNK         0.0851 
     82 H82        19.8640  -24.1864  -48.3858 H         1 UNK         0.0851 
     83 H83        18.9770  -22.7736  -47.8136 H         1 UNK         0.0851 
     84 H84        18.9553  -25.6564  -45.9756 H         1 UNK         0.2976 
     85 H85        20.1676  -27.0571  -43.3694 H         1 UNK         0.3116 
     86 H86        20.6887  -29.7729  -42.6317 H         1 UNK         0.0646 
     87 H87        18.7574  -29.4994  -41.1507 H         1 UNK         0.0847 
     88 H88        18.3978  -28.7377  -42.6896 H         1 UNK         0.0847 
     89 H89        18.8211  -27.7591  -41.2846 H         1 UNK         0.0847 
     90 H90        21.5103  -26.6590  -41.1938 H         1 UNK         0.3040 
     91 H91        22.4651  -27.6547  -38.6635 H         1 UNK         0.1015 
     92 H92        21.7967  -25.2811  -38.9960 H         1 UNK         0.0786 
     93 H93        23.0960  -25.0527  -40.1674 H         1 UNK         0.0786 
     94 H94        23.4721  -25.3749  -38.4804 H         1 UNK         0.0786 
     95 H95        23.8865  -27.4481  -41.8721 H         1 UNK         0.3172 
     96 H96        26.6456  -27.9083  -40.9606 H         1 UNK         0.0595 
     97 H97        27.1672  -27.9247  -43.3779 H         1 UNK         0.0839 
     98 H98        26.2374  -26.4925  -42.9703 H         1 UNK         0.0839 
     99 H99        25.4629  -27.8479  -43.7903 H         1 UNK         0.0839 
    100 H100       23.9807  -29.6919  -42.5670 H         1 UNK         0.2998 
    101 H101       25.2982  -32.2172  -42.7462 H         1 UNK         0.0822 
    102 H102       22.3084  -31.5366  -42.6191 H         1 UNK         0.0787 
    103 H103       23.2852  -31.5988  -44.0843 H         1 UNK         0.0787 
    104 H104       22.9841  -33.0654  -43.1619 H         1 UNK         0.0787 
    105 H105       23.4947  -30.6704  -40.1524 H         1 UNK         0.3055 
    106 H106       23.1519  -31.0420  -38.0155 H         1 UNK         0.1106 
    107 H107       25.2389  -33.2856  -38.0883 H         1 UNK         0.0828 
    108 H108       25.5992  -31.5776  -37.8356 H         1 UNK         0.0828 
    109 H109       24.6364  -32.4585  -36.6612 H         1 UNK         0.0828 
    110 H110       21.5090  -32.2254  -39.9919 H         1 UNK         0.2931 
    111 H111       20.5973  -34.8157  -39.0512 H         1 UNK         0.0412 
    112 H112       17.5503  -34.0305  -37.3306 H         1 UNK         0.3472 
    113 H113       18.2727  -35.2098  -38.3930 H         1 UNK         0.3472 
    114 H114       18.8031  -34.5222  -40.8075 H         1 UNK         0.0970 
    115 H115       20.4373  -34.4785  -41.3986 H         1 UNK         0.0970 
    116 H116       19.8946  -33.5014  -43.6360 H         1 UNK         0.0612 
    117 H117       18.1784  -33.4960  -43.3019 H         1 UNK         0.0612 
@<TRIPOS>BOND
     1    1    2 1    
     2    1   62 1    
     3    1   63 1    
     4    1   64 1    
     5    2    3 2    
     6    2    4 am   BACKBONE|DICT|INTERRES
     7    4    5 1    
     8    4   65 1    
     9    5    6 1    
    10    5   25 1    
    11    5   66 1    
    12    6    7 1    
    13    6   67 1    
    14    6   68 1    
    15    7    8 1    
    16    8    9 1    
    17    8   69 1    
    18    8   70 1    
    19    9   10 ar   
    20    9   14 ar   
    21   10   11 ar   
    22   10   71 1    
    23   11   12 ar   
    24   11   61 1    
    25   12   13 ar   
    26   12   72 1    
    27   13   14 ar   
    28   13   15 1    
    29   14   73 1    
    30   15   16 1    
    31   15   74 1    
    32   15   75 1    
    33   16   17 1    
    34   17   18 1    
    35   17   76 1    
    36   17   77 1    
    37   18   19 1    
    38   18   27 1    
    39   18   78 1    
    40   19   20 am   BACKBONE|DICT|INTERRES
    41   19   79 1    
    42   20   21 2    
    43   20   22 1    
    44   22   23 1    
    45   22   24 1    
    46   22   80 1    
    47   23   81 1    
    48   23   82 1    
    49   23   83 1    
    50   24   25 am   BACKBONE|DICT|INTERRES
    51   24   84 1    
    52   25   26 2    
    53   27   28 2    
    54   27   29 am   BACKBONE|DICT|INTERRES
    55   29   30 1    
    56   29   85 1    
    57   30   31 1    
    58   30   32 1    
    59   30   86 1    
    60   31   87 1    
    61   31   88 1    
    62   31   89 1    
    63   32   33 2    
    64   32   34 am   BACKBONE|DICT|INTERRES
    65   34   35 1    
    66   34   90 1    
    67   35   36 1    
    68   35   37 1    
    69   35   91 1    
    70   36   92 1    
    71   36   93 1    
    72   36   94 1    
    73   37   38 2    
    74   37   39 am   BACKBONE|DICT|INTERRES
    75   39   40 1    
    76   39   95 1    
    77   40   41 1    
    78   40   42 1    
    79   40   96 1    
    80   41   97 1    
    81   41   98 1    
    82   41   99 1    
    83   42   43 2    
    84   42   44 am   BACKBONE|DICT|INTERRES
    85   44   45 1    
    86   44  100 1    
    87   45   46 1    
    88   45   47 1    
    89   45  101 1    
    90   46  102 1    
    91   46  103 1    
    92   46  104 1    
    93   47   48 2    
    94   47   49 am   BACKBONE|DICT|INTERRES
    95   49   50 1    
    96   49  105 1    
    97   50   51 1    
    98   50   52 1    
    99   50  106 1    
   100   51  107 1    
   101   51  108 1    
   102   51  109 1    
   103   52   53 2    
   104   52   54 am   BACKBONE|DICT|INTERRES
   105   54   55 1    
   106   54  110 1    
   107   55   56 1    
   108   55   59 1    
   109   55  111 1    
   110   56   57 am   BACKBONE|DICT|INTERRES
   111   56   58 2    
   112   57  112 1    
   113   57  113 1    
   114   59   60 1    
   115   59  114 1    
   116   59  115 1    
   117   60   61 1    
   118   61  116 1    
   119   61  117 1    
@<TRIPOS>SUBSTRUCTURE
     1 UNK         1 GROUP             0       ****    0 ROOT    
