@<TRIPOS>MOLECULE
3R8
117   119    1
SMALL
USER_CHARGES


@<TRIPOS>ATOM
      1 CA         15.0499  -22.5777  -43.0764 C.3       0 UNK        -0.2013 
      2 C          15.8520  -23.3463  -44.1159 C.2       0 UNK         0.4866 
      3 O          16.1189  -22.8173  -45.1951 O.2       0 UNK        -0.5176 
      4 N          16.2327  -24.5918  -43.8004 N.am      1 UNK        -0.4884 
      5 CA         17.0174  -25.4782  -44.6699 C.3       1 UNK         0.0853 
      6 C6         17.0449  -26.9322  -44.1245 C.3       10 UNK        -0.0849 
      7 S7         15.6675  -27.9277  -44.7849 S.3       10 UNK        -0.2776 
      8 C8         16.0189  -29.5884  -44.0943 C.3       10 UNK         0.0316 
      9 C9         17.3141  -30.2700  -44.5537 C.ar      10 UNK        -0.0863 
     10 C10        17.7194  -31.4360  -43.8943 C.ar      10 UNK        -0.1009 
     11 C11        18.8953  -32.0972  -44.2613 C.ar      10 UNK        -0.0712 
     12 C12        19.6996  -31.5604  -45.2713 C.ar      10 UNK        -0.0894 
     13 C13        19.3111  -30.4008  -45.9487 C.ar      10 UNK        -0.0745 
     14 C14        18.1017  -29.7860  -45.6070 C.ar      10 UNK        -0.0972 
     15 C15        20.1659  -29.8580  -47.0914 C.3       10 UNK         0.0209 
     16 S16        20.3339  -28.0374  -47.0708 S.3       10 UNK        -0.2568 
     17 C17        22.0674  -27.7611  -46.5617 C.3       10 UNK        -0.0983 
     18 CA         22.2453  -27.1524  -45.1477 C.3       3 UNK         0.0876 
     19 N          21.4236  -25.9529  -44.9268 N.am      3 UNK        -0.4424 
     20 C          21.5248  -25.1221  -43.8791 C.2       2 UNK         0.4918 
     21 O          22.3581  -25.2642  -42.9842 O.2       2 UNK        -0.4875 
     22 CA         20.4909  -23.9849  -43.7644 C.3       2 UNK         0.0481 
     23 CB         20.7941  -22.8442  -44.7550 C.3       2 UNK        -0.1831 
     24 N          19.0932  -24.4400  -43.8502 N.am      2 UNK        -0.4498 
     25 C          18.4519  -24.9634  -44.9069 C.2       1 UNK         0.5027 
     26 O          18.9565  -25.0835  -46.0232 O.2       1 UNK        -0.4969 
     27 C          22.0852  -28.2131  -44.0401 C.2       3 UNK         0.5005 
     28 O          23.0298  -28.9603  -43.7866 O.2       3 UNK        -0.5279 
     29 N          20.9359  -28.2052  -43.3488 N.am      4 UNK        -0.4463 
     30 CA         20.6487  -29.0065  -42.1582 C.3       4 UNK         0.0283 
     31 CB         19.2257  -28.6979  -41.6678 C.3       4 UNK        -0.1875 
     32 C          21.6447  -28.7905  -41.0069 C.2       4 UNK         0.4949 
     33 O          21.9214  -29.7396  -40.2768 O.2       4 UNK        -0.5039 
     34 N          22.1735  -27.5663  -40.8627 N.am      5 UNK        -0.4663 
     35 CA         23.1764  -27.2332  -39.8482 C.3       5 UNK         0.0242 
     36 CB         23.2259  -25.7099  -39.6504 C.3       5 UNK        -0.1982 
     37 C          24.5678  -27.7807  -40.2038 C.2       5 UNK         0.5017 
     38 O          25.2963  -28.2026  -39.3062 O.2       5 UNK        -0.5012 
     39 N          24.9019  -27.7781  -41.5019 N.am      6 UNK        -0.4439 
     40 CA         26.1568  -28.3078  -42.0390 C.3       6 UNK         0.0297 
     41 CB         26.3953  -27.7421  -43.4488 C.3       6 UNK        -0.2006 
     42 C          26.1716  -29.8444  -42.0557 C.2       6 UNK         0.4892 
     43 O          27.1761  -30.4464  -41.6758 O.2       6 UNK        -0.5089 
     44 N          25.0527  -30.4458  -42.4809 N.am      7 UNK        -0.4243 
     45 CA         24.8458  -31.8945  -42.5359 C.3       7 UNK         0.0196 
     46 CB         23.7191  -32.1862  -43.5394 C.3       7 UNK        -0.2007 
     47 C          24.5450  -32.5325  -41.1651 C.2       7 UNK         0.5020 
     48 O          24.6041  -33.7577  -41.0582 O.2       7 UNK        -0.5147 
     49 N          24.2367  -31.7056  -40.1538 N.am      8 UNK        -0.4734 
     50 CA         23.8660  -32.0646  -38.7777 C.3       8 UNK         0.0238 
     51 CB         25.0404  -32.7473  -38.0441 C.3       8 UNK        -0.1912 
     52 C          22.5535  -32.8710  -38.7149 C.2       8 UNK         0.5038 
     53 O          22.4792  -33.8913  -38.0266 O.2       8 UNK        -0.5046 
     54 N          21.5444  -32.3870  -39.4466 N.am      9 UNK        -0.4200 
     55 CA         20.1970  -32.9699  -39.5406 C.3       9 UNK         0.0839 
     56 C          19.2614  -32.5910  -38.3573 C.2       9 UNK         0.5513 
     57 N          19.6286  -31.6575  -37.4871 N.am      9 UNK        -0.7519 
     58 O          18.1825  -33.1624  -38.2229 O.2       9 UNK        -0.4960 
     59 C59        19.5281  -32.6450  -40.9025 C.3       10 UNK        -0.0876 
     60 S60        20.5234  -33.2327  -42.3122 S.3       10 UNK        -0.2414 
     61 C61        19.2697  -33.4229  -43.6125 C.3       10 UNK         0.0169 
     62 H62        14.8812  -23.1646  -42.1738 H         1 UNK         0.0903 
     63 H63        15.5771  -21.6666  -42.7946 H         1 UNK         0.0903 
     64 H64        14.0792  -22.2971  -43.4843 H         1 UNK         0.0903 
     65 H65        15.9555  -24.9794  -42.9095 H         1 UNK         0.3096 
     66 H66        16.5418  -25.4768  -45.6541 H         1 UNK         0.1121 
     67 H67        17.9742  -27.4369  -44.3884 H         1 UNK         0.0849 
     68 H68        17.0078  -26.9473  -43.0340 H         1 UNK         0.0849 
     69 H69        16.0215  -29.5102  -43.0060 H         1 UNK         0.0865 
     70 H70        15.1832  -30.2414  -44.3496 H         1 UNK         0.0865 
     71 H71        17.1059  -31.8430  -43.1019 H         1 UNK         0.1346 
     72 H72        20.6143  -32.0666  -45.5481 H         1 UNK         0.1412 
     73 H73        17.7887  -28.9163  -46.1657 H         1 UNK         0.1426 
     74 H74        19.6932  -30.1448  -48.0315 H         1 UNK         0.0716 
     75 H75        21.1506  -30.3266  -47.0941 H         1 UNK         0.0716 
     76 H76        22.6473  -28.6800  -46.6651 H         1 UNK         0.0695 
     77 H77        22.4984  -27.0740  -47.2914 H         1 UNK         0.0695 
     78 H78        23.2842  -26.8223  -45.0779 H         1 UNK         0.0983 
     79 H79        20.6821  -25.7799  -45.6016 H         1 UNK         0.3095 
     80 H80        20.5962  -23.5705  -42.7605 H         1 UNK         0.0454 
     81 H81        21.7959  -22.4453  -44.5905 H         1 UNK         0.0851 
     82 H82        20.7464  -23.1721  -45.7936 H         1 UNK         0.0851 
     83 H83        20.0933  -22.0184  -44.6333 H         1 UNK         0.0851 
     84 H84        18.5746  -24.3872  -42.9842 H         1 UNK         0.2976 
     85 H85        20.2209  -27.5619  -43.6488 H         1 UNK         0.3116 
     86 H86        20.7012  -30.0571  -42.4505 H         1 UNK         0.0646 
     87 H87        18.9962  -29.2412  -40.7503 H         1 UNK         0.0847 
     88 H88        18.4821  -28.9899  -42.4053 H         1 UNK         0.0847 
     89 H89        19.0919  -27.6370  -41.4534 H         1 UNK         0.0847 
     90 H90        21.9257  -26.8360  -41.5194 H         1 UNK         0.3040 
     91 H91        22.8748  -27.6877  -38.9013 H         1 UNK         0.1015 
     92 H92        22.2514  -25.3149  -39.3628 H         1 UNK         0.0786 
     93 H93        23.5441  -25.1921  -40.5559 H         1 UNK         0.0786 
     94 H94        23.9292  -25.4435  -38.8601 H         1 UNK         0.0786 
     95 H95        24.2197  -27.4458  -42.1688 H         1 UNK         0.3172 
     96 H96        26.9745  -27.9706  -41.3982 H         1 UNK         0.0595 
     97 H97        27.3427  -28.0995  -43.8548 H         1 UNK         0.0839 
     98 H98        26.4396  -26.6530  -43.4374 H         1 UNK         0.0839 
     99 H99        25.6113  -28.0390  -44.1463 H         1 UNK         0.0839 
    100 H100       24.2900  -29.8686  -42.8336 H         1 UNK         0.2998 
    101 H101       25.7601  -32.3601  -42.9100 H         1 UNK         0.0822 
    102 H102       23.9881  -31.8567  -44.5430 H         1 UNK         0.0787 
    103 H103       23.5015  -33.2538  -43.5940 H         1 UNK         0.0787 
    104 H104       22.7971  -31.6753  -43.2610 H         1 UNK         0.0787 
    105 H105       24.1712  -30.7207  -40.3730 H         1 UNK         0.3055 
    106 H106       23.6642  -31.1232  -38.2635 H         1 UNK         0.1106 
    107 H107       25.2709  -33.7261  -38.4653 H         1 UNK         0.0828 
    108 H108       25.9440  -32.1396  -38.0920 H         1 UNK         0.0828 
    109 H109       24.8062  -32.8966  -36.9894 H         1 UNK         0.0828 
    110 H110       21.6877  -31.5053  -39.9340 H         1 UNK         0.2931 
    111 H111       20.3068  -34.0551  -39.4911 H         1 UNK         0.0412 
    112 H112       20.5075  -31.1773  -37.5952 H         1 UNK         0.3472 
    113 H113       19.0151  -31.4251  -36.7218 H         1 UNK         0.3472 
    114 H114       18.5413  -33.1084  -40.9576 H         1 UNK         0.0970 
    115 H115       19.3686  -31.5726  -41.0101 H         1 UNK         0.0970 
    116 H116       19.6673  -34.0936  -44.3755 H         1 UNK         0.0612 
    117 H117       18.3875  -33.9212  -43.2080 H         1 UNK         0.0612 
@<TRIPOS>BOND
     1    1    2 1    
     2    1   62 1    
     3    1   63 1    
     4    1   64 1    
     5    2    3 2    
     6    2    4 am   BACKBONE|DICT|INTERRES
     7    4    5 1    
     8    4   65 1    
     9    5    6 1    
    10    5   25 1    
    11    5   66 1    
    12    6    7 1    
    13    6   67 1    
    14    6   68 1    
    15    7    8 1    
    16    8    9 1    
    17    8   69 1    
    18    8   70 1    
    19    9   10 ar   
    20    9   14 ar   
    21   10   11 ar   
    22   10   71 1    
    23   11   12 ar   
    24   11   61 1    
    25   12   13 ar   
    26   12   72 1    
    27   13   14 ar   
    28   13   15 1    
    29   14   73 1    
    30   15   16 1    
    31   15   74 1    
    32   15   75 1    
    33   16   17 1    
    34   17   18 1    
    35   17   76 1    
    36   17   77 1    
    37   18   19 1    
    38   18   27 1    
    39   18   78 1    
    40   19   20 am   BACKBONE|DICT|INTERRES
    41   19   79 1    
    42   20   21 2    
    43   20   22 1    
    44   22   23 1    
    45   22   24 1    
    46   22   80 1    
    47   23   81 1    
    48   23   82 1    
    49   23   83 1    
    50   24   25 am   BACKBONE|DICT|INTERRES
    51   24   84 1    
    52   25   26 2    
    53   27   28 2    
    54   27   29 am   BACKBONE|DICT|INTERRES
    55   29   30 1    
    56   29   85 1    
    57   30   31 1    
    58   30   32 1    
    59   30   86 1    
    60   31   87 1    
    61   31   88 1    
    62   31   89 1    
    63   32   33 2    
    64   32   34 am   BACKBONE|DICT|INTERRES
    65   34   35 1    
    66   34   90 1    
    67   35   36 1    
    68   35   37 1    
    69   35   91 1    
    70   36   92 1    
    71   36   93 1    
    72   36   94 1    
    73   37   38 2    
    74   37   39 am   BACKBONE|DICT|INTERRES
    75   39   40 1    
    76   39   95 1    
    77   40   41 1    
    78   40   42 1    
    79   40   96 1    
    80   41   97 1    
    81   41   98 1    
    82   41   99 1    
    83   42   43 2    
    84   42   44 am   BACKBONE|DICT|INTERRES
    85   44   45 1    
    86   44  100 1    
    87   45   46 1    
    88   45   47 1    
    89   45  101 1    
    90   46  102 1    
    91   46  103 1    
    92   46  104 1    
    93   47   48 2    
    94   47   49 am   BACKBONE|DICT|INTERRES
    95   49   50 1    
    96   49  105 1    
    97   50   51 1    
    98   50   52 1    
    99   50  106 1    
   100   51  107 1    
   101   51  108 1    
   102   51  109 1    
   103   52   53 2    
   104   52   54 am   BACKBONE|DICT|INTERRES
   105   54   55 1    
   106   54  110 1    
   107   55   56 1    
   108   55   59 1    
   109   55  111 1    
   110   56   57 am   BACKBONE|DICT|INTERRES
   111   56   58 2    
   112   57  112 1    
   113   57  113 1    
   114   59   60 1    
   115   59  114 1    
   116   59  115 1    
   117   60   61 1    
   118   61  116 1    
   119   61  117 1    
@<TRIPOS>SUBSTRUCTURE
     1 UNK         1 GROUP             0       ****    0 ROOT    
