@<TRIPOS>MOLECULE
3R8
117   119    1
SMALL
USER_CHARGES


@<TRIPOS>ATOM
      1 CA         17.8315  -27.3946  -39.7185 C.3       0 UNK        -0.2013 
      2 C          17.8572  -26.3946  -40.8642 C.2       0 UNK         0.4866 
      3 O          18.2308  -25.2399  -40.6604 O.2       0 UNK        -0.5176 
      4 N          17.4645  -26.8282  -42.0697 N.am      1 UNK        -0.4884 
      5 CA         17.3699  -25.9920  -43.2777 C.3       1 UNK         0.0853 
      6 C6         16.3105  -26.5065  -44.2917 C.3       10 UNK        -0.0849 
      7 S7         14.7290  -26.9878  -43.4943 S.3       10 UNK        -0.2776 
      8 C8         14.4829  -28.7430  -43.9555 C.3       10 UNK         0.0316 
      9 C9         15.7748  -29.5490  -44.0040 C.ar      10 UNK        -0.0863 
     10 C10        16.5089  -29.7979  -42.8402 C.ar      10 UNK        -0.1009 
     11 C11        17.7456  -30.4489  -42.9092 C.ar      10 UNK        -0.0712 
     12 C12        18.2123  -30.9074  -44.1456 C.ar      10 UNK        -0.0894 
     13 C13        17.4807  -30.6758  -45.3109 C.ar      10 UNK        -0.0745 
     14 C14        16.2609  -30.0012  -45.2340 C.ar      10 UNK        -0.0972 
     15 C15        18.0165  -31.1196  -46.6610 C.3       10 UNK         0.0209 
     16 S16        18.9206  -29.7669  -47.4756 S.3       10 UNK        -0.2568 
     17 C17        20.6417  -30.0853  -46.9652 C.3       10 UNK        -0.0983 
     18 CA         21.4422  -28.7670  -46.8055 C.3       3 UNK         0.0876 
     19 N          21.1499  -28.0918  -45.5322 N.am      3 UNK        -0.4424 
     20 C          21.4962  -26.8289  -45.2442 C.2       2 UNK         0.4918 
     21 O          22.0419  -26.0701  -46.0471 O.2       2 UNK        -0.4875 
     22 CA         21.1963  -26.3589  -43.8104 C.3       2 UNK         0.0481 
     23 CB         21.7358  -24.9439  -43.5084 C.3       2 UNK        -0.1831 
     24 N          19.7814  -26.4655  -43.4511 N.am      2 UNK        -0.4498 
     25 C          18.7422  -25.7838  -43.9596 C.2       1 UNK         0.5027 
     26 O          18.8278  -25.0030  -44.9083 O.2       1 UNK        -0.4969 
     27 C          22.9526  -29.0024  -47.0514 C.2       3 UNK         0.5005 
     28 O          23.3469  -29.1259  -48.2129 O.2       3 UNK        -0.5279 
     29 N          23.7735  -29.0422  -45.9922 N.am      4 UNK        -0.4463 
     30 CA         25.2335  -29.1067  -46.0804 C.3       4 UNK         0.0283 
     31 CB         25.7294  -30.5431  -46.3363 C.3       4 UNK        -0.1875 
     32 C          25.8577  -28.4813  -44.8297 C.2       4 UNK         0.4949 
     33 O          26.5510  -27.4706  -44.9483 O.2       4 UNK        -0.5039 
     34 N          25.5790  -29.0689  -43.6578 N.am      5 UNK        -0.4663 
     35 CA         25.9569  -28.5215  -42.3497 C.3       5 UNK         0.0242 
     36 CB         26.4449  -29.6623  -41.4319 C.3       5 UNK        -0.1982 
     37 C          24.7849  -27.7001  -41.7778 C.2       5 UNK         0.5017 
     38 O          24.2240  -26.8768  -42.4995 O.2       5 UNK        -0.5012 
     39 N          24.4199  -27.9334  -40.5130 N.am      6 UNK        -0.4439 
     40 CA         23.2704  -27.3456  -39.8274 C.3       6 UNK         0.0297 
     41 CB         23.6767  -26.0062  -39.1861 C.3       6 UNK        -0.2006 
     42 C          22.7659  -28.3484  -38.7801 C.2       6 UNK         0.4892 
     43 O          23.4303  -29.3639  -38.5496 O.2       6 UNK        -0.5089 
     44 N          21.6036  -28.0553  -38.1785 N.am      7 UNK        -0.4243 
     45 CA         20.8858  -28.8587  -37.1769 C.3       7 UNK         0.0196 
     46 CB         21.6851  -28.9619  -35.8586 C.3       7 UNK        -0.2007 
     47 C          20.4525  -30.2275  -37.7332 C.2       7 UNK         0.5020 
     48 O          19.3455  -30.3396  -38.2575 O.2       7 UNK        -0.5147 
     49 N          21.3356  -31.2307  -37.6368 N.am      8 UNK        -0.4734 
     50 CA         21.1939  -32.5307  -38.3035 C.3       8 UNK         0.0238 
     51 CB         22.1325  -33.5465  -37.6327 C.3       8 UNK        -0.1912 
     52 C          21.4764  -32.4513  -39.8168 C.2       8 UNK         0.5038 
     53 O          21.0223  -33.3196  -40.5614 O.2       8 UNK        -0.5046 
     54 N          22.2124  -31.4117  -40.2312 N.am      9 UNK        -0.4200 
     55 CA         22.5295  -31.0157  -41.6120 C.3       9 UNK         0.0839 
     56 C          23.5800  -31.8925  -42.3442 C.2       9 UNK         0.5513 
     57 N          24.1013  -32.9582  -41.7521 N.am      9 UNK        -0.7519 
     58 O          23.9765  -31.5491  -43.4537 O.2       9 UNK        -0.4960 
     59 C59        21.2838  -30.7552  -42.4994 C.3       10 UNK        -0.0876 
     60 S60        20.0987  -29.5896  -41.7410 S.3       10 UNK        -0.2414 
     61 C61        18.5944  -30.6190  -41.6575 C.3       10 UNK         0.0169 
     62 H62        17.5003  -26.9104  -38.8002 H         1 UNK         0.0903 
     63 H63        17.1531  -28.2224  -39.9203 H         1 UNK         0.0903 
     64 H64        18.8275  -27.8014  -39.5488 H         1 UNK         0.0903 
     65 H65        17.1702  -27.7869  -42.1938 H         1 UNK         0.3096 
     66 H66        17.0434  -24.9990  -42.9597 H         1 UNK         0.1121 
     67 H67        16.0858  -25.7199  -45.0143 H         1 UNK         0.0849 
     68 H68        16.7129  -27.3253  -44.8865 H         1 UNK         0.0849 
     69 H69        13.7980  -29.2036  -43.2422 H         1 UNK         0.0865 
     70 H70        13.9762  -28.7760  -44.9213 H         1 UNK         0.0865 
     71 H71        16.1289  -29.4519  -41.8887 H         1 UNK         0.1346 
     72 H72        19.1588  -31.4210  -44.2120 H         1 UNK         0.1412 
     73 H73        15.7062  -29.8015  -46.1410 H         1 UNK         0.1426 
     74 H74        17.1867  -31.4217  -47.3019 H         1 UNK         0.0716 
     75 H75        18.6555  -31.9983  -46.5599 H         1 UNK         0.0716 
     76 H76        21.0751  -30.7241  -47.7379 H         1 UNK         0.0695 
     77 H77        20.6683  -30.6682  -46.0434 H         1 UNK         0.0695 
     78 H78        21.1321  -28.0867  -47.6025 H         1 UNK         0.0983 
     79 H79        20.6436  -28.6260  -44.8421 H         1 UNK         0.3095 
     80 H80        21.7154  -27.0531  -43.1494 H         1 UNK         0.0454 
     81 H81        22.8096  -24.8907  -43.6914 H         1 UNK         0.0851 
     82 H82        21.2656  -24.1831  -44.1317 H         1 UNK         0.0851 
     83 H83        21.5740  -24.6738  -42.4650 H         1 UNK         0.0851 
     84 H84        19.5725  -27.0960  -42.6889 H         1 UNK         0.2976 
     85 H85        23.3892  -28.8930  -45.0702 H         1 UNK         0.3116 
     86 H86        25.5531  -28.4915  -46.9249 H         1 UNK         0.0646 
     87 H87        26.8193  -30.5831  -46.3421 H         1 UNK         0.0847 
     88 H88        25.3894  -30.9116  -47.3040 H         1 UNK         0.0847 
     89 H89        25.3821  -31.2422  -45.5773 H         1 UNK         0.0847 
     90 H90        25.0162  -29.9155  -43.6552 H         1 UNK         0.3040 
     91 H91        26.7898  -27.8248  -42.4676 H         1 UNK         0.1015 
     92 H92        27.2347  -30.2392  -41.9136 H         1 UNK         0.0786 
     93 H93        25.6494  -30.3562  -41.1654 H         1 UNK         0.0786 
     94 H94        26.8651  -29.2693  -40.5051 H         1 UNK         0.0786 
     95 H95        24.8812  -28.6628  -39.9825 H         1 UNK         0.3172 
     96 H96        22.4638  -27.1805  -40.5455 H         1 UNK         0.0595 
     97 H97        24.0377  -25.3027  -39.9367 H         1 UNK         0.0839 
     98 H98        24.4667  -26.1388  -38.4458 H         1 UNK         0.0839 
     99 H99        22.8330  -25.5321  -38.6838 H         1 UNK         0.0839 
    100 H100       21.1332  -27.2062  -38.4592 H         1 UNK         0.2998 
    101 H101       19.9655  -28.3164  -36.9526 H         1 UNK         0.0822 
    102 H102       21.8399  -27.9761  -35.4200 H         1 UNK         0.0787 
    103 H103       21.1463  -29.5596  -35.1221 H         1 UNK         0.0787 
    104 H104       22.6667  -29.4165  -35.9931 H         1 UNK         0.0787 
    105 H105       22.2344  -31.0241  -37.2218 H         1 UNK         0.3055 
    106 H106       20.1645  -32.8759  -38.1821 H         1 UNK         0.1106 
    107 H107       23.1787  -33.2500  -37.7181 H         1 UNK         0.0828 
    108 H108       21.9009  -33.6607  -36.5735 H         1 UNK         0.0828 
    109 H109       22.0337  -34.5313  -38.0918 H         1 UNK         0.0828 
    110 H110       22.5719  -30.7831  -39.5197 H         1 UNK         0.2931 
    111 H111       23.0238  -30.0537  -41.4977 H         1 UNK         0.0412 
    112 H112       24.7994  -33.4996  -42.2370 H         1 UNK         0.3472 
    113 H113       23.7801  -33.2447  -40.8417 H         1 UNK         0.3472 
    114 H114       20.7967  -31.7045  -42.7223 H         1 UNK         0.0970 
    115 H115       21.5820  -30.3392  -43.4626 H         1 UNK         0.0970 
    116 H116       18.0298  -30.3293  -40.7710 H         1 UNK         0.0612 
    117 H117       18.8500  -31.6696  -41.5156 H         1 UNK         0.0612 
@<TRIPOS>BOND
     1    1    2 1    
     2    1   62 1    
     3    1   63 1    
     4    1   64 1    
     5    2    3 2    
     6    2    4 am   BACKBONE|DICT|INTERRES
     7    4    5 1    
     8    4   65 1    
     9    5    6 1    
    10    5   25 1    
    11    5   66 1    
    12    6    7 1    
    13    6   67 1    
    14    6   68 1    
    15    7    8 1    
    16    8    9 1    
    17    8   69 1    
    18    8   70 1    
    19    9   10 ar   
    20    9   14 ar   
    21   10   11 ar   
    22   10   71 1    
    23   11   12 ar   
    24   11   61 1    
    25   12   13 ar   
    26   12   72 1    
    27   13   14 ar   
    28   13   15 1    
    29   14   73 1    
    30   15   16 1    
    31   15   74 1    
    32   15   75 1    
    33   16   17 1    
    34   17   18 1    
    35   17   76 1    
    36   17   77 1    
    37   18   19 1    
    38   18   27 1    
    39   18   78 1    
    40   19   20 am   BACKBONE|DICT|INTERRES
    41   19   79 1    
    42   20   21 2    
    43   20   22 1    
    44   22   23 1    
    45   22   24 1    
    46   22   80 1    
    47   23   81 1    
    48   23   82 1    
    49   23   83 1    
    50   24   25 am   BACKBONE|DICT|INTERRES
    51   24   84 1    
    52   25   26 2    
    53   27   28 2    
    54   27   29 am   BACKBONE|DICT|INTERRES
    55   29   30 1    
    56   29   85 1    
    57   30   31 1    
    58   30   32 1    
    59   30   86 1    
    60   31   87 1    
    61   31   88 1    
    62   31   89 1    
    63   32   33 2    
    64   32   34 am   BACKBONE|DICT|INTERRES
    65   34   35 1    
    66   34   90 1    
    67   35   36 1    
    68   35   37 1    
    69   35   91 1    
    70   36   92 1    
    71   36   93 1    
    72   36   94 1    
    73   37   38 2    
    74   37   39 am   BACKBONE|DICT|INTERRES
    75   39   40 1    
    76   39   95 1    
    77   40   41 1    
    78   40   42 1    
    79   40   96 1    
    80   41   97 1    
    81   41   98 1    
    82   41   99 1    
    83   42   43 2    
    84   42   44 am   BACKBONE|DICT|INTERRES
    85   44   45 1    
    86   44  100 1    
    87   45   46 1    
    88   45   47 1    
    89   45  101 1    
    90   46  102 1    
    91   46  103 1    
    92   46  104 1    
    93   47   48 2    
    94   47   49 am   BACKBONE|DICT|INTERRES
    95   49   50 1    
    96   49  105 1    
    97   50   51 1    
    98   50   52 1    
    99   50  106 1    
   100   51  107 1    
   101   51  108 1    
   102   51  109 1    
   103   52   53 2    
   104   52   54 am   BACKBONE|DICT|INTERRES
   105   54   55 1    
   106   54  110 1    
   107   55   56 1    
   108   55   59 1    
   109   55  111 1    
   110   56   57 am   BACKBONE|DICT|INTERRES
   111   56   58 2    
   112   57  112 1    
   113   57  113 1    
   114   59   60 1    
   115   59  114 1    
   116   59  115 1    
   117   60   61 1    
   118   61  116 1    
   119   61  117 1    
@<TRIPOS>SUBSTRUCTURE
     1 UNK         1 GROUP             0       ****    0 ROOT    
