@<TRIPOS>MOLECULE
3R8
117   119    1
SMALL
USER_CHARGES


@<TRIPOS>ATOM
      1 CA         14.9760  -22.6816  -44.9951 C.3       0 UNK        -0.2013 
      2 C          16.4458  -23.0546  -45.1166 C.2       0 UNK         0.4866 
      3 O          17.2946  -22.1709  -45.2346 O.2       0 UNK        -0.5176 
      4 N          16.7540  -24.3580  -45.0885 N.am      1 UNK        -0.4884 
      5 CA         18.1140  -24.9015  -45.2228 C.3       1 UNK         0.0853 
      6 C6         18.1103  -26.4281  -45.5042 C.3       10 UNK        -0.0849 
      7 S7         17.0173  -26.9375  -46.8718 S.3       10 UNK        -0.2776 
      8 C8         17.6441  -28.6199  -47.2275 C.3       10 UNK         0.0316 
      9 C9         17.6125  -29.6049  -46.0542 C.ar      10 UNK        -0.0863 
     10 C10        18.5165  -30.6732  -46.0496 C.ar      10 UNK        -0.1009 
     11 C11        18.5283  -31.6025  -45.0042 C.ar      10 UNK        -0.0712 
     12 C12        17.6251  -31.4560  -43.9484 C.ar      10 UNK        -0.0894 
     13 C13        16.7166  -30.3950  -43.9338 C.ar      10 UNK        -0.0745 
     14 C14        16.6984  -29.4889  -44.9982 C.ar      10 UNK        -0.0972 
     15 C15        15.7518  -30.2292  -42.7682 C.3       10 UNK         0.0209 
     16 S16        16.1650  -28.7858  -41.7345 S.3       10 UNK        -0.2568 
     17 C17        17.8157  -29.2238  -41.0797 C.3       10 UNK        -0.0983 
     18 CA         18.9568  -28.4468  -41.7897 C.3       3 UNK         0.0876 
     19 N          18.7358  -26.9905  -41.7110 N.am      3 UNK        -0.4424 
     20 C          19.4501  -25.9906  -41.1662 C.2       2 UNK         0.4918 
     21 O          20.4903  -26.1253  -40.5213 O.2       2 UNK        -0.4875 
     22 CA         18.9107  -24.5721  -41.4573 C.3       2 UNK         0.0481 
     23 CB         19.9556  -23.4639  -41.2030 C.3       2 UNK        -0.1831 
     24 N          18.3391  -24.4769  -42.8102 N.am      2 UNK        -0.4498 
     25 C          18.9873  -24.6472  -43.9765 C.2       1 UNK         0.5027 
     26 O          20.2120  -24.6972  -44.0860 O.2       1 UNK        -0.4969 
     27 C          20.3648  -28.9485  -41.3762 C.2       3 UNK         0.5005 
     28 O          20.4918  -29.5658  -40.3189 O.2       3 UNK        -0.5279 
     29 N          21.4221  -28.7001  -42.1634 N.am      4 UNK        -0.4463 
     30 CA         21.4700  -27.9181  -43.4022 C.3       4 UNK         0.0283 
     31 CB         21.4584  -28.8582  -44.6175 C.3       4 UNK        -0.1875 
     32 C          22.7124  -27.0240  -43.3443 C.2       4 UNK         0.4949 
     33 O          23.6059  -27.1498  -44.1834 O.2       4 UNK        -0.5039 
     34 N          22.7884  -26.2057  -42.2838 N.am      5 UNK        -0.4663 
     35 CA         23.9285  -25.4030  -41.8152 C.3       5 UNK         0.0242 
     36 CB         24.4178  -24.4003  -42.8783 C.3       5 UNK        -0.1982 
     37 C          25.0713  -26.2788  -41.2719 C.2       5 UNK         0.5017 
     38 O          25.5180  -26.0640  -40.1446 O.2       5 UNK        -0.5012 
     39 N          25.4742  -27.2862  -42.0544 N.am      6 UNK        -0.4439 
     40 CA         26.2327  -28.4477  -41.6040 C.3       6 UNK         0.0297 
     41 CB         26.8410  -29.1537  -42.8264 C.3       6 UNK        -0.2006 
     42 C          25.3073  -29.4079  -40.8380 C.2       6 UNK         0.4892 
     43 O          24.1280  -29.5353  -41.1825 O.2       6 UNK        -0.5089 
     44 N          25.8760  -30.0938  -39.8401 N.am      7 UNK        -0.4243 
     45 CA         25.1799  -31.0453  -38.9671 C.3       7 UNK         0.0196 
     46 CB         25.9711  -31.1760  -37.6538 C.3       7 UNK        -0.2007 
     47 C          24.9453  -32.4307  -39.6008 C.2       7 UNK         0.5020 
     48 O          24.3488  -33.2889  -38.9502 O.2       7 UNK        -0.5147 
     49 N          25.4110  -32.6413  -40.8412 N.am      8 UNK        -0.4734 
     50 CA         25.3370  -33.9039  -41.5898 C.3       8 UNK         0.0238 
     51 CB         26.0460  -33.7253  -42.9424 C.3       8 UNK        -0.1912 
     52 C          23.9123  -34.4520  -41.8006 C.2       8 UNK         0.5038 
     53 O          23.7501  -35.6668  -41.9238 O.2       8 UNK        -0.5046 
     54 N          22.9166  -33.5580  -41.8204 N.am      9 UNK        -0.4200 
     55 CA         21.4853  -33.8939  -41.8564 C.3       9 UNK         0.0839 
     56 C          20.9062  -34.3818  -40.4946 C.2       9 UNK         0.5513 
     57 N          21.6392  -34.3369  -39.3881 N.am      9 UNK        -0.7519 
     58 O          19.7614  -34.8239  -40.4445 O.2       9 UNK        -0.4960 
     59 C59        20.6468  -32.7264  -42.4350 C.3       10 UNK        -0.0876 
     60 S60        21.0648  -32.3787  -44.1773 S.3       10 UNK        -0.2414 
     61 C61        19.5051  -32.7713  -45.0314 C.3       10 UNK         0.0169 
     62 H62        14.6561  -22.1271  -45.8769 H         1 UNK         0.0903 
     63 H63        14.3383  -23.5601  -44.8979 H         1 UNK         0.0903 
     64 H64        14.8198  -22.0505  -44.1206 H         1 UNK         0.0903 
     65 H65        16.0141  -25.0446  -45.0339 H         1 UNK         0.3096 
     66 H66        18.5962  -24.3979  -46.0640 H         1 UNK         0.1121 
     67 H67        17.8001  -26.9775  -44.6142 H         1 UNK         0.0849 
     68 H68        19.1226  -26.7692  -45.7322 H         1 UNK         0.0849 
     69 H69        17.0561  -29.0406  -48.0440 H         1 UNK         0.0865 
     70 H70        18.6647  -28.5267  -47.6027 H         1 UNK         0.0865 
     71 H71        19.2188  -30.7846  -46.8648 H         1 UNK         0.1346 
     72 H72        17.6222  -32.1706  -43.1381 H         1 UNK         0.1412 
     73 H73        15.9776  -28.6834  -44.9861 H         1 UNK         0.1426 
     74 H74        14.7395  -30.1067  -43.1558 H         1 UNK         0.0716 
     75 H75        15.7330  -31.1240  -42.1439 H         1 UNK         0.0716 
     76 H76        17.9622  -30.3016  -41.1726 H         1 UNK         0.0695 
     77 H77        17.8222  -29.0078  -40.0099 H         1 UNK         0.0695 
     78 H78        18.8686  -28.6984  -42.8476 H         1 UNK         0.0983 
     79 H79        17.8842  -26.7041  -42.1693 H         1 UNK         0.3095 
     80 H80        18.0846  -24.4103  -40.7636 H         1 UNK         0.0454 
     81 H81        19.5551  -22.4787  -41.4409 H         1 UNK         0.0851 
     82 H82        20.2560  -23.4464  -40.1548 H         1 UNK         0.0851 
     83 H83        20.8607  -23.6096  -41.7934 H         1 UNK         0.0851 
     84 H84        17.3315  -24.4082  -42.8563 H         1 UNK         0.2976 
     85 H85        22.3323  -29.0142  -41.8328 H         1 UNK         0.3116 
     86 H86        20.6181  -27.2500  -43.4954 H         1 UNK         0.0646 
     87 H87        20.5449  -29.4480  -44.6445 H         1 UNK         0.0847 
     88 H88        21.5085  -28.2954  -45.5503 H         1 UNK         0.0847 
     89 H89        22.3034  -29.5476  -44.6026 H         1 UNK         0.0847 
     90 H90        22.0029  -26.2272  -41.6361 H         1 UNK         0.3040 
     91 H91        23.5491  -24.8237  -40.9714 H         1 UNK         0.1015 
     92 H92        24.8668  -24.8951  -43.7396 H         1 UNK         0.0786 
     93 H93        25.1735  -23.7339  -42.4607 H         1 UNK         0.0786 
     94 H94        23.5987  -23.7779  -43.2391 H         1 UNK         0.0786 
     95 H95        24.9890  -27.3792  -42.9439 H         1 UNK         0.3172 
     96 H96        27.0388  -28.1138  -40.9471 H         1 UNK         0.0595 
     97 H97        26.0702  -29.5171  -43.5081 H         1 UNK         0.0839 
     98 H98        27.4434  -30.0119  -42.5261 H         1 UNK         0.0839 
     99 H99        27.4927  -28.4832  -43.3869 H         1 UNK         0.0839 
    100 H100       26.8555  -29.9412  -39.6437 H         1 UNK         0.2998 
    101 H101       24.1948  -30.6369  -38.7299 H         1 UNK         0.0822 
    102 H102       25.4578  -31.8317  -36.9488 H         1 UNK         0.0787 
    103 H103       26.0889  -30.2096  -37.1631 H         1 UNK         0.0787 
    104 H104       26.9651  -31.5927  -37.8211 H         1 UNK         0.0787 
    105 H105       25.8806  -31.8734  -41.2972 H         1 UNK         0.3055 
    106 H106       25.8809  -34.6548  -41.0125 H         1 UNK         0.1106 
    107 H107       26.0323  -34.6531  -43.5164 H         1 UNK         0.0828 
    108 H108       25.5651  -32.9588  -43.5519 H         1 UNK         0.0828 
    109 H109       27.0913  -33.4452  -42.8110 H         1 UNK         0.0828 
    110 H110       23.1465  -32.5815  -41.7107 H         1 UNK         0.2931 
    111 H111       21.3661  -34.7402  -42.5361 H         1 UNK         0.0412 
    112 H112       22.5904  -33.9816  -39.3936 H         1 UNK         0.3472 
    113 H113       21.2383  -34.6649  -38.5239 H         1 UNK         0.3472 
    114 H114       19.5831  -32.9498  -42.3597 H         1 UNK         0.0970 
    115 H115       20.8044  -31.8209  -41.8494 H         1 UNK         0.0970 
    116 H116       19.7359  -33.0312  -46.0656 H         1 UNK         0.0612 
    117 H117       19.0520  -33.6619  -44.5933 H         1 UNK         0.0612 
@<TRIPOS>BOND
     1    1    2 1    
     2    1   62 1    
     3    1   63 1    
     4    1   64 1    
     5    2    3 2    
     6    2    4 am   BACKBONE|DICT|INTERRES
     7    4    5 1    
     8    4   65 1    
     9    5    6 1    
    10    5   25 1    
    11    5   66 1    
    12    6    7 1    
    13    6   67 1    
    14    6   68 1    
    15    7    8 1    
    16    8    9 1    
    17    8   69 1    
    18    8   70 1    
    19    9   10 ar   
    20    9   14 ar   
    21   10   11 ar   
    22   10   71 1    
    23   11   12 ar   
    24   11   61 1    
    25   12   13 ar   
    26   12   72 1    
    27   13   14 ar   
    28   13   15 1    
    29   14   73 1    
    30   15   16 1    
    31   15   74 1    
    32   15   75 1    
    33   16   17 1    
    34   17   18 1    
    35   17   76 1    
    36   17   77 1    
    37   18   19 1    
    38   18   27 1    
    39   18   78 1    
    40   19   20 am   BACKBONE|DICT|INTERRES
    41   19   79 1    
    42   20   21 2    
    43   20   22 1    
    44   22   23 1    
    45   22   24 1    
    46   22   80 1    
    47   23   81 1    
    48   23   82 1    
    49   23   83 1    
    50   24   25 am   BACKBONE|DICT|INTERRES
    51   24   84 1    
    52   25   26 2    
    53   27   28 2    
    54   27   29 am   BACKBONE|DICT|INTERRES
    55   29   30 1    
    56   29   85 1    
    57   30   31 1    
    58   30   32 1    
    59   30   86 1    
    60   31   87 1    
    61   31   88 1    
    62   31   89 1    
    63   32   33 2    
    64   32   34 am   BACKBONE|DICT|INTERRES
    65   34   35 1    
    66   34   90 1    
    67   35   36 1    
    68   35   37 1    
    69   35   91 1    
    70   36   92 1    
    71   36   93 1    
    72   36   94 1    
    73   37   38 2    
    74   37   39 am   BACKBONE|DICT|INTERRES
    75   39   40 1    
    76   39   95 1    
    77   40   41 1    
    78   40   42 1    
    79   40   96 1    
    80   41   97 1    
    81   41   98 1    
    82   41   99 1    
    83   42   43 2    
    84   42   44 am   BACKBONE|DICT|INTERRES
    85   44   45 1    
    86   44  100 1    
    87   45   46 1    
    88   45   47 1    
    89   45  101 1    
    90   46  102 1    
    91   46  103 1    
    92   46  104 1    
    93   47   48 2    
    94   47   49 am   BACKBONE|DICT|INTERRES
    95   49   50 1    
    96   49  105 1    
    97   50   51 1    
    98   50   52 1    
    99   50  106 1    
   100   51  107 1    
   101   51  108 1    
   102   51  109 1    
   103   52   53 2    
   104   52   54 am   BACKBONE|DICT|INTERRES
   105   54   55 1    
   106   54  110 1    
   107   55   56 1    
   108   55   59 1    
   109   55  111 1    
   110   56   57 am   BACKBONE|DICT|INTERRES
   111   56   58 2    
   112   57  112 1    
   113   57  113 1    
   114   59   60 1    
   115   59  114 1    
   116   59  115 1    
   117   60   61 1    
   118   61  116 1    
   119   61  117 1    
@<TRIPOS>SUBSTRUCTURE
     1 UNK         1 GROUP             0       ****    0 ROOT    
