@<TRIPOS>MOLECULE
3R8
117   119    1
SMALL
USER_CHARGES


@<TRIPOS>ATOM
      1 CA         14.0632  -29.9728  -47.0319 C.3       0 UNK        -0.2013 
      2 C          14.6594  -28.7193  -46.4092 C.2       0 UNK         0.4866 
      3 O          14.3843  -27.6161  -46.8813 O.2       0 UNK        -0.5176 
      4 N          15.4757  -28.8875  -45.3588 N.am      1 UNK        -0.4884 
      5 CA         16.1472  -27.8245  -44.5911 C.3       1 UNK         0.0853 
      6 C6         15.1675  -26.9258  -43.7865 C.3       10 UNK        -0.0849 
      7 S7         14.3076  -27.8908  -42.4977 S.3       10 UNK        -0.2776 
      8 C8         15.1920  -27.3752  -40.9868 C.3       10 UNK         0.0316 
      9 C9         16.6994  -27.5891  -41.0769 C.ar      10 UNK        -0.0863 
     10 C10        17.2318  -28.8810  -41.1298 C.ar      10 UNK        -0.1009 
     11 C11        18.6148  -29.0778  -41.2014 C.ar      10 UNK        -0.0712 
     12 C12        19.4698  -27.9707  -41.2012 C.ar      10 UNK        -0.0894 
     13 C13        18.9497  -26.6748  -41.1566 C.ar      10 UNK        -0.0745 
     14 C14        17.5650  -26.4909  -41.0946 C.ar      10 UNK        -0.0972 
     15 C15        19.8748  -25.4675  -41.1545 C.3       10 UNK         0.0209 
     16 S16        19.9643  -24.7035  -42.8043 S.3       10 UNK        -0.2568 
     17 C17        21.5964  -25.2413  -43.4226 C.3       10 UNK        -0.0983 
     18 CA         21.5655  -26.5358  -44.2759 C.3       3 UNK         0.0876 
     19 N          20.5336  -26.4911  -45.3171 N.am      3 UNK        -0.4424 
     20 C          20.2377  -27.4791  -46.1707 C.2       2 UNK         0.4918 
     21 O          20.8202  -28.5639  -46.2075 O.2       2 UNK        -0.4875 
     22 CA         19.0176  -27.2455  -47.0740 C.3       2 UNK         0.0481 
     23 CB         19.1346  -27.9856  -48.4184 C.3       2 UNK        -0.1831 
     24 N          17.8361  -27.7244  -46.3628 N.am      2 UNK        -0.4498 
     25 C          17.1693  -27.0282  -45.4319 C.2       1 UNK         0.5027 
     26 O          17.3663  -25.8315  -45.2125 O.2       1 UNK        -0.4969 
     27 C          22.9675  -26.8069  -44.8646 C.2       3 UNK         0.5005 
     28 O          23.3091  -26.2382  -45.9055 O.2       3 UNK        -0.5279 
     29 N          23.7581  -27.6379  -44.1739 N.am      4 UNK        -0.4463 
     30 CA         25.1119  -28.0330  -44.5775 C.3       4 UNK         0.0283 
     31 CB         25.0755  -29.4504  -45.1802 C.3       4 UNK        -0.1875 
     32 C          26.0946  -27.9110  -43.4008 C.2       4 UNK         0.4949 
     33 O          27.0030  -28.7326  -43.2753 O.2       4 UNK        -0.5039 
     34 N          25.8817  -26.8916  -42.5525 N.am      5 UNK        -0.4663 
     35 CA         26.6632  -26.5534  -41.3516 C.3       5 UNK         0.0242 
     36 CB         28.0837  -26.0871  -41.7388 C.3       5 UNK        -0.1982 
     37 C          26.6716  -27.6644  -40.2792 C.2       5 UNK         0.5017 
     38 O          27.6508  -27.8034  -39.5436 O.2       5 UNK        -0.5012 
     39 N          25.5755  -28.4270  -40.2015 N.am      6 UNK        -0.4439 
     40 CA         25.3513  -29.5133  -39.2565 C.3       6 UNK         0.0297 
     41 CB         26.0227  -30.8031  -39.7636 C.3       6 UNK        -0.2006 
     42 C          23.8412  -29.7100  -39.1089 C.2       6 UNK         0.4892 
     43 O          23.1037  -29.4914  -40.0743 O.2       6 UNK        -0.5089 
     44 N          23.4191  -30.1572  -37.9196 N.am      7 UNK        -0.4243 
     45 CA         22.0189  -30.4229  -37.5703 C.3       7 UNK         0.0196 
     46 CB         21.9013  -30.5692  -36.0442 C.3       7 UNK        -0.2007 
     47 C          21.4195  -31.6531  -38.2758 C.2       7 UNK         0.5020 
     48 O          20.1961  -31.7685  -38.3394 O.2       7 UNK        -0.5147 
     49 N          22.2748  -32.5475  -38.7896 N.am      8 UNK        -0.4734 
     50 CA         21.8714  -33.7007  -39.5984 C.3       8 UNK         0.0238 
     51 CB         22.9574  -34.7854  -39.5074 C.3       8 UNK        -0.1912 
     52 C          21.6062  -33.3344  -41.0700 C.2       8 UNK         0.5038 
     53 O          20.8156  -34.0244  -41.7118 O.2       8 UNK        -0.5046 
     54 N          22.2920  -32.2900  -41.5624 N.am      9 UNK        -0.4200 
     55 CA         22.3158  -31.6984  -42.9188 C.3       9 UNK         0.0839 
     56 C          22.4356  -32.6259  -44.1695 C.2       9 UNK         0.5513 
     57 N          22.3365  -33.9411  -44.0563 N.am      9 UNK        -0.7519 
     58 O          22.6805  -32.1364  -45.2685 O.2       9 UNK        -0.4960 
     59 C59        21.2919  -30.5441  -43.1081 C.3       10 UNK        -0.0876 
     60 S60        19.5382  -31.0276  -42.9507 S.3       10 UNK        -0.2414 
     61 C61        19.1796  -30.4887  -41.2497 C.3       10 UNK         0.0169 
     62 H62        12.9751  -29.9309  -46.9888 H         1 UNK         0.0903 
     63 H63        14.3600  -30.0500  -48.0775 H         1 UNK         0.0903 
     64 H64        14.3873  -30.8785  -46.5195 H         1 UNK         0.0903 
     65 H65        15.6451  -29.8254  -45.0211 H         1 UNK         0.3096 
     66 H66        16.7725  -28.3442  -43.8639 H         1 UNK         0.1121 
     67 H67        14.4265  -26.4704  -44.4447 H         1 UNK         0.0849 
     68 H68        15.6884  -26.0948  -43.3081 H         1 UNK         0.0849 
     69 H69        14.9609  -26.3283  -40.7832 H         1 UNK         0.0865 
     70 H70        14.8016  -27.9405  -40.1395 H         1 UNK         0.0865 
     71 H71        16.5660  -29.7335  -41.1199 H         1 UNK         0.1346 
     72 H72        20.5402  -28.1147  -41.2264 H         1 UNK         0.1412 
     73 H73        17.1642  -25.4868  -41.0580 H         1 UNK         0.1426 
     74 H74        20.8686  -25.7403  -40.7973 H         1 UNK         0.0716 
     75 H75        19.4969  -24.7262  -40.4488 H         1 UNK         0.0716 
     76 H76        22.2818  -25.3518  -42.5806 H         1 UNK         0.0695 
     77 H77        21.9903  -24.4129  -44.0155 H         1 UNK         0.0695 
     78 H78        21.3002  -27.3683  -43.6218 H         1 UNK         0.0983 
     79 H79        19.9553  -25.6622  -45.3201 H         1 UNK         0.3095 
     80 H80        18.9249  -26.1773  -47.2823 H         1 UNK         0.0454 
     81 H81        20.0255  -27.6659  -48.9603 H         1 UNK         0.0851 
     82 H82        18.2756  -27.7813  -49.0576 H         1 UNK         0.0851 
     83 H83        19.2037  -29.0662  -48.2874 H         1 UNK         0.0851 
     84 H84        17.6162  -28.7047  -46.4661 H         1 UNK         0.2976 
     85 H85        23.4190  -28.0427  -43.3128 H         1 UNK         0.3116 
     86 H86        25.4879  -27.3539  -45.3454 H         1 UNK         0.0646 
     87 H87        24.8101  -30.1994  -44.4349 H         1 UNK         0.0847 
     88 H88        24.3535  -29.5192  -45.9943 H         1 UNK         0.0847 
     89 H89        26.0484  -29.7283  -45.5875 H         1 UNK         0.0847 
     90 H90        25.1141  -26.2681  -42.7616 H         1 UNK         0.3040 
     91 H91        26.1586  -25.7040  -40.8881 H         1 UNK         0.1015 
     92 H92        28.6191  -25.6976  -40.8720 H         1 UNK         0.0786 
     93 H93        28.0514  -25.2896  -42.4811 H         1 UNK         0.0786 
     94 H94        28.6803  -26.9030  -42.1483 H         1 UNK         0.0786 
     95 H95        24.7879  -28.2337  -40.8058 H         1 UNK         0.3172 
     96 H96        25.7676  -29.2376  -38.2851 H         1 UNK         0.0595 
     97 H97        25.6365  -31.1014  -40.7394 H         1 UNK         0.0839 
     98 H98        25.8571  -31.6325  -39.0752 H         1 UNK         0.0839 
     99 H99        27.1013  -30.6766  -39.8598 H         1 UNK         0.0839 
    100 H100       24.1013  -30.3158  -37.1911 H         1 UNK         0.2998 
    101 H101       21.4261  -29.5585  -37.8783 H         1 UNK         0.0822 
    102 H102       20.8647  -30.7344  -35.7463 H         1 UNK         0.0787 
    103 H103       22.4849  -31.4125  -35.6727 H         1 UNK         0.0787 
    104 H104       22.2431  -29.6701  -35.5310 H         1 UNK         0.0787 
    105 H105       23.2636  -32.4023  -38.6481 H         1 UNK         0.3055 
    106 H106       20.9442  -34.1129  -39.1924 H         1 UNK         0.1106 
    107 H107       23.1122  -35.1060  -38.4770 H         1 UNK         0.0828 
    108 H108       22.6737  -35.6699  -40.0797 H         1 UNK         0.0828 
    109 H109       23.9142  -34.4377  -39.8992 H         1 UNK         0.0828 
    110 H110       22.8810  -31.8033  -40.9036 H         1 UNK         0.2931 
    111 H111       23.2876  -31.2040  -42.9144 H         1 UNK         0.0412 
    112 H112       22.4364  -34.5241  -44.8720 H         1 UNK         0.3472 
    113 H113       21.9943  -34.3266  -43.1838 H         1 UNK         0.3472 
    114 H114       21.4235  -30.0757  -44.0848 H         1 UNK         0.0970 
    115 H115       21.5146  -29.7583  -42.3887 H         1 UNK         0.0970 
    116 H116       18.4778  -31.1923  -40.7994 H         1 UNK         0.0612 
    117 H117       20.0872  -30.5409  -40.6500 H         1 UNK         0.0612 
@<TRIPOS>BOND
     1    1    2 1    
     2    1   62 1    
     3    1   63 1    
     4    1   64 1    
     5    2    3 2    
     6    2    4 am   BACKBONE|DICT|INTERRES
     7    4    5 1    
     8    4   65 1    
     9    5    6 1    
    10    5   25 1    
    11    5   66 1    
    12    6    7 1    
    13    6   67 1    
    14    6   68 1    
    15    7    8 1    
    16    8    9 1    
    17    8   69 1    
    18    8   70 1    
    19    9   10 ar   
    20    9   14 ar   
    21   10   11 ar   
    22   10   71 1    
    23   11   12 ar   
    24   11   61 1    
    25   12   13 ar   
    26   12   72 1    
    27   13   14 ar   
    28   13   15 1    
    29   14   73 1    
    30   15   16 1    
    31   15   74 1    
    32   15   75 1    
    33   16   17 1    
    34   17   18 1    
    35   17   76 1    
    36   17   77 1    
    37   18   19 1    
    38   18   27 1    
    39   18   78 1    
    40   19   20 am   BACKBONE|DICT|INTERRES
    41   19   79 1    
    42   20   21 2    
    43   20   22 1    
    44   22   23 1    
    45   22   24 1    
    46   22   80 1    
    47   23   81 1    
    48   23   82 1    
    49   23   83 1    
    50   24   25 am   BACKBONE|DICT|INTERRES
    51   24   84 1    
    52   25   26 2    
    53   27   28 2    
    54   27   29 am   BACKBONE|DICT|INTERRES
    55   29   30 1    
    56   29   85 1    
    57   30   31 1    
    58   30   32 1    
    59   30   86 1    
    60   31   87 1    
    61   31   88 1    
    62   31   89 1    
    63   32   33 2    
    64   32   34 am   BACKBONE|DICT|INTERRES
    65   34   35 1    
    66   34   90 1    
    67   35   36 1    
    68   35   37 1    
    69   35   91 1    
    70   36   92 1    
    71   36   93 1    
    72   36   94 1    
    73   37   38 2    
    74   37   39 am   BACKBONE|DICT|INTERRES
    75   39   40 1    
    76   39   95 1    
    77   40   41 1    
    78   40   42 1    
    79   40   96 1    
    80   41   97 1    
    81   41   98 1    
    82   41   99 1    
    83   42   43 2    
    84   42   44 am   BACKBONE|DICT|INTERRES
    85   44   45 1    
    86   44  100 1    
    87   45   46 1    
    88   45   47 1    
    89   45  101 1    
    90   46  102 1    
    91   46  103 1    
    92   46  104 1    
    93   47   48 2    
    94   47   49 am   BACKBONE|DICT|INTERRES
    95   49   50 1    
    96   49  105 1    
    97   50   51 1    
    98   50   52 1    
    99   50  106 1    
   100   51  107 1    
   101   51  108 1    
   102   51  109 1    
   103   52   53 2    
   104   52   54 am   BACKBONE|DICT|INTERRES
   105   54   55 1    
   106   54  110 1    
   107   55   56 1    
   108   55   59 1    
   109   55  111 1    
   110   56   57 am   BACKBONE|DICT|INTERRES
   111   56   58 2    
   112   57  112 1    
   113   57  113 1    
   114   59   60 1    
   115   59  114 1    
   116   59  115 1    
   117   60   61 1    
   118   61  116 1    
   119   61  117 1    
@<TRIPOS>SUBSTRUCTURE
     1 UNK         1 GROUP             0       ****    0 ROOT    
