@<TRIPOS>MOLECULE
3R8
117   119    1
SMALL
USER_CHARGES


@<TRIPOS>ATOM
      1 CA         16.6706  -22.4749  -45.1668 C.3       0 UNK        -0.2013 
      2 C          17.8208  -22.9514  -46.0410 C.2       0 UNK         0.4866 
      3 O          18.8340  -22.2607  -46.1502 O.2       0 UNK        -0.5176 
      4 N          17.6688  -24.1245  -46.6689 N.am      1 UNK        -0.4884 
      5 CA         18.6808  -24.7722  -47.5142 C.3       1 UNK         0.0853 
      6 C6         18.0738  -25.9298  -48.3531 C.3       10 UNK        -0.0849 
      7 S7         17.1209  -27.1431  -47.3661 S.3       10 UNK        -0.2776 
      8 C8         18.2964  -28.5399  -47.2676 C.3       10 UNK         0.0316 
      9 C9         18.1010  -29.4980  -46.0874 C.ar      10 UNK        -0.0863 
     10 C10        18.9906  -30.5702  -45.9607 C.ar      10 UNK        -0.1009 
     11 C11        18.8735  -31.4838  -44.9093 C.ar      10 UNK        -0.0712 
     12 C12        17.8410  -31.3328  -43.9806 C.ar      10 UNK        -0.0894 
     13 C13        16.9606  -30.2525  -44.0701 C.ar      10 UNK        -0.0745 
     14 C14        17.0902  -29.3445  -45.1265 C.ar      10 UNK        -0.0972 
     15 C15        15.8772  -30.0579  -43.0153 C.3       10 UNK         0.0209 
     16 S16        16.5662  -29.6804  -41.3664 S.3       10 UNK        -0.2568 
     17 C17        17.5902  -28.2111  -41.7158 C.3       10 UNK        -0.0983 
     18 CA         19.1028  -28.5731  -41.8026 C.3       3 UNK         0.0876 
     19 N          19.8115  -27.9455  -42.9204 N.am      3 UNK        -0.4424 
     20 C          19.7941  -26.6599  -43.2919 C.2       2 UNK         0.4918 
     21 O          19.1302  -25.7825  -42.7376 O.2       2 UNK        -0.4875 
     22 CA         20.6197  -26.2826  -44.5328 C.3       2 UNK         0.0481 
     23 CB         21.4773  -27.4423  -45.1005 C.3       2 UNK        -0.1831 
     24 N          19.6643  -25.7773  -45.5135 N.am      2 UNK        -0.4498 
     25 C          19.9157  -25.2343  -46.7101 C.2       1 UNK         0.5027 
     26 O          21.0428  -25.0828  -47.1829 O.2       1 UNK        -0.4969 
     27 C          19.8433  -28.3868  -40.4609 C.2       3 UNK         0.5005 
     28 O          20.5682  -27.4058  -40.2700 O.2       3 UNK        -0.5279 
     29 N          19.6304  -29.3436  -39.5446 N.am      4 UNK        -0.4463 
     30 CA         20.2124  -29.4250  -38.2013 C.3       4 UNK         0.0283 
     31 CB         19.6206  -28.3284  -37.2855 C.3       4 UNK        -0.1875 
     32 C          21.7529  -29.4540  -38.2476 C.2       4 UNK         0.4949 
     33 O          22.3186  -30.4066  -38.7817 O.2       4 UNK        -0.5039 
     34 N          22.4099  -28.4283  -37.6910 N.am      5 UNK        -0.4663 
     35 CA         23.8689  -28.3017  -37.6630 C.3       5 UNK         0.0242 
     36 CB         24.2595  -27.1683  -36.7009 C.3       5 UNK        -0.1982 
     37 C          24.4974  -28.0719  -39.0489 C.2       5 UNK         0.5017 
     38 O          25.6497  -28.4585  -39.2523 O.2       5 UNK        -0.5012 
     39 N          23.7493  -27.4530  -39.9736 N.am      6 UNK        -0.4439 
     40 CA         24.1962  -27.2039  -41.3424 C.3       6 UNK         0.0297 
     41 CB         23.3448  -26.0946  -41.9743 C.3       6 UNK        -0.2006 
     42 C          24.1336  -28.4966  -42.1671 C.2       6 UNK         0.4892 
     43 O          23.1238  -29.2029  -42.1219 O.2       6 UNK        -0.5089 
     44 N          25.2290  -28.7789  -42.8872 N.am      7 UNK        -0.4243 
     45 CA         25.4637  -29.9595  -43.7332 C.3       7 UNK         0.0196 
     46 CB         24.5124  -29.9504  -44.9492 C.3       7 UNK        -0.2007 
     47 C          25.4412  -31.3078  -42.9777 C.2       7 UNK         0.5020 
     48 O          25.3509  -32.3549  -43.6192 O.2       7 UNK        -0.5147 
     49 N          25.5364  -31.2627  -41.6380 N.am      8 UNK        -0.4734 
     50 CA         25.4483  -32.3865  -40.6934 C.3       8 UNK         0.0238 
     51 CB         26.6672  -33.3227  -40.8381 C.3       8 UNK        -0.1912 
     52 C          24.1036  -33.1437  -40.7535 C.2       8 UNK         0.5038 
     53 O          24.0573  -34.3365  -40.4441 O.2       8 UNK        -0.5046 
     54 N          23.0342  -32.4371  -41.1369 N.am      9 UNK        -0.4200 
     55 CA         21.6518  -32.9229  -41.2586 C.3       9 UNK         0.0839 
     56 C          20.9521  -33.1621  -39.8852 C.2       9 UNK         0.5513 
     57 N          21.5637  -33.9134  -38.9801 N.am      9 UNK        -0.7519 
     58 O          19.8469  -32.6838  -39.6371 O.2       9 UNK        -0.4960 
     59 C59        20.8438  -31.9895  -42.1945 C.3       10 UNK        -0.0876 
     60 S60        21.3915  -32.0874  -43.9321 S.3       10 UNK        -0.2414 
     61 C61        19.8707  -32.6260  -44.7777 C.3       10 UNK         0.0169 
     62 H62        15.8318  -23.1706  -45.1806 H         1 UNK         0.0903 
     63 H63        17.0045  -22.3671  -44.1351 H         1 UNK         0.0903 
     64 H64        16.3126  -21.5055  -45.5127 H         1 UNK         0.0903 
     65 H65        16.8118  -24.6483  -46.5520 H         1 UNK         0.3096 
     66 H66        19.0425  -24.0172  -48.2165 H         1 UNK         0.1121 
     67 H67        18.8444  -26.4383  -48.9362 H         1 UNK         0.0849 
     68 H68        17.3900  -25.5092  -49.0921 H         1 UNK         0.0849 
     69 H69        18.2292  -29.1068  -48.1973 H         1 UNK         0.0865 
     70 H70        19.3120  -28.1473  -47.2242 H         1 UNK         0.0865 
     71 H71        19.7878  -30.6933  -46.6816 H         1 UNK         0.1346 
     72 H72        17.7332  -32.0382  -43.1686 H         1 UNK         0.1412 
     73 H73        16.3978  -28.5176  -45.1841 H         1 UNK         0.1426 
     74 H74        15.2753  -30.9651  -42.9479 H         1 UNK         0.0716 
     75 H75        15.1933  -29.2580  -43.3034 H         1 UNK         0.0716 
     76 H76        17.3998  -27.4516  -40.9548 H         1 UNK         0.0695 
     77 H77        17.2363  -27.7723  -42.6493 H         1 UNK         0.0695 
     78 H78        19.1725  -29.6317  -42.0458 H         1 UNK         0.0983 
     79 H79        20.4143  -28.5699  -43.4364 H         1 UNK         0.3095 
     80 H80        21.2816  -25.4627  -44.2490 H         1 UNK         0.0454 
     81 H81        20.8691  -28.2772  -45.4469 H         1 UNK         0.0851 
     82 H82        22.1669  -27.8252  -44.3487 H         1 UNK         0.0851 
     83 H83        22.0934  -27.1166  -45.9376 H         1 UNK         0.0851 
     84 H84        18.6986  -25.8122  -45.2137 H         1 UNK         0.2976 
     85 H85        19.0410  -30.1261  -39.7978 H         1 UNK         0.3116 
     86 H86        19.9072  -30.3902  -37.7943 H         1 UNK         0.0646 
     87 H87        19.8466  -27.3221  -37.6400 H         1 UNK         0.0847 
     88 H88        19.9994  -28.4176  -36.2664 H         1 UNK         0.0847 
     89 H89        18.5357  -28.4159  -37.2274 H         1 UNK         0.0847 
     90 H90        21.8742  -27.6741  -37.2862 H         1 UNK         0.3040 
     91 H91        24.2797  -29.2367  -37.2748 H         1 UNK         0.1015 
     92 H92        23.8608  -26.2064  -37.0262 H         1 UNK         0.0786 
     93 H93        25.3441  -27.0667  -36.6379 H         1 UNK         0.0786 
     94 H94        23.8954  -27.3603  -35.6914 H         1 UNK         0.0786 
     95 H95        22.7719  -27.2731  -39.7733 H         1 UNK         0.3172 
     96 H96        25.2293  -26.8503  -41.3101 H         1 UNK         0.0595 
     97 H97        23.6396  -25.9121  -43.0085 H         1 UNK         0.0839 
     98 H98        23.4542  -25.1546  -41.4336 H         1 UNK         0.0839 
     99 H99        22.2890  -26.3563  -41.9733 H         1 UNK         0.0839 
    100 H100       26.0054  -28.1334  -42.8321 H         1 UNK         0.2998 
    101 H101       26.4806  -29.8574  -44.1151 H         1 UNK         0.0822 
    102 H102       24.7541  -30.7532  -45.6466 H         1 UNK         0.0787 
    103 H103       23.4733  -30.0847  -44.6499 H         1 UNK         0.0787 
    104 H104       24.5821  -29.0129  -45.5006 H         1 UNK         0.0787 
    105 H105       25.6064  -30.3472  -41.2131 H         1 UNK         0.3055 
    106 H106       25.4892  -31.9455  -39.6958 H         1 UNK         0.1106 
    107 H107       26.6826  -34.0715  -40.0452 H         1 UNK         0.0828 
    108 H108       26.6563  -33.8578  -41.7880 H         1 UNK         0.0828 
    109 H109       27.6036  -32.7687  -40.7750 H         1 UNK         0.0828 
    110 H110       23.1653  -31.4553  -41.3450 H         1 UNK         0.2931 
    111 H111       21.6843  -33.9042  -41.7358 H         1 UNK         0.0412 
    112 H112       22.4729  -34.3042  -39.1980 H         1 UNK         0.3472 
    113 H113       21.1290  -34.0822  -38.0870 H         1 UNK         0.3472 
    114 H114       20.9521  -30.9590  -41.8583 H         1 UNK         0.0970 
    115 H115       19.7812  -32.2234  -42.1462 H         1 UNK         0.0970 
    116 H116       20.1346  -32.9961  -45.7695 H         1 UNK         0.0612 
    117 H117       19.4298  -33.4702  -44.2452 H         1 UNK         0.0612 
@<TRIPOS>BOND
     1    1    2 1    
     2    1   62 1    
     3    1   63 1    
     4    1   64 1    
     5    2    3 2    
     6    2    4 am   BACKBONE|DICT|INTERRES
     7    4    5 1    
     8    4   65 1    
     9    5    6 1    
    10    5   25 1    
    11    5   66 1    
    12    6    7 1    
    13    6   67 1    
    14    6   68 1    
    15    7    8 1    
    16    8    9 1    
    17    8   69 1    
    18    8   70 1    
    19    9   10 ar   
    20    9   14 ar   
    21   10   11 ar   
    22   10   71 1    
    23   11   12 ar   
    24   11   61 1    
    25   12   13 ar   
    26   12   72 1    
    27   13   14 ar   
    28   13   15 1    
    29   14   73 1    
    30   15   16 1    
    31   15   74 1    
    32   15   75 1    
    33   16   17 1    
    34   17   18 1    
    35   17   76 1    
    36   17   77 1    
    37   18   19 1    
    38   18   27 1    
    39   18   78 1    
    40   19   20 am   BACKBONE|DICT|INTERRES
    41   19   79 1    
    42   20   21 2    
    43   20   22 1    
    44   22   23 1    
    45   22   24 1    
    46   22   80 1    
    47   23   81 1    
    48   23   82 1    
    49   23   83 1    
    50   24   25 am   BACKBONE|DICT|INTERRES
    51   24   84 1    
    52   25   26 2    
    53   27   28 2    
    54   27   29 am   BACKBONE|DICT|INTERRES
    55   29   30 1    
    56   29   85 1    
    57   30   31 1    
    58   30   32 1    
    59   30   86 1    
    60   31   87 1    
    61   31   88 1    
    62   31   89 1    
    63   32   33 2    
    64   32   34 am   BACKBONE|DICT|INTERRES
    65   34   35 1    
    66   34   90 1    
    67   35   36 1    
    68   35   37 1    
    69   35   91 1    
    70   36   92 1    
    71   36   93 1    
    72   36   94 1    
    73   37   38 2    
    74   37   39 am   BACKBONE|DICT|INTERRES
    75   39   40 1    
    76   39   95 1    
    77   40   41 1    
    78   40   42 1    
    79   40   96 1    
    80   41   97 1    
    81   41   98 1    
    82   41   99 1    
    83   42   43 2    
    84   42   44 am   BACKBONE|DICT|INTERRES
    85   44   45 1    
    86   44  100 1    
    87   45   46 1    
    88   45   47 1    
    89   45  101 1    
    90   46  102 1    
    91   46  103 1    
    92   46  104 1    
    93   47   48 2    
    94   47   49 am   BACKBONE|DICT|INTERRES
    95   49   50 1    
    96   49  105 1    
    97   50   51 1    
    98   50   52 1    
    99   50  106 1    
   100   51  107 1    
   101   51  108 1    
   102   51  109 1    
   103   52   53 2    
   104   52   54 am   BACKBONE|DICT|INTERRES
   105   54   55 1    
   106   54  110 1    
   107   55   56 1    
   108   55   59 1    
   109   55  111 1    
   110   56   57 am   BACKBONE|DICT|INTERRES
   111   56   58 2    
   112   57  112 1    
   113   57  113 1    
   114   59   60 1    
   115   59  114 1    
   116   59  115 1    
   117   60   61 1    
   118   61  116 1    
   119   61  117 1    
@<TRIPOS>SUBSTRUCTURE
     1 UNK         1 GROUP             0       ****    0 ROOT    
