@<TRIPOS>MOLECULE
3R8
117   119    1
SMALL
USER_CHARGES


@<TRIPOS>ATOM
      1 CA         13.4053  -27.2711  -41.1524 C.3       0 UNK        -0.2013 
      2 C          14.7832  -27.8462  -41.4446 C.2       0 UNK         0.4866 
      3 O          15.0678  -28.9813  -41.0626 O.2       0 UNK        -0.5176 
      4 N          15.6399  -27.0753  -42.1207 N.am      1 UNK        -0.4884 
      5 CA         16.9933  -27.4609  -42.5116 C.3       1 UNK         0.0853 
      6 C6         17.9901  -27.3369  -41.3200 C.3       10 UNK        -0.0849 
      7 S7         19.7551  -27.0650  -41.7122 S.3       10 UNK        -0.2776 
      8 C8         20.4578  -28.7350  -41.5933 C.3       10 UNK         0.0316 
      9 C9         20.2784  -29.5032  -42.8927 C.ar      10 UNK        -0.0863 
     10 C10        19.1126  -30.2360  -43.1186 C.ar      10 UNK        -0.1009 
     11 C11        18.9434  -30.9549  -44.3031 C.ar      10 UNK        -0.0712 
     12 C12        19.9524  -30.9321  -45.2711 C.ar      10 UNK        -0.0894 
     13 C13        21.1369  -30.2213  -45.0498 C.ar      10 UNK        -0.0745 
     14 C14        21.2909  -29.5075  -43.8554 C.ar      10 UNK        -0.0972 
     15 C15        22.2709  -30.3000  -46.0671 C.3       10 UNK         0.0209 
     16 S16        22.3478  -28.8527  -47.1721 S.3       10 UNK        -0.2568 
     17 C17        23.1350  -27.6075  -46.0904 C.3       10 UNK        -0.0983 
     18 CA         22.2418  -26.3801  -45.7602 C.3       3 UNK         0.0876 
     19 N          20.8339  -26.7424  -45.5402 N.am      3 UNK        -0.4424 
     20 C          19.8024  -25.9906  -45.9459 C.2       2 UNK         0.4918 
     21 O          19.9077  -24.8217  -46.3175 O.2       2 UNK        -0.4875 
     22 CA         18.4292  -26.6754  -45.9910 C.3       2 UNK         0.0481 
     23 CB         18.3985  -27.7621  -47.0802 C.3       2 UNK        -0.1831 
     24 N          18.0652  -27.2672  -44.7054 N.am      2 UNK        -0.4498 
     25 C          17.3475  -26.6400  -43.7642 C.2       1 UNK         0.5027 
     26 O          16.9429  -25.4773  -43.8598 O.2       1 UNK        -0.4969 
     27 C          22.8568  -25.5777  -44.5945 C.2       3 UNK         0.5005 
     28 O          23.9929  -25.1195  -44.7255 O.2       3 UNK        -0.5279 
     29 N          22.1281  -25.4449  -43.4760 N.am      4 UNK        -0.4463 
     30 CA         22.5307  -24.8098  -42.2170 C.3       4 UNK         0.0283 
     31 CB         22.8060  -23.2994  -42.4001 C.3       4 UNK        -0.1875 
     32 C          23.6752  -25.5752  -41.5282 C.2       4 UNK         0.4949 
     33 O          23.4093  -26.5558  -40.8317 O.2       4 UNK        -0.5039 
     34 N          24.9182  -25.1179  -41.7328 N.am      5 UNK        -0.4663 
     35 CA         26.1396  -25.5367  -41.0316 C.3       5 UNK         0.0242 
     36 CB         27.3185  -24.6984  -41.5527 C.3       5 UNK        -0.1982 
     37 C          26.4844  -27.0367  -41.0918 C.2       5 UNK         0.5017 
     38 O          27.2350  -27.5058  -40.2355 O.2       5 UNK        -0.5012 
     39 N          25.9392  -27.7626  -42.0782 N.am      6 UNK        -0.4439 
     40 CA         26.0791  -29.2163  -42.2115 C.3       6 UNK         0.0297 
     41 CB         25.5490  -29.6619  -43.5825 C.3       6 UNK        -0.2006 
     42 C          25.3798  -30.0095  -41.0896 C.2       6 UNK         0.4892 
     43 O          25.8267  -31.1158  -40.7859 O.2       6 UNK        -0.5089 
     44 N          24.3111  -29.4380  -40.5053 N.am      7 UNK        -0.4243 
     45 CA         23.5182  -29.9744  -39.3874 C.3       7 UNK         0.0196 
     46 CB         24.3371  -29.9106  -38.0806 C.3       7 UNK        -0.2007 
     47 C          22.9152  -31.3746  -39.6442 C.2       7 UNK         0.5020 
     48 O          22.8144  -32.1809  -38.7171 O.2       7 UNK        -0.5147 
     49 N          22.5338  -31.6455  -40.8991 N.am      8 UNK        -0.4734 
     50 CA         21.9227  -32.9035  -41.3356 C.3       8 UNK         0.0238 
     51 CB         22.2177  -33.0941  -42.8346 C.3       8 UNK        -0.1912 
     52 C          20.4085  -32.9458  -41.0471 C.2       8 UNK         0.5038 
     53 O          19.8495  -31.9911  -40.5020 O.2       8 UNK        -0.5046 
     54 N          19.7752  -34.0639  -41.4271 N.am      9 UNK        -0.4200 
     55 CA         18.3278  -34.3284  -41.3158 C.3       9 UNK         0.0839 
     56 C          17.7896  -34.4431  -39.8555 C.2       9 UNK         0.5513 
     57 N          18.6363  -34.6297  -38.8500 N.am      9 UNK        -0.7519 
     58 O          16.5827  -34.4028  -39.6292 O.2       9 UNK        -0.4960 
     59 C59        17.4617  -33.3855  -42.2038 C.3       10 UNK        -0.0876 
     60 S60        17.8791  -33.4943  -43.9803 S.3       10 UNK        -0.2414 
     61 C61        17.6801  -31.7697  -44.5329 C.3       10 UNK         0.0169 
     62 H62        13.2332  -27.2385  -40.0769 H         1 UNK         0.0903 
     63 H63        13.2937  -26.2602  -41.5443 H         1 UNK         0.0903 
     64 H64        12.6346  -27.8964  -41.6022 H         1 UNK         0.0903 
     65 H65        15.3658  -26.1581  -42.4541 H         1 UNK         0.3096 
     66 H66        16.9539  -28.5047  -42.8257 H         1 UNK         0.1121 
     67 H67        17.8905  -28.2062  -40.6685 H         1 UNK         0.0849 
     68 H68        17.7000  -26.4865  -40.7004 H         1 UNK         0.0849 
     69 H69        20.0158  -29.2783  -40.7568 H         1 UNK         0.0865 
     70 H70        21.5189  -28.6402  -41.3631 H         1 UNK         0.0865 
     71 H71        18.3482  -30.2648  -42.3553 H         1 UNK         0.1346 
     72 H72        19.8285  -31.5003  -46.1831 H         1 UNK         0.1412 
     73 H73        22.2032  -28.9677  -43.6553 H         1 UNK         0.1426 
     74 H74        22.1482  -31.1903  -46.6859 H         1 UNK         0.0716 
     75 H75        23.2259  -30.4308  -45.5574 H         1 UNK         0.0716 
     76 H76        24.0417  -27.2683  -46.5948 H         1 UNK         0.0695 
     77 H77        23.4894  -28.0935  -45.1842 H         1 UNK         0.0695 
     78 H78        22.2869  -25.7217  -46.6310 H         1 UNK         0.0983 
     79 H79        20.6639  -27.6987  -45.2632 H         1 UNK         0.3095 
     80 H80        17.6902  -25.9203  -46.2683 H         1 UNK         0.0454 
     81 H81        19.0910  -28.5778  -46.8706 H         1 UNK         0.0851 
     82 H82        18.6714  -27.3479  -48.0518 H         1 UNK         0.0851 
     83 H83        17.4016  -28.1910  -47.1818 H         1 UNK         0.0851 
     84 H84        18.3835  -28.2104  -44.5303 H         1 UNK         0.2976 
     85 H85        21.2202  -25.8911  -43.4573 H         1 UNK         0.3116 
     86 H86        21.6751  -24.8872  -41.5457 H         1 UNK         0.0646 
     87 H87        21.9144  -22.7836  -42.7566 H         1 UNK         0.0847 
     88 H88        23.6064  -23.0942  -43.1106 H         1 UNK         0.0847 
     89 H89        23.0843  -22.8368  -41.4522 H         1 UNK         0.0847 
     90 H90        25.0229  -24.3577  -42.3903 H         1 UNK         0.3040 
     91 H91        25.9941  -25.2986  -39.9758 H         1 UNK         0.1015 
     92 H92        28.2436  -24.9555  -41.0343 H         1 UNK         0.0786 
     93 H93        27.1497  -23.6329  -41.3960 H         1 UNK         0.0786 
     94 H94        27.4864  -24.8600  -42.6183 H         1 UNK         0.0786 
     95 H95        25.3463  -27.2837  -42.7405 H         1 UNK         0.3172 
     96 H96        27.1447  -29.4513  -42.1679 H         1 UNK         0.0595 
     97 H97        26.0231  -29.1140  -44.3971 H         1 UNK         0.0839 
     98 H98        25.7465  -30.7221  -43.7477 H         1 UNK         0.0839 
     99 H99        24.4727  -29.5217  -43.6563 H         1 UNK         0.0839 
    100 H100       24.0530  -28.5017  -40.8036 H         1 UNK         0.2998 
    101 H101       22.6682  -29.3010  -39.2689 H         1 UNK         0.0822 
    102 H102       24.7259  -28.9073  -37.9060 H         1 UNK         0.0787 
    103 H103       23.7236  -30.1734  -37.2180 H         1 UNK         0.0787 
    104 H104       25.1830  -30.5987  -38.1017 H         1 UNK         0.0787 
    105 H105       22.6191  -30.9218  -41.5955 H         1 UNK         0.3055 
    106 H106       22.3882  -33.7249  -40.7860 H         1 UNK         0.1106 
    107 H107       21.6582  -32.3871  -43.4441 H         1 UNK         0.0828 
    108 H108       21.9444  -34.0942  -43.1718 H         1 UNK         0.0828 
    109 H109       23.2775  -32.9634  -43.0546 H         1 UNK         0.0828 
    110 H110       20.3128  -34.8040  -41.8534 H         1 UNK         0.2931 
    111 H111       18.2012  -35.3345  -41.7173 H         1 UNK         0.0412 
    112 H112       18.2780  -34.7153  -37.9117 H         1 UNK         0.3472 
    113 H113       19.6289  -34.6671  -39.0175 H         1 UNK         0.3472 
    114 H114       16.4041  -33.6393  -42.1142 H         1 UNK         0.0970 
    115 H115       17.5484  -32.3567  -41.8560 H         1 UNK         0.0970 
    116 H116       16.8274  -31.3126  -44.0281 H         1 UNK         0.0612 
    117 H117       17.4364  -31.7713  -45.5964 H         1 UNK         0.0612 
@<TRIPOS>BOND
     1    1    2 1    
     2    1   62 1    
     3    1   63 1    
     4    1   64 1    
     5    2    3 2    
     6    2    4 am   BACKBONE|DICT|INTERRES
     7    4    5 1    
     8    4   65 1    
     9    5    6 1    
    10    5   25 1    
    11    5   66 1    
    12    6    7 1    
    13    6   67 1    
    14    6   68 1    
    15    7    8 1    
    16    8    9 1    
    17    8   69 1    
    18    8   70 1    
    19    9   10 ar   
    20    9   14 ar   
    21   10   11 ar   
    22   10   71 1    
    23   11   12 ar   
    24   11   61 1    
    25   12   13 ar   
    26   12   72 1    
    27   13   14 ar   
    28   13   15 1    
    29   14   73 1    
    30   15   16 1    
    31   15   74 1    
    32   15   75 1    
    33   16   17 1    
    34   17   18 1    
    35   17   76 1    
    36   17   77 1    
    37   18   19 1    
    38   18   27 1    
    39   18   78 1    
    40   19   20 am   BACKBONE|DICT|INTERRES
    41   19   79 1    
    42   20   21 2    
    43   20   22 1    
    44   22   23 1    
    45   22   24 1    
    46   22   80 1    
    47   23   81 1    
    48   23   82 1    
    49   23   83 1    
    50   24   25 am   BACKBONE|DICT|INTERRES
    51   24   84 1    
    52   25   26 2    
    53   27   28 2    
    54   27   29 am   BACKBONE|DICT|INTERRES
    55   29   30 1    
    56   29   85 1    
    57   30   31 1    
    58   30   32 1    
    59   30   86 1    
    60   31   87 1    
    61   31   88 1    
    62   31   89 1    
    63   32   33 2    
    64   32   34 am   BACKBONE|DICT|INTERRES
    65   34   35 1    
    66   34   90 1    
    67   35   36 1    
    68   35   37 1    
    69   35   91 1    
    70   36   92 1    
    71   36   93 1    
    72   36   94 1    
    73   37   38 2    
    74   37   39 am   BACKBONE|DICT|INTERRES
    75   39   40 1    
    76   39   95 1    
    77   40   41 1    
    78   40   42 1    
    79   40   96 1    
    80   41   97 1    
    81   41   98 1    
    82   41   99 1    
    83   42   43 2    
    84   42   44 am   BACKBONE|DICT|INTERRES
    85   44   45 1    
    86   44  100 1    
    87   45   46 1    
    88   45   47 1    
    89   45  101 1    
    90   46  102 1    
    91   46  103 1    
    92   46  104 1    
    93   47   48 2    
    94   47   49 am   BACKBONE|DICT|INTERRES
    95   49   50 1    
    96   49  105 1    
    97   50   51 1    
    98   50   52 1    
    99   50  106 1    
   100   51  107 1    
   101   51  108 1    
   102   51  109 1    
   103   52   53 2    
   104   52   54 am   BACKBONE|DICT|INTERRES
   105   54   55 1    
   106   54  110 1    
   107   55   56 1    
   108   55   59 1    
   109   55  111 1    
   110   56   57 am   BACKBONE|DICT|INTERRES
   111   56   58 2    
   112   57  112 1    
   113   57  113 1    
   114   59   60 1    
   115   59  114 1    
   116   59  115 1    
   117   60   61 1    
   118   61  116 1    
   119   61  117 1    
@<TRIPOS>SUBSTRUCTURE
     1 UNK         1 GROUP             0       ****    0 ROOT    
