@<TRIPOS>MOLECULE
3R8
117   119    1
SMALL
USER_CHARGES


@<TRIPOS>ATOM
      1 CA         14.6648  -23.7708  -40.9850 C.3       0 UNK        -0.2013 
      2 C          15.4001  -24.4077  -42.1549 C.2       0 UNK         0.4866 
      3 O          14.9456  -24.3037  -43.2948 O.2       0 UNK        -0.5176 
      4 N          16.5332  -25.0604  -41.8838 N.am      1 UNK        -0.4884 
      5 CA         17.3798  -25.7359  -42.8659 C.3       1 UNK         0.0853 
      6 C6         16.8048  -27.0954  -43.3530 C.3       10 UNK        -0.0849 
      7 S7         16.2468  -28.2280  -42.0283 S.3       10 UNK        -0.2776 
      8 C8         15.1551  -29.3627  -42.9479 C.3       10 UNK         0.0316 
      9 C9         15.9420  -30.4084  -43.7279 C.ar      10 UNK        -0.0863 
     10 C10        16.0619  -31.7159  -43.2456 C.ar      10 UNK        -0.1009 
     11 C11        16.7687  -32.6801  -43.9731 C.ar      10 UNK        -0.0712 
     12 C12        17.3903  -32.3180  -45.1737 C.ar      10 UNK        -0.0894 
     13 C13        17.2948  -31.0090  -45.6544 C.ar      10 UNK        -0.0745 
     14 C14        16.5393  -30.0726  -44.9448 C.ar      10 UNK        -0.0972 
     15 C15        17.9884  -30.6002  -46.9465 C.3       10 UNK         0.0209 
     16 S16        19.1419  -29.2098  -46.6958 S.3       10 UNK        -0.2568 
     17 C17        20.5738  -30.0434  -45.9363 C.3       10 UNK        -0.0983 
     18 CA         21.6681  -29.0185  -45.5464 C.3       3 UNK         0.0876 
     19 N          21.2713  -28.2027  -44.3921 N.am      3 UNK        -0.4424 
     20 C          21.8492  -27.0487  -44.0359 C.2       2 UNK         0.4918 
     21 O          22.8362  -26.5831  -44.6059 O.2       2 UNK        -0.4875 
     22 CA         21.1919  -26.2797  -42.8816 C.3       2 UNK         0.0481 
     23 CB         21.8661  -24.9222  -42.5952 C.3       2 UNK        -0.1831 
     24 N          19.7733  -26.0997  -43.1867 N.am      2 UNK        -0.4498 
     25 C          18.8032  -25.8607  -42.2965 C.2       1 UNK         0.5027 
     26 O          18.9936  -25.7281  -41.0836 O.2       1 UNK        -0.4969 
     27 C          23.0524  -29.6841  -45.3894 C.2       3 UNK         0.5005 
     28 O          23.6621  -30.0155  -46.4078 O.2       3 UNK        -0.5279 
     29 N          23.5511  -29.8301  -44.1528 N.am      4 UNK        -0.4463 
     30 CA         24.9228  -30.2646  -43.8640 C.3       4 UNK         0.0283 
     31 CB         24.8882  -31.3742  -42.8012 C.3       4 UNK        -0.1875 
     32 C          25.8181  -29.0961  -43.4135 C.2       4 UNK         0.4949 
     33 O          26.9465  -29.3438  -42.9861 O.2       4 UNK        -0.5039 
     34 N          25.3088  -27.8547  -43.4764 N.am      5 UNK        -0.4663 
     35 CA         25.8953  -26.5839  -43.0221 C.3       5 UNK         0.0242 
     36 CB         27.2038  -26.2568  -43.7684 C.3       5 UNK        -0.1982 
     37 C          26.0763  -26.4987  -41.4965 C.2       5 UNK         0.5017 
     38 O          25.5650  -25.5677  -40.8748 O.2       5 UNK        -0.5012 
     39 N          26.7763  -27.4835  -40.9237 N.am      6 UNK        -0.4439 
     40 CA         26.9936  -27.6610  -39.4878 C.3       6 UNK         0.0297 
     41 CB         28.2570  -28.5133  -39.2833 C.3       6 UNK        -0.2006 
     42 C          25.7920  -28.3007  -38.7665 C.2       6 UNK         0.4892 
     43 O          25.7613  -28.2808  -37.5352 O.2       6 UNK        -0.5089 
     44 N          24.8371  -28.8587  -39.5214 N.am      7 UNK        -0.4243 
     45 CA         23.6128  -29.4719  -39.0180 C.3       7 UNK         0.0196 
     46 CB         23.8411  -30.9722  -38.7591 C.3       7 UNK        -0.2007 
     47 C          22.4787  -29.2399  -40.0219 C.2       7 UNK         0.5020 
     48 O          22.7400  -28.9914  -41.2039 O.2       7 UNK        -0.5147 
     49 N          21.2430  -29.3265  -39.5110 N.am      8 UNK        -0.4734 
     50 CA         19.9898  -29.0810  -40.2291 C.3       8 UNK         0.0238 
     51 CB         18.8099  -29.2045  -39.2501 C.3       8 UNK        -0.1912 
     52 C          19.7967  -29.9905  -41.4503 C.2       8 UNK         0.5038 
     53 O          19.5972  -29.4881  -42.5559 O.2       8 UNK        -0.5046 
     54 N          19.9014  -31.3015  -41.2154 N.am      9 UNK        -0.4200 
     55 CA         19.8711  -32.3460  -42.2401 C.3       9 UNK         0.0839 
     56 C          21.3169  -32.7694  -42.5987 C.2       9 UNK         0.5513 
     57 N          21.6121  -32.9603  -43.8771 N.am      9 UNK        -0.7519 
     58 O          22.1564  -32.9634  -41.7221 O.2       9 UNK        -0.4960 
     59 C59        19.0163  -33.5461  -41.7584 C.3       10 UNK        -0.0876 
     60 S60        18.5436  -34.6596  -43.1243 S.3       10 UNK        -0.2414 
     61 C61        16.8404  -34.1179  -43.4733 C.3       10 UNK         0.0169 
     62 H62        15.1778  -23.9433  -40.0390 H         1 UNK         0.0903 
     63 H63        14.5812  -22.6947  -41.1347 H         1 UNK         0.0903 
     64 H64        13.6595  -24.1836  -40.9051 H         1 UNK         0.0903 
     65 H65        16.9034  -25.1001  -40.9414 H         1 UNK         0.3096 
     66 H66        17.4620  -25.0746  -43.7320 H         1 UNK         0.1121 
     67 H67        17.5397  -27.6187  -43.9667 H         1 UNK         0.0849 
     68 H68        15.9564  -26.8988  -44.0099 H         1 UNK         0.0849 
     69 H69        14.4883  -29.8519  -42.2363 H         1 UNK         0.0865 
     70 H70        14.5095  -28.7976  -43.6218 H         1 UNK         0.0865 
     71 H71        15.5910  -31.9866  -42.3105 H         1 UNK         0.1346 
     72 H72        17.9492  -33.0587  -45.7291 H         1 UNK         0.1412 
     73 H73        16.4384  -29.0708  -45.3365 H         1 UNK         0.1426 
     74 H74        17.2296  -30.2997  -47.6701 H         1 UNK         0.0716 
     75 H75        18.5242  -31.4399  -47.3918 H         1 UNK         0.0716 
     76 H76        20.9506  -30.7691  -46.6599 H         1 UNK         0.0695 
     77 H77        20.2444  -30.6110  -45.0650 H         1 UNK         0.0695 
     78 H78        21.7867  -28.3320  -46.3883 H         1 UNK         0.0983 
     79 H79        20.5070  -28.5705  -43.8252 H         1 UNK         0.3095 
     80 H80        21.2934  -26.8999  -41.9927 H         1 UNK         0.0454 
     81 H81        21.8062  -24.2536  -43.4545 H         1 UNK         0.0851 
     82 H82        22.9214  -25.0546  -42.3536 H         1 UNK         0.0851 
     83 H83        21.4066  -24.4182  -41.7452 H         1 UNK         0.0851 
     84 H84        19.5289  -26.2079  -44.1623 H         1 UNK         0.2976 
     85 H85        22.9958  -29.5380  -43.3548 H         1 UNK         0.3116 
     86 H86        25.3929  -30.6819  -44.7564 H         1 UNK         0.0646 
     87 H87        24.3744  -31.0482  -41.8988 H         1 UNK         0.0847 
     88 H88        25.8918  -31.6899  -42.5135 H         1 UNK         0.0847 
     89 H89        24.3762  -32.2587  -43.1763 H         1 UNK         0.0847 
     90 H90        24.3787  -27.7560  -43.8682 H         1 UNK         0.3040 
     91 H91        25.1713  -25.8129  -43.2916 H         1 UNK         0.1015 
     92 H92        27.9960  -26.9737  -43.5515 H         1 UNK         0.0786 
     93 H93        27.5751  -25.2711  -43.4849 H         1 UNK         0.0786 
     94 H94        27.0496  -26.2460  -44.8474 H         1 UNK         0.0786 
     95 H95        27.1115  -28.2217  -41.5410 H         1 UNK         0.3172 
     96 H96        27.1643  -26.6814  -39.0364 H         1 UNK         0.0595 
     97 H97        28.1477  -29.5074  -39.7190 H         1 UNK         0.0839 
     98 H98        28.4739  -28.6442  -38.2221 H         1 UNK         0.0839 
     99 H99        29.1307  -28.0429  -39.7348 H         1 UNK         0.0839 
    100 H100       24.8863  -28.7746  -40.5278 H         1 UNK         0.2998 
    101 H101       23.3298  -28.9864  -38.0811 H         1 UNK         0.0822 
    102 H102       24.6320  -31.1305  -38.0257 H         1 UNK         0.0787 
    103 H103       22.9400  -31.4460  -38.3679 H         1 UNK         0.0787 
    104 H104       24.1182  -31.5064  -39.6675 H         1 UNK         0.0787 
    105 H105       21.1523  -29.5425  -38.5284 H         1 UNK         0.3055 
    106 H106       20.0134  -28.0540  -40.5877 H         1 UNK         0.1106 
    107 H107       18.7652  -30.1883  -38.7819 H         1 UNK         0.0828 
    108 H108       17.8599  -29.0458  -39.7597 H         1 UNK         0.0828 
    109 H109       18.8740  -28.4579  -38.4584 H         1 UNK         0.0828 
    110 H110       20.1543  -31.6039  -40.2866 H         1 UNK         0.2931 
    111 H111       19.4007  -31.9362  -43.1354 H         1 UNK         0.0412 
    112 H112       20.9064  -32.8647  -44.5891 H         1 UNK         0.3472 
    113 H113       22.5400  -33.2618  -44.1260 H         1 UNK         0.3472 
    114 H114       18.1048  -33.1865  -41.2780 H         1 UNK         0.0970 
    115 H115       19.5431  -34.1237  -40.9963 H         1 UNK         0.0970 
    116 H116       16.4141  -34.7753  -44.2322 H         1 UNK         0.0612 
    117 H117       16.2334  -34.2526  -42.5766 H         1 UNK         0.0612 
@<TRIPOS>BOND
     1    1    2 1    
     2    1   62 1    
     3    1   63 1    
     4    1   64 1    
     5    2    3 2    
     6    2    4 am   BACKBONE|DICT|INTERRES
     7    4    5 1    
     8    4   65 1    
     9    5    6 1    
    10    5   25 1    
    11    5   66 1    
    12    6    7 1    
    13    6   67 1    
    14    6   68 1    
    15    7    8 1    
    16    8    9 1    
    17    8   69 1    
    18    8   70 1    
    19    9   10 ar   
    20    9   14 ar   
    21   10   11 ar   
    22   10   71 1    
    23   11   12 ar   
    24   11   61 1    
    25   12   13 ar   
    26   12   72 1    
    27   13   14 ar   
    28   13   15 1    
    29   14   73 1    
    30   15   16 1    
    31   15   74 1    
    32   15   75 1    
    33   16   17 1    
    34   17   18 1    
    35   17   76 1    
    36   17   77 1    
    37   18   19 1    
    38   18   27 1    
    39   18   78 1    
    40   19   20 am   BACKBONE|DICT|INTERRES
    41   19   79 1    
    42   20   21 2    
    43   20   22 1    
    44   22   23 1    
    45   22   24 1    
    46   22   80 1    
    47   23   81 1    
    48   23   82 1    
    49   23   83 1    
    50   24   25 am   BACKBONE|DICT|INTERRES
    51   24   84 1    
    52   25   26 2    
    53   27   28 2    
    54   27   29 am   BACKBONE|DICT|INTERRES
    55   29   30 1    
    56   29   85 1    
    57   30   31 1    
    58   30   32 1    
    59   30   86 1    
    60   31   87 1    
    61   31   88 1    
    62   31   89 1    
    63   32   33 2    
    64   32   34 am   BACKBONE|DICT|INTERRES
    65   34   35 1    
    66   34   90 1    
    67   35   36 1    
    68   35   37 1    
    69   35   91 1    
    70   36   92 1    
    71   36   93 1    
    72   36   94 1    
    73   37   38 2    
    74   37   39 am   BACKBONE|DICT|INTERRES
    75   39   40 1    
    76   39   95 1    
    77   40   41 1    
    78   40   42 1    
    79   40   96 1    
    80   41   97 1    
    81   41   98 1    
    82   41   99 1    
    83   42   43 2    
    84   42   44 am   BACKBONE|DICT|INTERRES
    85   44   45 1    
    86   44  100 1    
    87   45   46 1    
    88   45   47 1    
    89   45  101 1    
    90   46  102 1    
    91   46  103 1    
    92   46  104 1    
    93   47   48 2    
    94   47   49 am   BACKBONE|DICT|INTERRES
    95   49   50 1    
    96   49  105 1    
    97   50   51 1    
    98   50   52 1    
    99   50  106 1    
   100   51  107 1    
   101   51  108 1    
   102   51  109 1    
   103   52   53 2    
   104   52   54 am   BACKBONE|DICT|INTERRES
   105   54   55 1    
   106   54  110 1    
   107   55   56 1    
   108   55   59 1    
   109   55  111 1    
   110   56   57 am   BACKBONE|DICT|INTERRES
   111   56   58 2    
   112   57  112 1    
   113   57  113 1    
   114   59   60 1    
   115   59  114 1    
   116   59  115 1    
   117   60   61 1    
   118   61  116 1    
   119   61  117 1    
@<TRIPOS>SUBSTRUCTURE
     1 UNK         1 GROUP             0       ****    0 ROOT    
