@<TRIPOS>MOLECULE
3R8
117   119    1
SMALL
USER_CHARGES


@<TRIPOS>ATOM
      1 CA         18.2623  -27.8199  -40.2421 C.3       0 UNK        -0.2013 
      2 C          17.5830  -26.6951  -41.0109 C.2       0 UNK         0.4866 
      3 O          17.2660  -25.6576  -40.4297 O.2       0 UNK        -0.5176 
      4 N          17.3609  -26.8979  -42.3157 N.am      1 UNK        -0.4884 
      5 CA         16.7843  -25.9136  -43.2377 C.3       1 UNK         0.0853 
      6 C6         16.2815  -26.5310  -44.5692 C.3       10 UNK        -0.0849 
      7 S7         14.9727  -27.7913  -44.3802 S.3       10 UNK        -0.2776 
      8 C8         15.8347  -29.3091  -43.8276 C.3       10 UNK         0.0316 
      9 C9         17.1837  -29.5680  -44.4944 C.ar      10 UNK        -0.0863 
     10 C10        18.3098  -29.8331  -43.7073 C.ar      10 UNK        -0.1009 
     11 C11        19.5426  -30.1198  -44.2998 C.ar      10 UNK        -0.0712 
     12 C12        19.6446  -30.1447  -45.6935 C.ar      10 UNK        -0.0894 
     13 C13        18.5326  -29.8661  -46.4947 C.ar      10 UNK        -0.0745 
     14 C14        17.3034  -29.5882  -45.8884 C.ar      10 UNK        -0.0972 
     15 C15        18.6445  -29.8977  -48.0139 C.3       10 UNK         0.0209 
     16 S16        19.1536  -28.2894  -48.7093 S.3       10 UNK        -0.2568 
     17 C17        20.9560  -28.3002  -48.4050 C.3       10 UNK        -0.0983 
     18 CA         21.4465  -27.1647  -47.4634 C.3       3 UNK         0.0876 
     19 N          20.6437  -27.0825  -46.2356 N.am      3 UNK        -0.4424 
     20 C          20.4517  -25.9786  -45.5080 C.2       2 UNK         0.4918 
     21 O          20.9069  -24.8722  -45.8068 O.2       2 UNK        -0.4875 
     22 CA         19.7278  -26.1622  -44.1738 C.3       2 UNK         0.0481 
     23 CB         20.7643  -26.4572  -43.0797 C.3       2 UNK        -0.1831 
     24 N          19.0230  -24.9219  -43.8476 N.am      2 UNK        -0.4498 
     25 C          17.7377  -24.7241  -43.5091 C.2       1 UNK         0.5027 
     26 O          17.2873  -23.5846  -43.3984 O.2       1 UNK        -0.4969 
     27 C          22.9498  -27.3115  -47.1103 C.2       3 UNK         0.5005 
     28 O          23.6249  -28.1885  -47.6539 O.2       3 UNK        -0.5279 
     29 N          23.4197  -26.4844  -46.1604 N.am      4 UNK        -0.4463 
     30 CA         24.6336  -26.6157  -45.3401 C.3       4 UNK         0.0283 
     31 CB         25.9077  -26.7062  -46.2061 C.3       4 UNK        -0.1875 
     32 C          24.5373  -27.7874  -44.3388 C.2       4 UNK         0.4949 
     33 O          23.6591  -28.6419  -44.4612 O.2       4 UNK        -0.5039 
     34 N          25.4435  -27.7920  -43.3487 N.am      5 UNK        -0.4663 
     35 CA         25.5982  -28.8150  -42.3002 C.3       5 UNK         0.0242 
     36 CB         26.1403  -30.1277  -42.9066 C.3       5 UNK        -0.1982 
     37 C          24.3226  -29.0350  -41.4592 C.2       5 UNK         0.5017 
     38 O          23.9087  -30.1763  -41.2508 O.2       5 UNK        -0.5012 
     39 N          23.7279  -27.9306  -40.9813 N.am      6 UNK        -0.4439 
     40 CA         22.4689  -27.8893  -40.2223 C.3       6 UNK         0.0297 
     41 CB         22.1804  -26.4418  -39.7895 C.3       6 UNK        -0.2006 
     42 C          22.4184  -28.8186  -38.9970 C.2       6 UNK         0.4892 
     43 O          21.3764  -29.4207  -38.7396 O.2       6 UNK        -0.5089 
     44 N          23.5498  -28.9341  -38.2879 N.am      7 UNK        -0.4243 
     45 CA         23.7166  -29.7891  -37.1114 C.3       7 UNK         0.0196 
     46 CB         25.0391  -29.4333  -36.4132 C.3       7 UNK        -0.2007 
     47 C          23.6641  -31.2954  -37.4226 C.2       7 UNK         0.5020 
     48 O          23.2764  -32.0695  -36.5474 O.2       7 UNK        -0.5147 
     49 N          24.0406  -31.6950  -38.6466 N.am      8 UNK        -0.4734 
     50 CA         24.0063  -33.0919  -39.0924 C.3       8 UNK         0.0238 
     51 CB         24.9307  -33.2716  -40.3080 C.3       8 UNK        -0.1912 
     52 C          22.5816  -33.5669  -39.4210 C.2       8 UNK         0.5038 
     53 O          22.2987  -34.7576  -39.2822 O.2       8 UNK        -0.5046 
     54 N          21.7178  -32.6324  -39.8359 N.am      9 UNK        -0.4200 
     55 CA         20.2987  -32.8700  -40.1400 C.3       9 UNK         0.0839 
     56 C          19.3704  -32.8297  -38.8910 C.2       9 UNK         0.5513 
     57 N          19.8681  -32.5516  -37.6916 N.am      9 UNK        -0.7519 
     58 O          18.1723  -33.0720  -39.0109 O.2       9 UNK        -0.4960 
     59 C59        19.7882  -31.9278  -41.2611 C.3       10 UNK        -0.0876 
     60 S60        20.7514  -32.1120  -42.8027 S.3       10 UNK        -0.2414 
     61 C61        20.7661  -30.4105  -43.4416 C.3       10 UNK         0.0169 
     62 H62        18.8365  -27.4187  -39.4072 H         1 UNK         0.0903 
     63 H63        18.9495  -28.3820  -40.8728 H         1 UNK         0.0903 
     64 H64        17.5179  -28.5071  -39.8409 H         1 UNK         0.0903 
     65 H65        17.6350  -27.7694  -42.7426 H         1 UNK         0.3096 
     66 H66        15.9092  -25.4940  -42.7355 H         1 UNK         0.1121 
     67 H67        17.0912  -26.9352  -45.1730 H         1 UNK         0.0849 
     68 H68        15.8475  -25.7417  -45.1864 H         1 UNK         0.0849 
     69 H69        15.9392  -29.2690  -42.7426 H         1 UNK         0.0865 
     70 H70        15.1846  -30.1623  -44.0260 H         1 UNK         0.0865 
     71 H71        18.2252  -29.8488  -42.6305 H         1 UNK         0.1346 
     72 H72        20.5927  -30.3899  -46.1516 H         1 UNK         0.1412 
     73 H73        16.4347  -29.3893  -46.5018 H         1 UNK         0.1426 
     74 H74        19.3399  -30.6772  -48.3290 H         1 UNK         0.0716 
     75 H75        17.6801  -30.1690  -48.4462 H         1 UNK         0.0716 
     76 H76        21.4507  -28.2124  -49.3739 H         1 UNK         0.0695 
     77 H77        21.2473  -29.2771  -48.0186 H         1 UNK         0.0695 
     78 H78        21.3424  -26.2237  -48.0084 H         1 UNK         0.0983 
     79 H79        20.2537  -27.9576  -45.9144 H         1 UNK         0.3095 
     80 H80        19.0577  -27.0125  -44.2659 H         1 UNK         0.0454 
     81 H81        20.2929  -26.5737  -42.1066 H         1 UNK         0.0851 
     82 H82        21.4996  -25.6560  -42.9966 H         1 UNK         0.0851 
     83 H83        21.3119  -27.3763  -43.2919 H         1 UNK         0.0851 
     84 H84        19.5719  -24.0978  -44.0529 H         1 UNK         0.2976 
     85 H85        22.7607  -25.7882  -45.8295 H         1 UNK         0.3116 
     86 H86        24.6904  -25.6976  -44.7532 H         1 UNK         0.0646 
     87 H87        25.9339  -25.9188  -46.9592 H         1 UNK         0.0847 
     88 H88        26.8052  -26.5981  -45.5965 H         1 UNK         0.0847 
     89 H89        25.9862  -27.6648  -46.7196 H         1 UNK         0.0847 
     90 H90        26.1127  -27.0345  -43.3168 H         1 UNK         0.3040 
     91 H91        26.3539  -28.4409  -41.6075 H         1 UNK         0.1015 
     92 H92        25.4182  -30.5896  -43.5810 H         1 UNK         0.0786 
     93 H93        26.3667  -30.8557  -42.1265 H         1 UNK         0.0786 
     94 H94        27.0601  -29.9572  -43.4659 H         1 UNK         0.0786 
     95 H95        24.1470  -27.0398  -41.2063 H         1 UNK         0.3172 
     96 H96        21.6781  -28.2123  -40.9001 H         1 UNK         0.0595 
     97 H97        22.1623  -25.7586  -40.6375 H         1 UNK         0.0839 
     98 H98        22.9293  -26.0741  -39.0868 H         1 UNK         0.0839 
     99 H99        21.2103  -26.3682  -39.2960 H         1 UNK         0.0839 
    100 H100       24.3549  -28.4021  -38.5844 H         1 UNK         0.2998 
    101 H101       22.8971  -29.5717  -36.4227 H         1 UNK         0.0822 
    102 H102       25.1794  -30.0348  -35.5137 H         1 UNK         0.0787 
    103 H103       25.8987  -29.6109  -37.0609 H         1 UNK         0.0787 
    104 H104       25.0581  -28.3873  -36.1065 H         1 UNK         0.0787 
    105 H105       24.2759  -31.0003  -39.3469 H         1 UNK         0.3055 
    106 H106       24.3841  -33.7229  -38.2843 H         1 UNK         0.1106 
    107 H107       25.9463  -32.9412  -40.0898 H         1 UNK         0.0828 
    108 H108       24.9870  -34.3213  -40.5993 H         1 UNK         0.0828 
    109 H109       24.5743  -32.7159  -41.1758 H         1 UNK         0.0828 
    110 H110       22.0388  -31.6775  -39.9147 H         1 UNK         0.2931 
    111 H111       20.2097  -33.8875  -40.5257 H         1 UNK         0.0412 
    112 H112       20.8493  -32.3479  -37.5785 H         1 UNK         0.3472 
    113 H113       19.2531  -32.5344  -36.8934 H         1 UNK         0.3472 
    114 H114       18.7432  -32.1377  -41.4971 H         1 UNK         0.0970 
    115 H115       19.8257  -30.8929  -40.9172 H         1 UNK         0.0970 
    116 H116       20.8393  -29.6960  -42.6220 H         1 UNK         0.0612 
    117 H117       21.6738  -30.2828  -44.0316 H         1 UNK         0.0612 
@<TRIPOS>BOND
     1    1    2 1    
     2    1   62 1    
     3    1   63 1    
     4    1   64 1    
     5    2    3 2    
     6    2    4 am   BACKBONE|DICT|INTERRES
     7    4    5 1    
     8    4   65 1    
     9    5    6 1    
    10    5   25 1    
    11    5   66 1    
    12    6    7 1    
    13    6   67 1    
    14    6   68 1    
    15    7    8 1    
    16    8    9 1    
    17    8   69 1    
    18    8   70 1    
    19    9   10 ar   
    20    9   14 ar   
    21   10   11 ar   
    22   10   71 1    
    23   11   12 ar   
    24   11   61 1    
    25   12   13 ar   
    26   12   72 1    
    27   13   14 ar   
    28   13   15 1    
    29   14   73 1    
    30   15   16 1    
    31   15   74 1    
    32   15   75 1    
    33   16   17 1    
    34   17   18 1    
    35   17   76 1    
    36   17   77 1    
    37   18   19 1    
    38   18   27 1    
    39   18   78 1    
    40   19   20 am   BACKBONE|DICT|INTERRES
    41   19   79 1    
    42   20   21 2    
    43   20   22 1    
    44   22   23 1    
    45   22   24 1    
    46   22   80 1    
    47   23   81 1    
    48   23   82 1    
    49   23   83 1    
    50   24   25 am   BACKBONE|DICT|INTERRES
    51   24   84 1    
    52   25   26 2    
    53   27   28 2    
    54   27   29 am   BACKBONE|DICT|INTERRES
    55   29   30 1    
    56   29   85 1    
    57   30   31 1    
    58   30   32 1    
    59   30   86 1    
    60   31   87 1    
    61   31   88 1    
    62   31   89 1    
    63   32   33 2    
    64   32   34 am   BACKBONE|DICT|INTERRES
    65   34   35 1    
    66   34   90 1    
    67   35   36 1    
    68   35   37 1    
    69   35   91 1    
    70   36   92 1    
    71   36   93 1    
    72   36   94 1    
    73   37   38 2    
    74   37   39 am   BACKBONE|DICT|INTERRES
    75   39   40 1    
    76   39   95 1    
    77   40   41 1    
    78   40   42 1    
    79   40   96 1    
    80   41   97 1    
    81   41   98 1    
    82   41   99 1    
    83   42   43 2    
    84   42   44 am   BACKBONE|DICT|INTERRES
    85   44   45 1    
    86   44  100 1    
    87   45   46 1    
    88   45   47 1    
    89   45  101 1    
    90   46  102 1    
    91   46  103 1    
    92   46  104 1    
    93   47   48 2    
    94   47   49 am   BACKBONE|DICT|INTERRES
    95   49   50 1    
    96   49  105 1    
    97   50   51 1    
    98   50   52 1    
    99   50  106 1    
   100   51  107 1    
   101   51  108 1    
   102   51  109 1    
   103   52   53 2    
   104   52   54 am   BACKBONE|DICT|INTERRES
   105   54   55 1    
   106   54  110 1    
   107   55   56 1    
   108   55   59 1    
   109   55  111 1    
   110   56   57 am   BACKBONE|DICT|INTERRES
   111   56   58 2    
   112   57  112 1    
   113   57  113 1    
   114   59   60 1    
   115   59  114 1    
   116   59  115 1    
   117   60   61 1    
   118   61  116 1    
   119   61  117 1    
@<TRIPOS>SUBSTRUCTURE
     1 UNK         1 GROUP             0       ****    0 ROOT    
