@<TRIPOS>MOLECULE
3R8
117   119    1
SMALL
USER_CHARGES


@<TRIPOS>ATOM
      1 CA         16.2864  -25.0680  -46.3498 C.3       0 UNK        -0.2013 
      2 C          17.7490  -25.1053  -46.7656 C.2       0 UNK         0.4866 
      3 O          18.2725  -24.0997  -47.2452 O.2       0 UNK        -0.5176 
      4 N          18.4047  -26.2620  -46.6024 N.am      1 UNK        -0.4884 
      5 CA         19.8023  -26.5033  -46.9885 C.3       1 UNK         0.0853 
      6 C6         20.1695  -28.0129  -46.9761 C.3       10 UNK        -0.0849 
      7 S7         18.9717  -29.0463  -47.8876 S.3       10 UNK        -0.2776 
      8 C8         18.9067  -30.5563  -46.8573 C.3       10 UNK         0.0316 
      9 C9         18.3790  -30.3606  -45.4337 C.ar      10 UNK        -0.0863 
     10 C10        18.8941  -31.1581  -44.4056 C.ar      10 UNK        -0.1009 
     11 C11        18.4065  -31.0465  -43.1003 C.ar      10 UNK        -0.0712 
     12 C12        17.4051  -30.1172  -42.8161 C.ar      10 UNK        -0.0894 
     13 C13        16.8936  -29.2983  -43.8247 C.ar      10 UNK        -0.0745 
     14 C14        17.3666  -29.4389  -45.1345 C.ar      10 UNK        -0.0972 
     15 C15        15.8253  -28.2674  -43.4969 C.3       10 UNK         0.0209 
     16 S16        16.5599  -26.6416  -43.1352 S.3       10 UNK        -0.2568 
     17 C17        17.2013  -26.8436  -41.4337 C.3       10 UNK        -0.0983 
     18 CA         18.7290  -27.1059  -41.3752 C.3       3 UNK         0.0876 
     19 N          19.4853  -26.1559  -42.1919 N.am      3 UNK        -0.4424 
     20 C          20.7976  -26.2221  -42.4507 C.2       2 UNK         0.4918 
     21 O          21.5710  -27.0142  -41.9104 O.2       2 UNK        -0.4875 
     22 CA         21.2713  -25.3444  -43.6162 C.3       2 UNK         0.0481 
     23 CB         22.8065  -25.3765  -43.7791 C.3       2 UNK        -0.1831 
     24 N          20.5617  -25.8817  -44.7773 N.am      2 UNK        -0.4498 
     25 C          20.7710  -25.7131  -46.0875 C.2       1 UNK         0.5027 
     26 O          21.6379  -24.9944  -46.5856 O.2       1 UNK        -0.4969 
     27 C          19.2413  -27.1347  -39.9222 C.2       3 UNK         0.5005 
     28 O          19.2004  -26.1041  -39.2462 O.2       3 UNK        -0.5279 
     29 N          19.7351  -28.3060  -39.4933 N.am      4 UNK        -0.4463 
     30 CA         20.3834  -28.5822  -38.2043 C.3       4 UNK         0.0283 
     31 CB         19.3975  -28.3941  -37.0314 C.3       4 UNK        -0.1875 
     32 C          21.7133  -27.8244  -37.9963 C.2       4 UNK         0.4949 
     33 O          22.1351  -27.6461  -36.8523 O.2       4 UNK        -0.5039 
     34 N          22.3599  -27.4107  -39.0930 N.am      5 UNK        -0.4663 
     35 CA         23.6541  -26.7361  -39.1156 C.3       5 UNK         0.0242 
     36 CB         23.4423  -25.2383  -39.4226 C.3       5 UNK        -0.1982 
     37 C          24.5659  -27.4762  -40.1072 C.2       5 UNK         0.5017 
     38 O          24.7633  -28.6824  -39.9500 O.2       5 UNK        -0.5012 
     39 N          25.1163  -26.7647  -41.0998 N.am      6 UNK        -0.4439 
     40 CA         26.0411  -27.2747  -42.1180 C.3       6 UNK         0.0297 
     41 CB         26.8526  -26.0916  -42.6797 C.3       6 UNK        -0.2006 
     42 C          25.3384  -28.0880  -43.2276 C.2       6 UNK         0.4892 
     43 O          25.4908  -27.7763  -44.4102 O.2       6 UNK        -0.5089 
     44 N          24.5868  -29.1174  -42.8309 N.am      7 UNK        -0.4243 
     45 CA         23.9030  -30.0716  -43.6992 C.3       7 UNK         0.0196 
     46 CB         22.4538  -29.6101  -43.9394 C.3       7 UNK        -0.2007 
     47 C          23.9587  -31.4568  -43.0434 C.2       7 UNK         0.5020 
     48 O          24.2773  -31.5672  -41.8561 O.2       7 UNK        -0.5147 
     49 N          23.6452  -32.5007  -43.8206 N.am      8 UNK        -0.4734 
     50 CA         23.6838  -33.9119  -43.4123 C.3       8 UNK         0.0238 
     51 CB         23.7875  -34.7884  -44.6754 C.3       8 UNK        -0.1912 
     52 C          22.5012  -34.3177  -42.5054 C.2       8 UNK         0.5038 
     53 O          21.7946  -35.2820  -42.8061 O.2       8 UNK        -0.5046 
     54 N          22.3016  -33.5647  -41.4198 N.am      9 UNK        -0.4200 
     55 CA         21.2266  -33.7483  -40.4334 C.3       9 UNK         0.0839 
     56 C          21.5706  -34.7496  -39.2939 C.2       9 UNK         0.5513 
     57 N          22.7810  -35.2906  -39.2221 N.am      9 UNK        -0.7519 
     58 O          20.7171  -35.0502  -38.4634 O.2       9 UNK        -0.4960 
     59 C59        20.7318  -32.3902  -39.8628 C.3       10 UNK        -0.0876 
     60 S60        20.3336  -31.1418  -41.1358 S.3       10 UNK        -0.2414 
     61 C61        18.9487  -31.9394  -41.9985 C.3       10 UNK         0.0169 
     62 H62        15.9038  -26.0613  -46.1164 H         1 UNK         0.0903 
     63 H63        16.1628  -24.4387  -45.4688 H         1 UNK         0.0903 
     64 H64        15.6771  -24.6542  -47.1528 H         1 UNK         0.0903 
     65 H65        17.9170  -27.0594  -46.2231 H         1 UNK         0.3096 
     66 H66        19.9302  -26.1337  -48.0087 H         1 UNK         0.1121 
     67 H67        21.1555  -28.1649  -47.4195 H         1 UNK         0.0849 
     68 H68        20.2423  -28.3851  -45.9526 H         1 UNK         0.0849 
     69 H69        18.2713  -31.2876  -47.3584 H         1 UNK         0.0865 
     70 H70        19.9079  -30.9897  -46.8313 H         1 UNK         0.0865 
     71 H71        19.6683  -31.8821  -44.6212 H         1 UNK         0.1346 
     72 H72        17.0301  -30.0263  -41.8059 H         1 UNK         0.1412 
     73 H73        16.9396  -28.8329  -45.9204 H         1 UNK         0.1426 
     74 H74        15.2124  -28.5950  -42.6558 H         1 UNK         0.0716 
     75 H75        15.1450  -28.1632  -44.3435 H         1 UNK         0.0716 
     76 H76        16.6567  -27.6458  -40.9330 H         1 UNK         0.0695 
     77 H77        16.9541  -25.9299  -40.8897 H         1 UNK         0.0695 
     78 H78        18.9136  -28.0866  -41.8163 H         1 UNK         0.0983 
     79 H79        18.9277  -25.4570  -42.6608 H         1 UNK         0.3095 
     80 H80        20.9452  -24.3185  -43.4385 H         1 UNK         0.0454 
     81 H81        23.1535  -26.3599  -44.0922 H         1 UNK         0.0851 
     82 H82        23.3064  -25.1327  -42.8424 H         1 UNK         0.0851 
     83 H83        23.1508  -24.6501  -44.5140 H         1 UNK         0.0851 
     84 H84        19.8009  -26.4997  -44.5285 H         1 UNK         0.2976 
     85 H85        19.7537  -29.0819  -40.1449 H         1 UNK         0.3116 
     86 H86        20.6524  -29.6389  -38.2316 H         1 UNK         0.0646 
     87 H87        19.1410  -27.3452  -36.8808 H         1 UNK         0.0847 
     88 H88        19.8268  -28.7580  -36.0972 H         1 UNK         0.0847 
     89 H89        18.4728  -28.9466  -37.1966 H         1 UNK         0.0847 
     90 H90        21.9546  -27.5936  -40.0066 H         1 UNK         0.3040 
     91 H91        24.1414  -26.8184  -38.1416 H         1 UNK         0.1015 
     92 H92        22.9566  -25.0812  -40.3857 H         1 UNK         0.0786 
     93 H93        24.3863  -24.6917  -39.4221 H         1 UNK         0.0786 
     94 H94        22.8108  -24.7757  -38.6637 H         1 UNK         0.0786 
     95 H95        24.8737  -25.7876  -41.1660 H         1 UNK         0.3172 
     96 H96        26.7457  -27.9522  -41.6311 H         1 UNK         0.0595 
     97 H97        26.2139  -25.3701  -43.1910 H         1 UNK         0.0839 
     98 H98        27.5972  -26.4345  -43.3995 H         1 UNK         0.0839 
     99 H99        27.3901  -25.5661  -41.8901 H         1 UNK         0.0839 
    100 H100       24.5492  -29.3364  -41.8377 H         1 UNK         0.2998 
    101 H101       24.4261  -30.1373  -44.6557 H         1 UNK         0.0822 
    102 H102       22.4258  -28.6498  -44.4535 H         1 UNK         0.0787 
    103 H103       21.9021  -30.3216  -44.5542 H         1 UNK         0.0787 
    104 H104       21.9100  -29.4967  -43.0018 H         1 UNK         0.0787 
    105 H105       23.3606  -32.3221  -44.7733 H         1 UNK         0.3055 
    106 H106       24.5919  -34.0735  -42.8266 H         1 UNK         0.1106 
    107 H107       23.8786  -35.8437  -44.4142 H         1 UNK         0.0828 
    108 H108       22.9081  -34.6849  -45.3123 H         1 UNK         0.0828 
    109 H109       24.6650  -34.5298  -45.2684 H         1 UNK         0.0828 
    110 H110       22.9290  -32.7796  -41.2699 H         1 UNK         0.2931 
    111 H111       20.3800  -34.2051  -40.9471 H         1 UNK         0.0412 
    112 H112       23.4885  -35.0509  -39.8980 H         1 UNK         0.3472 
    113 H113       22.9890  -35.9421  -38.4812 H         1 UNK         0.3472 
    114 H114       19.8474  -32.5363  -39.2395 H         1 UNK         0.0970 
    115 H115       21.4932  -31.9605  -39.2092 H         1 UNK         0.0970 
    116 H116       19.2783  -32.8854  -42.4292 H         1 UNK         0.0612 
    117 H117       18.1608  -32.1783  -41.2825 H         1 UNK         0.0612 
@<TRIPOS>BOND
     1    1    2 1    
     2    1   62 1    
     3    1   63 1    
     4    1   64 1    
     5    2    3 2    
     6    2    4 am   BACKBONE|DICT|INTERRES
     7    4    5 1    
     8    4   65 1    
     9    5    6 1    
    10    5   25 1    
    11    5   66 1    
    12    6    7 1    
    13    6   67 1    
    14    6   68 1    
    15    7    8 1    
    16    8    9 1    
    17    8   69 1    
    18    8   70 1    
    19    9   10 ar   
    20    9   14 ar   
    21   10   11 ar   
    22   10   71 1    
    23   11   12 ar   
    24   11   61 1    
    25   12   13 ar   
    26   12   72 1    
    27   13   14 ar   
    28   13   15 1    
    29   14   73 1    
    30   15   16 1    
    31   15   74 1    
    32   15   75 1    
    33   16   17 1    
    34   17   18 1    
    35   17   76 1    
    36   17   77 1    
    37   18   19 1    
    38   18   27 1    
    39   18   78 1    
    40   19   20 am   BACKBONE|DICT|INTERRES
    41   19   79 1    
    42   20   21 2    
    43   20   22 1    
    44   22   23 1    
    45   22   24 1    
    46   22   80 1    
    47   23   81 1    
    48   23   82 1    
    49   23   83 1    
    50   24   25 am   BACKBONE|DICT|INTERRES
    51   24   84 1    
    52   25   26 2    
    53   27   28 2    
    54   27   29 am   BACKBONE|DICT|INTERRES
    55   29   30 1    
    56   29   85 1    
    57   30   31 1    
    58   30   32 1    
    59   30   86 1    
    60   31   87 1    
    61   31   88 1    
    62   31   89 1    
    63   32   33 2    
    64   32   34 am   BACKBONE|DICT|INTERRES
    65   34   35 1    
    66   34   90 1    
    67   35   36 1    
    68   35   37 1    
    69   35   91 1    
    70   36   92 1    
    71   36   93 1    
    72   36   94 1    
    73   37   38 2    
    74   37   39 am   BACKBONE|DICT|INTERRES
    75   39   40 1    
    76   39   95 1    
    77   40   41 1    
    78   40   42 1    
    79   40   96 1    
    80   41   97 1    
    81   41   98 1    
    82   41   99 1    
    83   42   43 2    
    84   42   44 am   BACKBONE|DICT|INTERRES
    85   44   45 1    
    86   44  100 1    
    87   45   46 1    
    88   45   47 1    
    89   45  101 1    
    90   46  102 1    
    91   46  103 1    
    92   46  104 1    
    93   47   48 2    
    94   47   49 am   BACKBONE|DICT|INTERRES
    95   49   50 1    
    96   49  105 1    
    97   50   51 1    
    98   50   52 1    
    99   50  106 1    
   100   51  107 1    
   101   51  108 1    
   102   51  109 1    
   103   52   53 2    
   104   52   54 am   BACKBONE|DICT|INTERRES
   105   54   55 1    
   106   54  110 1    
   107   55   56 1    
   108   55   59 1    
   109   55  111 1    
   110   56   57 am   BACKBONE|DICT|INTERRES
   111   56   58 2    
   112   57  112 1    
   113   57  113 1    
   114   59   60 1    
   115   59  114 1    
   116   59  115 1    
   117   60   61 1    
   118   61  116 1    
   119   61  117 1    
@<TRIPOS>SUBSTRUCTURE
     1 UNK         1 GROUP             0       ****    0 ROOT    
