@<TRIPOS>MOLECULE
3R8
117   119    1
SMALL
USER_CHARGES


@<TRIPOS>ATOM
      1 CA         14.4366  -25.8660  -43.4656 C.3       0 UNK        -0.2013 
      2 C          15.8977  -26.1981  -43.7290 C.2       0 UNK         0.4866 
      3 O          16.2357  -26.6425  -44.8266 O.2       0 UNK        -0.5176 
      4 N          16.7628  -25.9939  -42.7282 N.am      1 UNK        -0.4884 
      5 CA         18.2087  -26.2329  -42.8052 C.3       1 UNK         0.0853 
      6 C6         18.8786  -26.2212  -41.4072 C.3       10 UNK        -0.0849 
      7 S7         18.0553  -27.3094  -40.1926 S.3       10 UNK        -0.2776 
      8 C8         19.1373  -28.7729  -40.1721 C.3       10 UNK         0.0316 
      9 C9         18.9904  -29.6205  -41.4278 C.ar      10 UNK        -0.0863 
     10 C10        17.8150  -30.3471  -41.6403 C.ar      10 UNK        -0.1009 
     11 C11        17.6655  -31.1468  -42.7768 C.ar      10 UNK        -0.0712 
     12 C12        18.7131  -31.2273  -43.6994 C.ar      10 UNK        -0.0894 
     13 C13        19.8980  -30.5136  -43.4938 C.ar      10 UNK        -0.0745 
     14 C14        20.0297  -29.7052  -42.3601 C.ar      10 UNK        -0.0972 
     15 C15        21.0302  -30.6061  -44.5040 C.3       10 UNK         0.0209 
     16 S16        20.6540  -29.5949  -45.9644 S.3       10 UNK        -0.2568 
     17 C17        22.3184  -29.2372  -46.6424 C.3       10 UNK        -0.0983 
     18 CA         22.8816  -27.8211  -46.3074 C.3       3 UNK         0.0876 
     19 N          21.8179  -26.8392  -46.0835 N.am      3 UNK        -0.4424 
     20 C          21.9612  -25.5355  -45.8136 C.2       2 UNK         0.4918 
     21 O          23.0357  -24.9352  -45.8508 O.2       2 UNK        -0.4875 
     22 CA         20.6892  -24.7927  -45.3928 C.3       2 UNK         0.0481 
     23 CB         19.8754  -24.3666  -46.6303 C.3       2 UNK        -0.1831 
     24 N          19.8922  -25.6274  -44.4878 N.am      2 UNK        -0.4498 
     25 C          18.8829  -25.1921  -43.7257 C.2       1 UNK         0.5027 
     26 O          18.4942  -24.0205  -43.7063 O.2       1 UNK        -0.4969 
     27 C          23.8680  -27.8345  -45.1198 C.2       3 UNK         0.5005 
     28 O          23.4740  -28.1809  -44.0048 O.2       3 UNK        -0.5279 
     29 N          25.1082  -27.3884  -45.3817 N.am      4 UNK        -0.4463 
     30 CA         26.2000  -27.1682  -44.4203 C.3       4 UNK         0.0283 
     31 CB         26.6922  -28.5125  -43.8427 C.3       4 UNK        -0.1875 
     32 C          25.8556  -26.1476  -43.3126 C.2       4 UNK         0.4949 
     33 O          26.4098  -26.2324  -42.2165 O.2       4 UNK        -0.5039 
     34 N          24.9253  -25.2233  -43.6008 N.am      5 UNK        -0.4663 
     35 CA         24.2317  -24.2986  -42.6920 C.3       5 UNK         0.0242 
     36 CB         25.2004  -23.3677  -41.9354 C.3       5 UNK        -0.1982 
     37 C          23.2637  -25.0232  -41.7396 C.2       5 UNK         0.5017 
     38 O          22.0823  -24.6785  -41.7070 O.2       5 UNK        -0.5012 
     39 N          23.7649  -26.0295  -41.0177 N.am      6 UNK        -0.4439 
     40 CA         23.0027  -26.9561  -40.1922 C.3       6 UNK         0.0297 
     41 CB         22.7629  -26.3600  -38.7944 C.3       6 UNK        -0.2006 
     42 C          23.7685  -28.2811  -40.1177 C.2       6 UNK         0.4892 
     43 O          25.0010  -28.2801  -40.1416 O.2       6 UNK        -0.5089 
     44 N          23.0216  -29.3811  -40.0092 N.am      7 UNK        -0.4243 
     45 CA         23.4966  -30.7592  -39.9616 C.3       7 UNK         0.0196 
     46 CB         23.9971  -31.1959  -41.3549 C.3       7 UNK        -0.2007 
     47 C          22.3263  -31.6352  -39.4966 C.2       7 UNK         0.5020 
     48 O          21.2110  -31.1320  -39.3357 O.2       7 UNK        -0.5147 
     49 N          22.5841  -32.9335  -39.3077 N.am      8 UNK        -0.4734 
     50 CA         21.5366  -33.9376  -39.1156 C.3       8 UNK         0.0238 
     51 CB         22.1482  -35.2016  -38.4889 C.3       8 UNK        -0.1912 
     52 C          20.8793  -34.2620  -40.4675 C.2       8 UNK         0.5038 
     53 O          21.5979  -34.4540  -41.4521 O.2       8 UNK        -0.5046 
     54 N          19.5427  -34.3319  -40.4891 N.am      9 UNK        -0.4200 
     55 CA         18.7570  -34.6560  -41.6918 C.3       9 UNK         0.0839 
     56 C          18.8243  -36.1546  -42.1176 C.2       9 UNK         0.5513 
     57 N          19.2370  -37.0711  -41.2492 N.am      9 UNK        -0.7519 
     58 O          18.5123  -36.4921  -43.2563 O.2       9 UNK        -0.4960 
     59 C59        17.2929  -34.1517  -41.5601 C.3       10 UNK        -0.0876 
     60 S60        16.5686  -33.6949  -43.1737 S.3       10 UNK        -0.2414 
     61 C61        16.3571  -31.8911  -43.0173 C.3       10 UNK         0.0169 
     62 H62        13.8199  -26.7542  -43.6005 H         1 UNK         0.0903 
     63 H63        14.2786  -25.4943  -42.4533 H         1 UNK         0.0903 
     64 H64        14.0936  -25.1032  -44.1642 H         1 UNK         0.0903 
     65 H65        16.4334  -25.6248  -41.8478 H         1 UNK         0.3096 
     66 H66        18.3496  -27.2246  -43.2426 H         1 UNK         0.1121 
     67 H67        19.9290  -26.5025  -41.4906 H         1 UNK         0.0849 
     68 H68        18.8757  -25.2111  -40.9920 H         1 UNK         0.0849 
     69 H69        20.1696  -28.4611  -40.0213 H         1 UNK         0.0865 
     70 H70        18.8821  -29.3848  -39.3054 H         1 UNK         0.0865 
     71 H71        17.0111  -30.2772  -40.9202 H         1 UNK         0.1346 
     72 H72        18.6028  -31.8410  -44.5831 H         1 UNK         0.1412 
     73 H73        20.9451  -29.1504  -42.2053 H         1 UNK         0.1426 
     74 H74        21.1804  -31.6432  -44.8071 H         1 UNK         0.0716 
     75 H75        21.9660  -30.2779  -44.0525 H         1 UNK         0.0716 
     76 H76        22.2248  -29.3232  -47.7260 H         1 UNK         0.0695 
     77 H77        23.0127  -30.0310  -46.3585 H         1 UNK         0.0695 
     78 H78        23.4323  -27.4793  -47.1866 H         1 UNK         0.0983 
     79 H79        20.8919  -27.2416  -46.0751 H         1 UNK         0.3095 
     80 H80        20.9996  -23.8979  -44.8489 H         1 UNK         0.0454 
     81 H81        19.4815  -25.2275  -47.1716 H         1 UNK         0.0851 
     82 H82        20.4928  -23.7969  -47.3262 H         1 UNK         0.0851 
     83 H83        19.0332  -23.7308  -46.3584 H         1 UNK         0.0851 
     84 H84        20.2001  -26.5844  -44.3851 H         1 UNK         0.2976 
     85 H85        25.3131  -27.0976  -46.3285 H         1 UNK         0.3116 
     86 H86        27.0231  -26.7306  -44.9870 H         1 UNK         0.0646 
     87 H87        25.9457  -28.9658  -43.1899 H         1 UNK         0.0847 
     88 H88        27.5980  -28.3772  -43.2505 H         1 UNK         0.0847 
     89 H89        26.9269  -29.2254  -44.6328 H         1 UNK         0.0847 
     90 H90        24.5170  -25.2579  -44.5304 H         1 UNK         0.3040 
     91 H91        23.6167  -23.6673  -43.3361 H         1 UNK         0.1015 
     92 H92        25.8626  -22.8422  -42.6234 H         1 UNK         0.0786 
     93 H93        25.8201  -23.9065  -41.2185 H         1 UNK         0.0786 
     94 H94        24.6481  -22.6120  -41.3755 H         1 UNK         0.0786 
     95 H95        24.7432  -26.2810  -41.1535 H         1 UNK         0.3172 
     96 H96        22.0442  -27.1438  -40.6774 H         1 UNK         0.0595 
     97 H97        23.7026  -26.1416  -38.2855 H         1 UNK         0.0839 
     98 H98        22.2015  -27.0511  -38.1646 H         1 UNK         0.0839 
     99 H99        22.1888  -25.4349  -38.8504 H         1 UNK         0.0839 
    100 H100       22.0165  -29.3148  -39.9072 H         1 UNK         0.2998 
    101 H101       24.3032  -30.8360  -39.2296 H         1 UNK         0.0822 
    102 H102       24.8172  -30.5680  -41.7020 H         1 UNK         0.0787 
    103 H103       24.3659  -32.2219  -41.3439 H         1 UNK         0.0787 
    104 H104       23.2012  -31.1436  -42.0986 H         1 UNK         0.0787 
    105 H105       23.5138  -33.2805  -39.4956 H         1 UNK         0.3055 
    106 H106       20.7830  -33.5406  -38.4309 H         1 UNK         0.1106 
    107 H107       21.3829  -35.9577  -38.3095 H         1 UNK         0.0828 
    108 H108       22.9035  -35.6503  -39.1357 H         1 UNK         0.0828 
    109 H109       22.6160  -34.9821  -37.5290 H         1 UNK         0.0828 
    110 H110       19.0222  -34.1784  -39.6382 H         1 UNK         0.2931 
    111 H111       19.2200  -34.0939  -42.5061 H         1 UNK         0.0412 
    112 H112       19.4993  -36.8103  -40.3125 H         1 UNK         0.3472 
    113 H113       19.2842  -38.0365  -41.5362 H         1 UNK         0.3472 
    114 H114       17.2501  -33.2763  -40.9105 H         1 UNK         0.0970 
    115 H115       16.6574  -34.8986  -41.0803 H         1 UNK         0.0970 
    116 H116       15.9030  -31.5127  -43.9340 H         1 UNK         0.0612 
    117 H117       15.6424  -31.6918  -42.2173 H         1 UNK         0.0612 
@<TRIPOS>BOND
     1    1    2 1    
     2    1   62 1    
     3    1   63 1    
     4    1   64 1    
     5    2    3 2    
     6    2    4 am   BACKBONE|DICT|INTERRES
     7    4    5 1    
     8    4   65 1    
     9    5    6 1    
    10    5   25 1    
    11    5   66 1    
    12    6    7 1    
    13    6   67 1    
    14    6   68 1    
    15    7    8 1    
    16    8    9 1    
    17    8   69 1    
    18    8   70 1    
    19    9   10 ar   
    20    9   14 ar   
    21   10   11 ar   
    22   10   71 1    
    23   11   12 ar   
    24   11   61 1    
    25   12   13 ar   
    26   12   72 1    
    27   13   14 ar   
    28   13   15 1    
    29   14   73 1    
    30   15   16 1    
    31   15   74 1    
    32   15   75 1    
    33   16   17 1    
    34   17   18 1    
    35   17   76 1    
    36   17   77 1    
    37   18   19 1    
    38   18   27 1    
    39   18   78 1    
    40   19   20 am   BACKBONE|DICT|INTERRES
    41   19   79 1    
    42   20   21 2    
    43   20   22 1    
    44   22   23 1    
    45   22   24 1    
    46   22   80 1    
    47   23   81 1    
    48   23   82 1    
    49   23   83 1    
    50   24   25 am   BACKBONE|DICT|INTERRES
    51   24   84 1    
    52   25   26 2    
    53   27   28 2    
    54   27   29 am   BACKBONE|DICT|INTERRES
    55   29   30 1    
    56   29   85 1    
    57   30   31 1    
    58   30   32 1    
    59   30   86 1    
    60   31   87 1    
    61   31   88 1    
    62   31   89 1    
    63   32   33 2    
    64   32   34 am   BACKBONE|DICT|INTERRES
    65   34   35 1    
    66   34   90 1    
    67   35   36 1    
    68   35   37 1    
    69   35   91 1    
    70   36   92 1    
    71   36   93 1    
    72   36   94 1    
    73   37   38 2    
    74   37   39 am   BACKBONE|DICT|INTERRES
    75   39   40 1    
    76   39   95 1    
    77   40   41 1    
    78   40   42 1    
    79   40   96 1    
    80   41   97 1    
    81   41   98 1    
    82   41   99 1    
    83   42   43 2    
    84   42   44 am   BACKBONE|DICT|INTERRES
    85   44   45 1    
    86   44  100 1    
    87   45   46 1    
    88   45   47 1    
    89   45  101 1    
    90   46  102 1    
    91   46  103 1    
    92   46  104 1    
    93   47   48 2    
    94   47   49 am   BACKBONE|DICT|INTERRES
    95   49   50 1    
    96   49  105 1    
    97   50   51 1    
    98   50   52 1    
    99   50  106 1    
   100   51  107 1    
   101   51  108 1    
   102   51  109 1    
   103   52   53 2    
   104   52   54 am   BACKBONE|DICT|INTERRES
   105   54   55 1    
   106   54  110 1    
   107   55   56 1    
   108   55   59 1    
   109   55  111 1    
   110   56   57 am   BACKBONE|DICT|INTERRES
   111   56   58 2    
   112   57  112 1    
   113   57  113 1    
   114   59   60 1    
   115   59  114 1    
   116   59  115 1    
   117   60   61 1    
   118   61  116 1    
   119   61  117 1    
@<TRIPOS>SUBSTRUCTURE
     1 UNK         1 GROUP             0       ****    0 ROOT    
