@<TRIPOS>MOLECULE
3R8
117   119    1
SMALL
USER_CHARGES


@<TRIPOS>ATOM
      1 CA         22.5460  -25.2131  -48.1597 C.3       0 UNK        -0.2013 
      2 C          21.7474  -26.3802  -48.7370 C.2       0 UNK         0.4866 
      3 O          21.4949  -26.3979  -49.9403 O.2       0 UNK        -0.5176 
      4 N          21.3436  -27.3818  -47.9430 N.am      1 UNK        -0.4884 
      5 CA         21.4802  -27.4859  -46.4850 C.3       1 UNK         0.0853 
      6 C6         21.1973  -28.9228  -45.9505 C.3       10 UNK        -0.0849 
      7 S7         20.0446  -29.9695  -46.9107 S.3       10 UNK        -0.2776 
      8 C8         18.4007  -29.3318  -46.4394 C.3       10 UNK         0.0316 
      9 C9         17.9476  -29.5843  -44.9996 C.ar      10 UNK        -0.0863 
     10 C10        18.5098  -30.5677  -44.1722 C.ar      10 UNK        -0.1009 
     11 C11        18.0158  -30.7842  -42.8769 C.ar      10 UNK        -0.0712 
     12 C12        16.9515  -30.0038  -42.4144 C.ar      10 UNK        -0.0894 
     13 C13        16.3895  -29.0135  -43.2224 C.ar      10 UNK        -0.0745 
     14 C14        16.8876  -28.8164  -44.5113 C.ar      10 UNK        -0.0972 
     15 C15        15.2451  -28.1506  -42.7122 C.3       10 UNK         0.0209 
     16 S16        15.7775  -26.4314  -42.4343 S.3       10 UNK        -0.2568 
     17 C17        16.7000  -26.5615  -40.8643 C.3       10 UNK        -0.0983 
     18 CA         18.2113  -26.8686  -41.0395 C.3       3 UNK         0.0876 
     19 N          18.8518  -25.9807  -42.0168 N.am      3 UNK        -0.4424 
     20 C          20.1438  -25.9583  -42.3672 C.2       2 UNK         0.4918 
     21 O          21.0453  -26.5690  -41.7857 O.2       2 UNK        -0.4875 
     22 CA         20.4914  -25.1325  -43.6087 C.3       2 UNK         0.0481 
     23 CB         21.4446  -23.9806  -43.2548 C.3       2 UNK        -0.1831 
     24 N          21.1467  -26.0297  -44.5555 N.am      2 UNK        -0.4498 
     25 C          20.6487  -26.4247  -45.7321 C.2       1 UNK         0.5027 
     26 O          19.5977  -25.9988  -46.2168 O.2       1 UNK        -0.4969 
     27 C          18.9264  -26.8935  -39.6730 C.2       3 UNK         0.5005 
     28 O          18.7737  -25.9555  -38.8883 O.2       3 UNK        -0.5279 
     29 N          19.7175  -27.9538  -39.4419 N.am      4 UNK        -0.4463 
     30 CA         20.5480  -28.2245  -38.2582 C.3       4 UNK         0.0283 
     31 CB         19.6707  -28.3995  -37.0007 C.3       4 UNK        -0.1875 
     32 C          21.6987  -27.2209  -38.0216 C.2       4 UNK         0.4949 
     33 O          22.3613  -27.3072  -36.9869 O.2       4 UNK        -0.5039 
     34 N          21.9362  -26.3089  -38.9719 N.am      5 UNK        -0.4663 
     35 CA         22.9993  -25.3038  -38.9288 C.3       5 UNK         0.0242 
     36 CB         22.4219  -23.9413  -39.3447 C.3       5 UNK        -0.1982 
     37 C          24.1694  -25.6954  -39.8407 C.2       5 UNK         0.5017 
     38 O          25.3217  -25.4580  -39.4773 O.2       5 UNK        -0.5012 
     39 N          23.8585  -26.2990  -40.9935 N.am      6 UNK        -0.4439 
     40 CA         24.8125  -26.7978  -41.9757 C.3       6 UNK         0.0297 
     41 CB         25.3855  -25.6395  -42.8182 C.3       6 UNK        -0.2006 
     42 C          24.0615  -27.8233  -42.8239 C.2       6 UNK         0.4892 
     43 O          23.4816  -27.4579  -43.8480 O.2       6 UNK        -0.5089 
     44 N          24.0182  -29.0696  -42.3456 N.am      7 UNK        -0.4243 
     45 CA         23.2876  -30.1654  -42.9705 C.3       7 UNK         0.0196 
     46 CB         21.8386  -30.1755  -42.4547 C.3       7 UNK        -0.2007 
     47 C          23.9828  -31.4948  -42.6691 C.2       7 UNK         0.5020 
     48 O          24.6873  -31.6081  -41.6637 O.2       7 UNK        -0.5147 
     49 N          23.7378  -32.4843  -43.5347 N.am      8 UNK        -0.4734 
     50 CA         24.2740  -33.8463  -43.4363 C.3       8 UNK         0.0238 
     51 CB         24.6618  -34.3214  -44.8490 C.3       8 UNK        -0.1912 
     52 C          23.2909  -34.8304  -42.7708 C.2       8 UNK         0.5038 
     53 O          23.5388  -36.0367  -42.8059 O.2       8 UNK        -0.5046 
     54 N          22.1919  -34.3173  -42.1993 N.am      9 UNK        -0.4200 
     55 CA         21.1176  -35.0987  -41.5618 C.3       9 UNK         0.0839 
     56 C          21.5332  -35.8741  -40.2763 C.2       9 UNK         0.5513 
     57 N          22.6481  -35.5487  -39.6329 N.am      9 UNK        -0.7519 
     58 O          20.8259  -36.7863  -39.8563 O.2       9 UNK        -0.4960 
     59 C59        19.8590  -34.2362  -41.2772 C.3       10 UNK        -0.0876 
     60 S60        19.2302  -33.3363  -42.7372 S.3       10 UNK        -0.2414 
     61 C61        18.6307  -31.8143  -41.9304 C.3       10 UNK         0.0169 
     62 H62        23.3511  -25.5544  -47.5105 H         1 UNK         0.0903 
     63 H63        23.0022  -24.6340  -48.9625 H         1 UNK         0.0903 
     64 H64        21.8972  -24.5422  -47.5975 H         1 UNK         0.0903 
     65 H65        20.8129  -28.1368  -48.3552 H         1 UNK         0.3096 
     66 H66        22.5264  -27.2727  -46.2585 H         1 UNK         0.1121 
     67 H67        22.1418  -29.4667  -45.9533 H         1 UNK         0.0849 
     68 H68        20.8836  -28.9147  -44.9057 H         1 UNK         0.0849 
     69 H69        18.3677  -28.2644  -46.6572 H         1 UNK         0.0865 
     70 H70        17.6666  -29.7924  -47.1016 H         1 UNK         0.0865 
     71 H71        19.3284  -31.1715  -44.5352 H         1 UNK         0.1346 
     72 H72        16.5685  -30.1560  -41.4143 H         1 UNK         0.1412 
     73 H73        16.4435  -28.0538  -45.1375 H         1 UNK         0.1426 
     74 H74        14.8167  -28.5594  -41.7957 H         1 UNK         0.0716 
     75 H75        14.4422  -28.1534  -43.4508 H         1 UNK         0.0716 
     76 H76        16.2266  -27.3184  -40.2361 H         1 UNK         0.0695 
     77 H77        16.5650  -25.6122  -40.3420 H         1 UNK         0.0695 
     78 H78        18.2932  -27.8685  -41.4639 H         1 UNK         0.0983 
     79 H79        18.2031  -25.4287  -42.5593 H         1 UNK         0.3095 
     80 H80        19.5796  -24.7105  -44.0365 H         1 UNK         0.0454 
     81 H81        22.3652  -24.3402  -42.7948 H         1 UNK         0.0851 
     82 H82        20.9758  -23.2880  -42.5550 H         1 UNK         0.0851 
     83 H83        21.7180  -23.4090  -44.1416 H         1 UNK         0.0851 
     84 H84        21.9914  -26.4876  -44.2109 H         1 UNK         0.2976 
     85 H85        19.8130  -28.6314  -40.1854 H         1 UNK         0.3116 
     86 H86        21.0322  -29.1826  -38.4527 H         1 UNK         0.0646 
     87 H87        19.2014  -27.4625  -36.6997 H         1 UNK         0.0847 
     88 H88        20.2629  -28.7493  -36.1543 H         1 UNK         0.0847 
     89 H89        18.8816  -29.1332  -37.1649 H         1 UNK         0.0847 
     90 H90        21.3640  -26.3358  -39.8086 H         1 UNK         0.3040 
     91 H91        23.3906  -25.2081  -37.9133 H         1 UNK         0.1015 
     92 H92        21.9932  -23.9711  -40.3458 H         1 UNK         0.0786 
     93 H93        23.1939  -23.1705  -39.3402 H         1 UNK         0.0786 
     94 H94        21.6386  -23.6205  -38.6576 H         1 UNK         0.0786 
     95 H95        22.8806  -26.4684  -41.2188 H         1 UNK         0.3172 
     96 H96        25.6342  -27.3039  -41.4644 H         1 UNK         0.0595 
     97 H97        24.6014  -25.0754  -43.3235 H         1 UNK         0.0839 
     98 H98        26.0606  -26.0173  -43.5869 H         1 UNK         0.0839 
     99 H99        25.9543  -24.9420  -42.2035 H         1 UNK         0.0839 
    100 H100       24.5413  -29.3213  -41.5162 H         1 UNK         0.2998 
    101 H101       23.2942  -30.0260  -44.0522 H         1 UNK         0.0822 
    102 H102       21.3454  -29.2175  -42.6178 H         1 UNK         0.0787 
    103 H103       21.2527  -30.9341  -42.9724 H         1 UNK         0.0787 
    104 H104       21.7951  -30.3910  -41.3864 H         1 UNK         0.0787 
    105 H105       23.1284  -32.3042  -44.3210 H         1 UNK         0.3055 
    106 H106       25.1779  -33.8434  -42.8224 H         1 UNK         0.1106 
    107 H107       25.1328  -35.3050  -44.8192 H         1 UNK         0.0828 
    108 H108       23.7925  -34.3963  -45.5034 H         1 UNK         0.0828 
    109 H109       25.3752  -33.6410  -45.3143 H         1 UNK         0.0828 
    110 H110       22.0634  -33.3180  -42.2209 H         1 UNK         0.2931 
    111 H111       20.8255  -35.8611  -42.2869 H         1 UNK         0.0412 
    112 H112       23.2347  -34.8024  -39.9702 H         1 UNK         0.3472 
    113 H113       22.9072  -36.0595  -38.8032 H         1 UNK         0.3472 
    114 H114       19.0461  -34.8629  -40.9047 H         1 UNK         0.0970 
    115 H115       20.0759  -33.5224  -40.4801 H         1 UNK         0.0970 
    116 H116       17.8970  -32.1080  -41.1777 H         1 UNK         0.0612 
    117 H117       19.4506  -31.3424  -41.3899 H         1 UNK         0.0612 
@<TRIPOS>BOND
     1    1    2 1    
     2    1   62 1    
     3    1   63 1    
     4    1   64 1    
     5    2    3 2    
     6    2    4 am   BACKBONE|DICT|INTERRES
     7    4    5 1    
     8    4   65 1    
     9    5    6 1    
    10    5   25 1    
    11    5   66 1    
    12    6    7 1    
    13    6   67 1    
    14    6   68 1    
    15    7    8 1    
    16    8    9 1    
    17    8   69 1    
    18    8   70 1    
    19    9   10 ar   
    20    9   14 ar   
    21   10   11 ar   
    22   10   71 1    
    23   11   12 ar   
    24   11   61 1    
    25   12   13 ar   
    26   12   72 1    
    27   13   14 ar   
    28   13   15 1    
    29   14   73 1    
    30   15   16 1    
    31   15   74 1    
    32   15   75 1    
    33   16   17 1    
    34   17   18 1    
    35   17   76 1    
    36   17   77 1    
    37   18   19 1    
    38   18   27 1    
    39   18   78 1    
    40   19   20 am   BACKBONE|DICT|INTERRES
    41   19   79 1    
    42   20   21 2    
    43   20   22 1    
    44   22   23 1    
    45   22   24 1    
    46   22   80 1    
    47   23   81 1    
    48   23   82 1    
    49   23   83 1    
    50   24   25 am   BACKBONE|DICT|INTERRES
    51   24   84 1    
    52   25   26 2    
    53   27   28 2    
    54   27   29 am   BACKBONE|DICT|INTERRES
    55   29   30 1    
    56   29   85 1    
    57   30   31 1    
    58   30   32 1    
    59   30   86 1    
    60   31   87 1    
    61   31   88 1    
    62   31   89 1    
    63   32   33 2    
    64   32   34 am   BACKBONE|DICT|INTERRES
    65   34   35 1    
    66   34   90 1    
    67   35   36 1    
    68   35   37 1    
    69   35   91 1    
    70   36   92 1    
    71   36   93 1    
    72   36   94 1    
    73   37   38 2    
    74   37   39 am   BACKBONE|DICT|INTERRES
    75   39   40 1    
    76   39   95 1    
    77   40   41 1    
    78   40   42 1    
    79   40   96 1    
    80   41   97 1    
    81   41   98 1    
    82   41   99 1    
    83   42   43 2    
    84   42   44 am   BACKBONE|DICT|INTERRES
    85   44   45 1    
    86   44  100 1    
    87   45   46 1    
    88   45   47 1    
    89   45  101 1    
    90   46  102 1    
    91   46  103 1    
    92   46  104 1    
    93   47   48 2    
    94   47   49 am   BACKBONE|DICT|INTERRES
    95   49   50 1    
    96   49  105 1    
    97   50   51 1    
    98   50   52 1    
    99   50  106 1    
   100   51  107 1    
   101   51  108 1    
   102   51  109 1    
   103   52   53 2    
   104   52   54 am   BACKBONE|DICT|INTERRES
   105   54   55 1    
   106   54  110 1    
   107   55   56 1    
   108   55   59 1    
   109   55  111 1    
   110   56   57 am   BACKBONE|DICT|INTERRES
   111   56   58 2    
   112   57  112 1    
   113   57  113 1    
   114   59   60 1    
   115   59  114 1    
   116   59  115 1    
   117   60   61 1    
   118   61  116 1    
   119   61  117 1    
@<TRIPOS>SUBSTRUCTURE
     1 UNK         1 GROUP             0       ****    0 ROOT    
