@<TRIPOS>MOLECULE
3R8
117   119    1
SMALL
USER_CHARGES


@<TRIPOS>ATOM
      1 CA         15.3576  -22.5774  -41.7137 C.3       0 UNK        -0.2013 
      2 C          15.7975  -23.1971  -43.0318 C.2       0 UNK         0.4866 
      3 O          15.5802  -22.6051  -44.0897 O.2       0 UNK        -0.5176 
      4 N          16.4056  -24.3885  -42.9780 N.am      1 UNK        -0.4884 
      5 CA         16.9371  -25.1125  -44.1371 C.3       1 UNK         0.0853 
      6 C6         17.3134  -26.5703  -43.7776 C.3       10 UNK        -0.0849 
      7 S7         15.8704  -27.5637  -43.2674 S.3       10 UNK        -0.2776 
      8 C8         15.8005  -28.8325  -44.5760 C.3       10 UNK         0.0316 
      9 C9         17.0295  -29.7327  -44.5643 C.ar      10 UNK        -0.0863 
     10 C10        17.2302  -30.6320  -43.5134 C.ar      10 UNK        -0.1009 
     11 C11        18.3595  -31.4544  -43.4891 C.ar      10 UNK        -0.0712 
     12 C12        19.2985  -31.3657  -44.5218 C.ar      10 UNK        -0.0894 
     13 C13        19.1106  -30.4726  -45.5824 C.ar      10 UNK        -0.0745 
     14 C14        17.9639  -29.6700  -45.6034 C.ar      10 UNK        -0.0972 
     15 C15        20.1361  -30.4103  -46.7128 C.3       10 UNK         0.0209 
     16 S16        20.5883  -28.7134  -47.2127 S.3       10 UNK        -0.2568 
     17 C17        21.3648  -28.0821  -45.6890 C.3       10 UNK        -0.0983 
     18 CA         21.7843  -26.5925  -45.7976 C.3       3 UNK         0.0876 
     19 N          20.6547  -25.7427  -46.1854 N.am      3 UNK        -0.4424 
     20 C          20.7281  -24.4610  -46.5677 C.2       2 UNK         0.4918 
     21 O          21.7848  -23.8481  -46.7179 O.2       2 UNK        -0.4875 
     22 CA         19.3886  -23.7301  -46.7886 C.3       2 UNK         0.0481 
     23 CB         19.0460  -23.6862  -48.2861 C.3       2 UNK        -0.1831 
     24 N          18.2585  -24.3114  -46.0485 N.am      2 UNK        -0.4498 
     25 C          18.1723  -24.3928  -44.7117 C.2       1 UNK         0.5027 
     26 O          19.0546  -23.9995  -43.9441 O.2       1 UNK        -0.4969 
     27 C          22.4411  -26.1469  -44.4713 C.2       3 UNK         0.5005 
     28 O          23.5895  -26.5171  -44.2252 O.2       3 UNK        -0.5279 
     29 N          21.6957  -25.4096  -43.6260 N.am      4 UNK        -0.4463 
     30 CA         22.0466  -24.9834  -42.2625 C.3       4 UNK         0.0283 
     31 CB         23.2280  -23.9907  -42.2809 C.3       4 UNK        -0.1875 
     32 C          22.2775  -26.1619  -41.2925 C.2       4 UNK         0.4949 
     33 O          23.0139  -26.0171  -40.3150 O.2       4 UNK        -0.5039 
     34 N          21.6590  -27.3138  -41.5952 N.am      5 UNK        -0.4663 
     35 CA         21.7514  -28.6317  -40.9498 C.3       5 UNK         0.0242 
     36 CB         21.2235  -28.5943  -39.5032 C.3       5 UNK        -0.1982 
     37 C          23.1434  -29.2868  -41.0173 C.2       5 UNK         0.5017 
     38 O          23.2344  -30.4686  -41.3505 O.2       5 UNK        -0.5012 
     39 N          24.1941  -28.5244  -40.6805 N.am      6 UNK        -0.4439 
     40 CA         25.6252  -28.8615  -40.7356 C.3       6 UNK         0.0297 
     41 CB         26.0778  -28.9613  -42.2074 C.3       6 UNK        -0.2006 
     42 C          26.0302  -30.1114  -39.9234 C.2       6 UNK         0.4892 
     43 O          27.0696  -30.7078  -40.2088 O.2       6 UNK        -0.5089 
     44 N          25.1871  -30.5006  -38.9533 N.am      7 UNK        -0.4243 
     45 CA         25.2177  -31.7516  -38.1825 C.3       7 UNK         0.0196 
     46 CB         26.4650  -31.8119  -37.2749 C.3       7 UNK        -0.2007 
     47 C          25.0521  -33.0241  -39.0454 C.2       7 UNK         0.5020 
     48 O          25.3729  -34.1166  -38.5754 O.2       7 UNK        -0.5147 
     49 N          24.5507  -32.8785  -40.2809 N.am      8 UNK        -0.4734 
     50 CA         24.3362  -33.9775  -41.2252 C.3       8 UNK         0.0238 
     51 CB         24.4960  -33.4431  -42.6583 C.3       8 UNK        -0.1912 
     52 C          22.9602  -34.6385  -41.0520 C.2       8 UNK         0.5038 
     53 O          22.8057  -35.8036  -41.4210 O.2       8 UNK        -0.5046 
     54 N          21.9899  -33.8863  -40.5174 N.am      9 UNK        -0.4200 
     55 CA         20.6155  -34.3341  -40.2562 C.3       9 UNK         0.0839 
     56 C          20.5436  -35.4447  -39.1737 C.2       9 UNK         0.5513 
     57 N          19.6508  -36.4117  -39.3349 N.am      9 UNK        -0.7519 
     58 O          21.2536  -35.4096  -38.1708 O.2       9 UNK        -0.4960 
     59 C59        19.6860  -33.1507  -39.8801 C.3       10 UNK        -0.0876 
     60 S60        19.7027  -31.7992  -41.1048 S.3       10 UNK        -0.2414 
     61 C61        18.5571  -32.4484  -42.3554 C.3       10 UNK         0.0169 
     62 H62        14.2806  -22.4120  -41.7178 H         1 UNK         0.0903 
     63 H63        15.5995  -23.2139  -40.8627 H         1 UNK         0.0903 
     64 H64        15.8499  -21.6161  -41.5687 H         1 UNK         0.0903 
     65 H65        16.5609  -24.8289  -42.0825 H         1 UNK         0.3096 
     66 H66        16.1592  -25.1319  -44.9041 H         1 UNK         0.1121 
     67 H67        17.7991  -27.0551  -44.6252 H         1 UNK         0.0849 
     68 H68        18.0434  -26.5928  -42.9657 H         1 UNK         0.0849 
     69 H69        14.9083  -29.4431  -44.4293 H         1 UNK         0.0865 
     70 H70        15.6795  -28.3456  -45.5450 H         1 UNK         0.0865 
     71 H71        16.5066  -30.6866  -42.7112 H         1 UNK         0.1346 
     72 H72        20.1743  -32.0000  -44.4980 H         1 UNK         0.1412 
     73 H73        17.8060  -28.9873  -46.4270 H         1 UNK         0.1426 
     74 H74        19.7273  -30.9309  -47.5796 H         1 UNK         0.0716 
     75 H75        21.0479  -30.9422  -46.4362 H         1 UNK         0.0716 
     76 H76        22.2314  -28.7091  -45.4687 H         1 UNK         0.0695 
     77 H77        20.6652  -28.2228  -44.8626 H         1 UNK         0.0695 
     78 H78        22.5460  -26.5050  -46.5755 H         1 UNK         0.0983 
     79 H79        19.7457  -26.1775  -46.1523 H         1 UNK         0.3095 
     80 H80        19.5175  -22.7039  -46.4383 H         1 UNK         0.0454 
     81 H81        19.8557  -23.2312  -48.8586 H         1 UNK         0.0851 
     82 H82        18.1500  -23.0939  -48.4726 H         1 UNK         0.0851 
     83 H83        18.8815  -24.6846  -48.6935 H         1 UNK         0.0851 
     84 H84        17.4934  -24.6617  -46.6081 H         1 UNK         0.2976 
     85 H85        20.7758  -25.1101  -43.9344 H         1 UNK         0.3116 
     86 H86        21.1749  -24.4488  -41.8821 H         1 UNK         0.0646 
     87 H87        24.1597  -24.4739  -42.5763 H         1 UNK         0.0847 
     88 H88        23.0432  -23.1672  -42.9706 H         1 UNK         0.0847 
     89 H89        23.3887  -23.5550  -41.2941 H         1 UNK         0.0847 
     90 H90        21.0970  -27.3007  -42.4336 H         1 UNK         0.3040 
     91 H91        21.0861  -29.2769  -41.5248 H         1 UNK         0.1015 
     92 H92        21.2181  -29.5940  -39.0666 H         1 UNK         0.0786 
     93 H93        20.1994  -28.2229  -39.4677 H         1 UNK         0.0786 
     94 H94        21.8326  -27.9604  -38.8584 H         1 UNK         0.0786 
     95 H95        23.9733  -27.5661  -40.4112 H         1 UNK         0.3172 
     96 H96        26.1515  -28.0213  -40.2809 H         1 UNK         0.0595 
     97 H97        25.6358  -29.8249  -42.7058 H         1 UNK         0.0839 
     98 H98        27.1614  -29.0607  -42.2823 H         1 UNK         0.0839 
     99 H99        25.7964  -28.0709  -42.7704 H         1 UNK         0.0839 
    100 H100       24.3703  -29.9239  -38.8086 H         1 UNK         0.2998 
    101 H101       24.3421  -31.7226  -37.5322 H         1 UNK         0.0822 
    102 H102       26.4083  -32.6560  -36.5865 H         1 UNK         0.0787 
    103 H103       26.5605  -30.9100  -36.6705 H         1 UNK         0.0787 
    104 H104       27.3823  -31.9279  -37.8528 H         1 UNK         0.0787 
    105 H105       24.2802  -31.9514  -40.5993 H         1 UNK         0.3055 
    106 H106       25.0943  -34.7472  -41.0629 H         1 UNK         0.1106 
    107 H107       25.4800  -32.9985  -42.8081 H         1 UNK         0.0828 
    108 H108       24.3880  -34.2464  -43.3885 H         1 UNK         0.0828 
    109 H109       23.7471  -32.6858  -42.8940 H         1 UNK         0.0828 
    110 H110       22.2069  -32.9356  -40.2594 H         1 UNK         0.2931 
    111 H111       20.2470  -34.7608  -41.1912 H         1 UNK         0.0412 
    112 H112       19.0572  -36.4443  -40.1495 H         1 UNK         0.3472 
    113 H113       19.5770  -37.1327  -38.6336 H         1 UNK         0.3472 
    114 H114       18.6578  -33.4945  -39.7519 H         1 UNK         0.0970 
    115 H115       19.9820  -32.7290  -38.9175 H         1 UNK         0.0970 
    116 H116       17.6011  -32.6830  -41.8847 H         1 UNK         0.0612 
    117 H117       18.9464  -33.3862  -42.7537 H         1 UNK         0.0612 
@<TRIPOS>BOND
     1    1    2 1    
     2    1   62 1    
     3    1   63 1    
     4    1   64 1    
     5    2    3 2    
     6    2    4 am   BACKBONE|DICT|INTERRES
     7    4    5 1    
     8    4   65 1    
     9    5    6 1    
    10    5   25 1    
    11    5   66 1    
    12    6    7 1    
    13    6   67 1    
    14    6   68 1    
    15    7    8 1    
    16    8    9 1    
    17    8   69 1    
    18    8   70 1    
    19    9   10 ar   
    20    9   14 ar   
    21   10   11 ar   
    22   10   71 1    
    23   11   12 ar   
    24   11   61 1    
    25   12   13 ar   
    26   12   72 1    
    27   13   14 ar   
    28   13   15 1    
    29   14   73 1    
    30   15   16 1    
    31   15   74 1    
    32   15   75 1    
    33   16   17 1    
    34   17   18 1    
    35   17   76 1    
    36   17   77 1    
    37   18   19 1    
    38   18   27 1    
    39   18   78 1    
    40   19   20 am   BACKBONE|DICT|INTERRES
    41   19   79 1    
    42   20   21 2    
    43   20   22 1    
    44   22   23 1    
    45   22   24 1    
    46   22   80 1    
    47   23   81 1    
    48   23   82 1    
    49   23   83 1    
    50   24   25 am   BACKBONE|DICT|INTERRES
    51   24   84 1    
    52   25   26 2    
    53   27   28 2    
    54   27   29 am   BACKBONE|DICT|INTERRES
    55   29   30 1    
    56   29   85 1    
    57   30   31 1    
    58   30   32 1    
    59   30   86 1    
    60   31   87 1    
    61   31   88 1    
    62   31   89 1    
    63   32   33 2    
    64   32   34 am   BACKBONE|DICT|INTERRES
    65   34   35 1    
    66   34   90 1    
    67   35   36 1    
    68   35   37 1    
    69   35   91 1    
    70   36   92 1    
    71   36   93 1    
    72   36   94 1    
    73   37   38 2    
    74   37   39 am   BACKBONE|DICT|INTERRES
    75   39   40 1    
    76   39   95 1    
    77   40   41 1    
    78   40   42 1    
    79   40   96 1    
    80   41   97 1    
    81   41   98 1    
    82   41   99 1    
    83   42   43 2    
    84   42   44 am   BACKBONE|DICT|INTERRES
    85   44   45 1    
    86   44  100 1    
    87   45   46 1    
    88   45   47 1    
    89   45  101 1    
    90   46  102 1    
    91   46  103 1    
    92   46  104 1    
    93   47   48 2    
    94   47   49 am   BACKBONE|DICT|INTERRES
    95   49   50 1    
    96   49  105 1    
    97   50   51 1    
    98   50   52 1    
    99   50  106 1    
   100   51  107 1    
   101   51  108 1    
   102   51  109 1    
   103   52   53 2    
   104   52   54 am   BACKBONE|DICT|INTERRES
   105   54   55 1    
   106   54  110 1    
   107   55   56 1    
   108   55   59 1    
   109   55  111 1    
   110   56   57 am   BACKBONE|DICT|INTERRES
   111   56   58 2    
   112   57  112 1    
   113   57  113 1    
   114   59   60 1    
   115   59  114 1    
   116   59  115 1    
   117   60   61 1    
   118   61  116 1    
   119   61  117 1    
@<TRIPOS>SUBSTRUCTURE
     1 UNK         1 GROUP             0       ****    0 ROOT    
