@<TRIPOS>MOLECULE
3R8
117   119    1
SMALL
USER_CHARGES


@<TRIPOS>ATOM
      1 CA         14.3975  -25.1423  -47.9265 C.3       0 UNK        -0.2013 
      2 C          14.9964  -25.0061  -46.5347 C.2       0 UNK         0.4866 
      3 O          14.6524  -24.0711  -45.8120 O.2       0 UNK        -0.5176 
      4 N          15.8942  -25.9295  -46.1599 N.am      1 UNK        -0.4884 
      5 CA         16.5857  -25.9878  -44.8621 C.3       1 UNK         0.0853 
      6 C6         15.6096  -26.2220  -43.6732 C.3       10 UNK        -0.0849 
      7 S7         16.3456  -27.0546  -42.2203 S.3       10 UNK        -0.2776 
      8 C8         16.3318  -28.8197  -42.6803 C.3       10 UNK         0.0316 
      9 C9         17.7242  -29.2879  -43.0802 C.ar      10 UNK        -0.0863 
     10 C10        18.6684  -29.6039  -42.0967 C.ar      10 UNK        -0.1009 
     11 C11        19.9662  -29.9849  -42.4536 C.ar      10 UNK        -0.0712 
     12 C12        20.3167  -30.0438  -43.8051 C.ar      10 UNK        -0.0894 
     13 C13        19.3791  -29.7452  -44.7951 C.ar      10 UNK        -0.0745 
     14 C14        18.0787  -29.3885  -44.4281 C.ar      10 UNK        -0.0972 
     15 C15        19.7688  -29.7948  -46.2619 C.3       10 UNK         0.0209 
     16 S16        19.9481  -28.1226  -46.9550 S.3       10 UNK        -0.2568 
     17 C17        21.6225  -27.6177  -46.4021 C.3       10 UNK        -0.0983 
     18 CA         21.6705  -26.4053  -45.4219 C.3       3 UNK         0.0876 
     19 N          20.6165  -25.4338  -45.7193 N.am      3 UNK        -0.4424 
     20 C          20.5951  -24.1242  -45.4459 C.2       2 UNK         0.4918 
     21 O          21.5247  -23.5168  -44.9167 O.2       2 UNK        -0.4875 
     22 CA         19.2841  -23.3880  -45.7891 C.3       2 UNK         0.0481 
     23 CB         19.3892  -22.7144  -47.1660 C.3       2 UNK        -0.1831 
     24 N          18.1254  -24.2920  -45.7748 N.am      2 UNK        -0.4498 
     25 C          17.5998  -24.8336  -44.6636 C.2       1 UNK         0.5027 
     26 O          17.9442  -24.4901  -43.5335 O.2       1 UNK        -0.4969 
     27 C          21.7412  -26.8225  -43.9319 C.2       3 UNK         0.5005 
     28 O          22.5568  -27.6822  -43.5964 O.2       3 UNK        -0.5279 
     29 N          20.9525  -26.1847  -43.0493 N.am      4 UNK        -0.4463 
     30 CA         20.8826  -26.4145  -41.5968 C.3       4 UNK         0.0283 
     31 CB         19.8375  -25.4675  -40.9866 C.3       4 UNK        -0.1875 
     32 C          22.2114  -26.3015  -40.8208 C.2       4 UNK         0.4949 
     33 O          22.2740  -26.7529  -39.6777 O.2       4 UNK        -0.5039 
     34 N          23.2451  -25.7142  -41.4384 N.am      5 UNK        -0.4663 
     35 CA         24.6181  -25.6773  -40.9305 C.3       5 UNK         0.0242 
     36 CB         25.4221  -24.6544  -41.7500 C.3       5 UNK        -0.1982 
     37 C          25.3230  -27.0504  -40.9397 C.2       5 UNK         0.5017 
     38 O          26.3192  -27.2056  -40.2312 O.2       5 UNK        -0.5012 
     39 N          24.8238  -28.0098  -41.7354 N.am      6 UNK        -0.4439 
     40 CA         25.3150  -29.3901  -41.7853 C.3       6 UNK         0.0297 
     41 CB         24.7338  -30.0849  -43.0283 C.3       6 UNK        -0.2006 
     42 C          24.9793  -30.1816  -40.5055 C.2       6 UNK         0.4892 
     43 O          24.0693  -29.8083  -39.7618 O.2       6 UNK        -0.5089 
     44 N          25.7209  -31.2724  -40.2855 N.am      7 UNK        -0.4243 
     45 CA         25.5455  -32.1971  -39.1650 C.3       7 UNK         0.0196 
     46 CB         26.9082  -32.4030  -38.4808 C.3       7 UNK        -0.2007 
     47 C          24.9929  -33.5402  -39.6638 C.2       7 UNK         0.5020 
     48 O          25.1440  -33.8674  -40.8432 O.2       7 UNK        -0.5147 
     49 N          24.4012  -34.3057  -38.7339 N.am      8 UNK        -0.4734 
     50 CA         23.8324  -35.6516  -38.9171 C.3       8 UNK         0.0238 
     51 CB         24.9399  -36.6742  -39.2540 C.3       8 UNK        -0.1912 
     52 C          22.6523  -35.6960  -39.9106 C.2       8 UNK         0.5038 
     53 O          22.5026  -36.6723  -40.6482 O.2       8 UNK        -0.5046 
     54 N          21.8342  -34.6363  -39.9045 N.am      9 UNK        -0.4200 
     55 CA         20.6683  -34.4605  -40.7877 C.3       9 UNK         0.0839 
     56 C          19.4237  -35.3123  -40.4031 C.2       9 UNK         0.5513 
     57 N          19.3889  -35.9601  -39.2445 N.am      9 UNK        -0.7519 
     58 O          18.4723  -35.3909  -41.1759 O.2       9 UNK        -0.4960 
     59 C59        20.2893  -32.9643  -40.9434 C.3       10 UNK        -0.0876 
     60 S60        21.6927  -31.9584  -41.5265 S.3       10 UNK        -0.2414 
     61 C61        21.0096  -30.2781  -41.3843 C.3       10 UNK         0.0169 
     62 H62        13.3150  -25.2481  -47.8596 H         1 UNK         0.0903 
     63 H63        14.6166  -24.2536  -48.5179 H         1 UNK         0.0903 
     64 H64        14.7899  -26.0088  -48.4584 H         1 UNK         0.0903 
     65 H65        16.1285  -26.6707  -46.8072 H         1 UNK         0.3096 
     66 H66        17.2178  -26.8704  -44.9325 H         1 UNK         0.1121 
     67 H67        14.7601  -26.8242  -43.9988 H         1 UNK         0.0849 
     68 H68        15.1801  -25.2737  -43.3454 H         1 UNK         0.0849 
     69 H69        15.9861  -29.4029  -41.8254 H         1 UNK         0.0865 
     70 H70        15.6135  -29.0036  -43.4805 H         1 UNK         0.0865 
     71 H71        18.3978  -29.5266  -41.0525 H         1 UNK         0.1346 
     72 H72        21.3279  -30.3090  -44.0817 H         1 UNK         0.1412 
     73 H73        17.3525  -29.1641  -45.1971 H         1 UNK         0.1426 
     74 H74        18.9946  -30.3241  -46.8192 H         1 UNK         0.0716 
     75 H75        20.6900  -30.3608  -46.4094 H         1 UNK         0.0716 
     76 H76        22.1634  -28.4821  -46.0125 H         1 UNK         0.0695 
     77 H77        22.1632  -27.3427  -47.3089 H         1 UNK         0.0695 
     78 H78        22.6222  -25.8991  -45.5987 H         1 UNK         0.0983 
     79 H79        19.8075  -25.8360  -46.1703 H         1 UNK         0.3095 
     80 H80        19.1285  -22.6107  -45.0381 H         1 UNK         0.0454 
     81 H81        20.2277  -22.0171  -47.1948 H         1 UNK         0.0851 
     82 H82        19.5435  -23.4416  -47.9641 H         1 UNK         0.0851 
     83 H83        18.4893  -22.1451  -47.3988 H         1 UNK         0.0851 
     84 H84        17.7651  -24.5945  -46.6687 H         1 UNK         0.2976 
     85 H85        20.3213  -25.4829  -43.4096 H         1 UNK         0.3116 
     86 H86        20.5276  -27.4339  -41.4524 H         1 UNK         0.0646 
     87 H87        19.7803  -25.5836  -39.9034 H         1 UNK         0.0847 
     88 H88        18.8426  -25.6761  -41.3763 H         1 UNK         0.0847 
     89 H89        20.0690  -24.4218  -41.1923 H         1 UNK         0.0847 
     90 H90        23.0961  -25.3641  -42.3734 H         1 UNK         0.3040 
     91 H91        24.5866  -25.3392  -39.8923 H         1 UNK         0.1015 
     92 H92        24.9784  -23.6603  -41.6907 H         1 UNK         0.0786 
     93 H93        25.4795  -24.9361  -42.8023 H         1 UNK         0.0786 
     94 H94        26.4446  -24.5732  -41.3783 H         1 UNK         0.0786 
     95 H95        23.9887  -27.8091  -42.2804 H         1 UNK         0.3172 
     96 H96        26.4018  -29.3567  -41.8877 H         1 UNK         0.0595 
     97 H97        25.0952  -31.1102  -43.1165 H         1 UNK         0.0839 
     98 H98        25.0141  -29.5619  -43.9427 H         1 UNK         0.0839 
     99 H99        23.6456  -30.1281  -42.9929 H         1 UNK         0.0839 
    100 H100       26.3874  -31.5599  -40.9885 H         1 UNK         0.2998 
    101 H101       24.8454  -31.7857  -38.4344 H         1 UNK         0.0822 
    102 H102       27.3137  -31.4587  -38.1166 H         1 UNK         0.0787 
    103 H103       26.8219  -33.0693  -37.6214 H         1 UNK         0.0787 
    104 H104       27.6401  -32.8414  -39.1607 H         1 UNK         0.0787 
    105 H105       24.3388  -33.9381  -37.7935 H         1 UNK         0.3055 
    106 H106       23.4119  -35.9394  -37.9519 H         1 UNK         0.1106 
    107 H107       25.3683  -36.4982  -40.2412 H         1 UNK         0.0828 
    108 H108       25.7497  -36.6376  -38.5254 H         1 UNK         0.0828 
    109 H109       24.5482  -37.6922  -39.2484 H         1 UNK         0.0828 
    110 H110       22.0380  -33.8713  -39.2794 H         1 UNK         0.2931 
    111 H111       20.9659  -34.8141  -41.7772 H         1 UNK         0.0412 
    112 H112       20.1634  -35.9040  -38.6030 H         1 UNK         0.3472 
    113 H113       18.5778  -36.5113  -39.0105 H         1 UNK         0.3472 
    114 H114       19.4716  -32.8462  -41.6575 H         1 UNK         0.0970 
    115 H115       19.9319  -32.5594  -39.9949 H         1 UNK         0.0970 
    116 H116       21.8247  -29.5607  -41.4860 H         1 UNK         0.0612 
    117 H117       20.6025  -30.1362  -40.3822 H         1 UNK         0.0612 
@<TRIPOS>BOND
     1    1    2 1    
     2    1   62 1    
     3    1   63 1    
     4    1   64 1    
     5    2    3 2    
     6    2    4 am   BACKBONE|DICT|INTERRES
     7    4    5 1    
     8    4   65 1    
     9    5    6 1    
    10    5   25 1    
    11    5   66 1    
    12    6    7 1    
    13    6   67 1    
    14    6   68 1    
    15    7    8 1    
    16    8    9 1    
    17    8   69 1    
    18    8   70 1    
    19    9   10 ar   
    20    9   14 ar   
    21   10   11 ar   
    22   10   71 1    
    23   11   12 ar   
    24   11   61 1    
    25   12   13 ar   
    26   12   72 1    
    27   13   14 ar   
    28   13   15 1    
    29   14   73 1    
    30   15   16 1    
    31   15   74 1    
    32   15   75 1    
    33   16   17 1    
    34   17   18 1    
    35   17   76 1    
    36   17   77 1    
    37   18   19 1    
    38   18   27 1    
    39   18   78 1    
    40   19   20 am   BACKBONE|DICT|INTERRES
    41   19   79 1    
    42   20   21 2    
    43   20   22 1    
    44   22   23 1    
    45   22   24 1    
    46   22   80 1    
    47   23   81 1    
    48   23   82 1    
    49   23   83 1    
    50   24   25 am   BACKBONE|DICT|INTERRES
    51   24   84 1    
    52   25   26 2    
    53   27   28 2    
    54   27   29 am   BACKBONE|DICT|INTERRES
    55   29   30 1    
    56   29   85 1    
    57   30   31 1    
    58   30   32 1    
    59   30   86 1    
    60   31   87 1    
    61   31   88 1    
    62   31   89 1    
    63   32   33 2    
    64   32   34 am   BACKBONE|DICT|INTERRES
    65   34   35 1    
    66   34   90 1    
    67   35   36 1    
    68   35   37 1    
    69   35   91 1    
    70   36   92 1    
    71   36   93 1    
    72   36   94 1    
    73   37   38 2    
    74   37   39 am   BACKBONE|DICT|INTERRES
    75   39   40 1    
    76   39   95 1    
    77   40   41 1    
    78   40   42 1    
    79   40   96 1    
    80   41   97 1    
    81   41   98 1    
    82   41   99 1    
    83   42   43 2    
    84   42   44 am   BACKBONE|DICT|INTERRES
    85   44   45 1    
    86   44  100 1    
    87   45   46 1    
    88   45   47 1    
    89   45  101 1    
    90   46  102 1    
    91   46  103 1    
    92   46  104 1    
    93   47   48 2    
    94   47   49 am   BACKBONE|DICT|INTERRES
    95   49   50 1    
    96   49  105 1    
    97   50   51 1    
    98   50   52 1    
    99   50  106 1    
   100   51  107 1    
   101   51  108 1    
   102   51  109 1    
   103   52   53 2    
   104   52   54 am   BACKBONE|DICT|INTERRES
   105   54   55 1    
   106   54  110 1    
   107   55   56 1    
   108   55   59 1    
   109   55  111 1    
   110   56   57 am   BACKBONE|DICT|INTERRES
   111   56   58 2    
   112   57  112 1    
   113   57  113 1    
   114   59   60 1    
   115   59  114 1    
   116   59  115 1    
   117   60   61 1    
   118   61  116 1    
   119   61  117 1    
@<TRIPOS>SUBSTRUCTURE
     1 UNK         1 GROUP             0       ****    0 ROOT    
