@<TRIPOS>MOLECULE
3R8
117   119    1
SMALL
USER_CHARGES


@<TRIPOS>ATOM
      1 CA         16.5005  -22.6867  -43.3785 C.3       0 UNK        -0.2013 
      2 C          16.0322  -23.8784  -42.5461 C.2       0 UNK         0.4866 
      3 O          15.4738  -23.6753  -41.4696 O.2       0 UNK        -0.5176 
      4 N          16.2124  -25.1294  -42.9935 N.am      1 UNK        -0.4884 
      5 CA         16.9087  -25.5605  -44.2141 C.3       1 UNK         0.0853 
      6 C6         16.7105  -27.0753  -44.4747 C.3       10 UNK        -0.0849 
      7 S7         14.9559  -27.5749  -44.5642 S.3       10 UNK        -0.2776 
      8 C8         15.0220  -28.9998  -45.7033 C.3       10 UNK         0.0316 
      9 C9         16.0652  -30.0291  -45.2856 C.ar      10 UNK        -0.0863 
     10 C10        15.9235  -30.7374  -44.0881 C.ar      10 UNK        -0.1009 
     11 C11        16.8977  -31.6516  -43.6719 C.ar      10 UNK        -0.0712 
     12 C12        18.0180  -31.8609  -44.4874 C.ar      10 UNK        -0.0894 
     13 C13        18.1751  -31.1547  -45.6826 C.ar      10 UNK        -0.0745 
     14 C14        17.1900  -30.2503  -46.0845 C.ar      10 UNK        -0.0972 
     15 C15        19.4427  -31.3263  -46.5067 C.3       10 UNK         0.0209 
     16 S16        20.5114  -29.8516  -46.4193 S.3       10 UNK        -0.2568 
     17 C17        20.6932  -29.6273  -44.6160 C.3       10 UNK        -0.0983 
     18 CA         21.4851  -28.3501  -44.2495 C.3       3 UNK         0.0876 
     19 N          20.8755  -27.1532  -44.8375 N.am      3 UNK        -0.4424 
     20 C          21.3973  -25.9198  -44.8568 C.2       2 UNK         0.4918 
     21 O          22.5016  -25.6347  -44.3950 O.2       2 UNK        -0.4875 
     22 CA         20.5025  -24.8046  -45.4337 C.3       2 UNK         0.0481 
     23 CB         20.8441  -24.5590  -46.9115 C.3       2 UNK        -0.1831 
     24 N          19.0593  -25.0611  -45.3008 N.am      2 UNK        -0.4498 
     25 C          18.4192  -25.2553  -44.1374 C.2       1 UNK         0.5027 
     26 O          18.9882  -25.2569  -43.0433 O.2       1 UNK        -0.4969 
     27 C          21.6688  -28.2660  -42.7171 C.2       3 UNK         0.5005 
     28 O          22.3857  -29.0986  -42.1638 O.2       3 UNK        -0.5279 
     29 N          21.0492  -27.2824  -42.0430 N.am      4 UNK        -0.4463 
     30 CA         21.2722  -26.9971  -40.6221 C.3       4 UNK         0.0283 
     31 CB         20.2833  -25.9213  -40.1485 C.3       4 UNK        -0.1875 
     32 C          22.7196  -26.5708  -40.3122 C.2       4 UNK         0.4949 
     33 O          23.1968  -26.8337  -39.2076 O.2       4 UNK        -0.5039 
     34 N          23.4059  -25.9593  -41.2912 N.am      5 UNK        -0.4663 
     35 CA         24.8292  -25.6242  -41.2301 C.3       5 UNK         0.0242 
     36 CB         25.2138  -24.7947  -42.4663 C.3       5 UNK        -0.1982 
     37 C          25.6779  -26.9031  -41.1296 C.2       5 UNK         0.5017 
     38 O          25.6992  -27.6931  -42.0750 O.2       5 UNK        -0.5012 
     39 N          26.3100  -27.0954  -39.9632 N.am      6 UNK        -0.4439 
     40 CA         27.0819  -28.2756  -39.5495 C.3       6 UNK         0.0297 
     41 CB         28.3103  -28.4887  -40.4609 C.3       6 UNK        -0.2006 
     42 C          26.2427  -29.5627  -39.3828 C.2       6 UNK         0.4892 
     43 O          26.8294  -30.6422  -39.2915 O.2       6 UNK        -0.5089 
     44 N          24.9067  -29.4282  -39.3092 N.am      7 UNK        -0.4243 
     45 CA         23.9079  -30.4892  -39.1201 C.3       7 UNK         0.0196 
     46 CB         23.9433  -31.0007  -37.6649 C.3       7 UNK        -0.2007 
     47 C          24.0232  -31.6263  -40.1556 C.2       7 UNK         0.5020 
     48 O          24.1056  -32.8003  -39.7888 O.2       7 UNK        -0.5147 
     49 N          24.0095  -31.2595  -41.4433 N.am      8 UNK        -0.4734 
     50 CA         24.1211  -32.1743  -42.5854 C.3       8 UNK         0.0238 
     51 CB         24.3831  -31.3623  -43.8643 C.3       8 UNK        -0.1912 
     52 C          22.9099  -33.1104  -42.7613 C.2       8 UNK         0.5038 
     53 O          23.0353  -34.1210  -43.4541 O.2       8 UNK        -0.5046 
     54 N          21.7804  -32.7860  -42.1145 N.am      9 UNK        -0.4200 
     55 CA         20.6346  -33.6922  -41.9358 C.3       9 UNK         0.0839 
     56 C          20.9345  -34.9153  -41.0115 C.2       9 UNK         0.5513 
     57 N          21.9794  -34.8960  -40.1900 N.am      9 UNK        -0.7519 
     58 O          20.2170  -35.9109  -41.0512 O.2       9 UNK        -0.4960 
     59 C59        19.3679  -32.9171  -41.4740 C.3       10 UNK        -0.0876 
     60 S60        17.8154  -33.7527  -41.9629 S.3       10 UNK        -0.2414 
     61 C61        16.7029  -32.3484  -42.3224 C.3       10 UNK         0.0169 
     62 H62        16.0186  -21.7723  -43.0329 H         1 UNK         0.0903 
     63 H63        16.2525  -22.8038  -44.4323 H         1 UNK         0.0903 
     64 H64        17.5771  -22.5502  -43.2804 H         1 UNK         0.0903 
     65 H65        15.8785  -25.8887  -42.4178 H         1 UNK         0.3096 
     66 H66        16.4853  -25.0134  -45.0583 H         1 UNK         0.1121 
     67 H67        17.1871  -27.6712  -43.6927 H         1 UNK         0.0849 
     68 H68        17.1955  -27.3589  -45.4108 H         1 UNK         0.0849 
     69 H69        14.0406  -29.4750  -45.7361 H         1 UNK         0.0865 
     70 H70        15.2177  -28.6359  -46.7133 H         1 UNK         0.0865 
     71 H71        15.0587  -30.5545  -43.4643 H         1 UNK         0.1346 
     72 H72        18.7940  -32.5500  -44.1909 H         1 UNK         0.1412 
     73 H73        17.3211  -29.6955  -47.0038 H         1 UNK         0.1426 
     74 H74        20.0108  -32.1956  -46.1715 H         1 UNK         0.0716 
     75 H75        19.1777  -31.5144  -47.5481 H         1 UNK         0.0716 
     76 H76        21.1741  -30.5202  -44.2125 H         1 UNK         0.0695 
     77 H77        19.7028  -29.5796  -44.1606 H         1 UNK         0.0695 
     78 H78        22.4885  -28.4378  -44.6717 H         1 UNK         0.0983 
     79 H79        19.9748  -27.2932  -45.2688 H         1 UNK         0.3095 
     80 H80        20.7242  -23.8917  -44.8772 H         1 UNK         0.0454 
     81 H81        20.2934  -23.7076  -47.3117 H         1 UNK         0.0851 
     82 H82        20.6174  -25.4286  -47.5298 H         1 UNK         0.0851 
     83 H83        21.9059  -24.3406  -47.0351 H         1 UNK         0.0851 
     84 H84        18.5299  -25.0833  -46.1614 H         1 UNK         0.2976 
     85 H85        20.4464  -26.6379  -42.5444 H         1 UNK         0.3116 
     86 H86        21.0726  -27.9140  -40.0634 H         1 UNK         0.0646 
     87 H87        19.2505  -26.2321  -40.3076 H         1 UNK         0.0847 
     88 H88        20.4019  -25.7241  -39.0822 H         1 UNK         0.0847 
     89 H89        20.4325  -24.9769  -40.6735 H         1 UNK         0.0847 
     90 H90        22.9549  -25.8317  -42.1891 H         1 UNK         0.3040 
     91 H91        24.9939  -25.0079  -40.3436 H         1 UNK         0.1015 
     92 H92        24.6260  -23.8788  -42.5294 H         1 UNK         0.0786 
     93 H93        25.0620  -25.3529  -43.3913 H         1 UNK         0.0786 
     94 H94        26.2648  -24.5055  -42.4295 H         1 UNK         0.0786 
     95 H95        26.1895  -26.3936  -39.2446 H         1 UNK         0.3172 
     96 H96        27.4578  -28.0428  -38.5522 H         1 UNK         0.0595 
     97 H97        28.8940  -27.5740  -40.5635 H         1 UNK         0.0839 
     98 H98        28.0231  -28.8187  -41.4596 H         1 UNK         0.0839 
     99 H99        28.9752  -29.2495  -40.0502 H         1 UNK         0.0839 
    100 H100       24.5266  -28.4913  -39.3885 H         1 UNK         0.2998 
    101 H101       22.9340  -30.0246  -39.2835 H         1 UNK         0.0822 
    102 H102       23.8044  -30.1853  -36.9549 H         1 UNK         0.0787 
    103 H103       23.1480  -31.7252  -37.4851 H         1 UNK         0.0787 
    104 H104       24.8893  -31.4910  -37.4320 H         1 UNK         0.0787 
    105 H105       23.8141  -30.2857  -41.6659 H         1 UNK         0.3055 
    106 H106       24.9880  -32.8148  -42.4081 H         1 UNK         0.1106 
    107 H107       25.2831  -30.7542  -43.7697 H         1 UNK         0.0828 
    108 H108       24.5245  -32.0195  -44.7234 H         1 UNK         0.0828 
    109 H109       23.5543  -30.6958  -44.0980 H         1 UNK         0.0828 
    110 H110       21.7766  -31.9323  -41.5764 H         1 UNK         0.2931 
    111 H111       20.4256  -34.1035  -42.9256 H         1 UNK         0.0412 
    112 H112       22.6114  -34.1038  -40.1483 H         1 UNK         0.3472 
    113 H113       22.1561  -35.7004  -39.6094 H         1 UNK         0.3472 
    114 H114       19.3692  -32.7649  -40.3929 H         1 UNK         0.0970 
    115 H115       19.3640  -31.9164  -41.9091 H         1 UNK         0.0970 
    116 H116       16.7966  -31.6105  -41.5243 H         1 UNK         0.0612 
    117 H117       15.6801  -32.7248  -42.2729 H         1 UNK         0.0612 
@<TRIPOS>BOND
     1    1    2 1    
     2    1   62 1    
     3    1   63 1    
     4    1   64 1    
     5    2    3 2    
     6    2    4 am   BACKBONE|DICT|INTERRES
     7    4    5 1    
     8    4   65 1    
     9    5    6 1    
    10    5   25 1    
    11    5   66 1    
    12    6    7 1    
    13    6   67 1    
    14    6   68 1    
    15    7    8 1    
    16    8    9 1    
    17    8   69 1    
    18    8   70 1    
    19    9   10 ar   
    20    9   14 ar   
    21   10   11 ar   
    22   10   71 1    
    23   11   12 ar   
    24   11   61 1    
    25   12   13 ar   
    26   12   72 1    
    27   13   14 ar   
    28   13   15 1    
    29   14   73 1    
    30   15   16 1    
    31   15   74 1    
    32   15   75 1    
    33   16   17 1    
    34   17   18 1    
    35   17   76 1    
    36   17   77 1    
    37   18   19 1    
    38   18   27 1    
    39   18   78 1    
    40   19   20 am   BACKBONE|DICT|INTERRES
    41   19   79 1    
    42   20   21 2    
    43   20   22 1    
    44   22   23 1    
    45   22   24 1    
    46   22   80 1    
    47   23   81 1    
    48   23   82 1    
    49   23   83 1    
    50   24   25 am   BACKBONE|DICT|INTERRES
    51   24   84 1    
    52   25   26 2    
    53   27   28 2    
    54   27   29 am   BACKBONE|DICT|INTERRES
    55   29   30 1    
    56   29   85 1    
    57   30   31 1    
    58   30   32 1    
    59   30   86 1    
    60   31   87 1    
    61   31   88 1    
    62   31   89 1    
    63   32   33 2    
    64   32   34 am   BACKBONE|DICT|INTERRES
    65   34   35 1    
    66   34   90 1    
    67   35   36 1    
    68   35   37 1    
    69   35   91 1    
    70   36   92 1    
    71   36   93 1    
    72   36   94 1    
    73   37   38 2    
    74   37   39 am   BACKBONE|DICT|INTERRES
    75   39   40 1    
    76   39   95 1    
    77   40   41 1    
    78   40   42 1    
    79   40   96 1    
    80   41   97 1    
    81   41   98 1    
    82   41   99 1    
    83   42   43 2    
    84   42   44 am   BACKBONE|DICT|INTERRES
    85   44   45 1    
    86   44  100 1    
    87   45   46 1    
    88   45   47 1    
    89   45  101 1    
    90   46  102 1    
    91   46  103 1    
    92   46  104 1    
    93   47   48 2    
    94   47   49 am   BACKBONE|DICT|INTERRES
    95   49   50 1    
    96   49  105 1    
    97   50   51 1    
    98   50   52 1    
    99   50  106 1    
   100   51  107 1    
   101   51  108 1    
   102   51  109 1    
   103   52   53 2    
   104   52   54 am   BACKBONE|DICT|INTERRES
   105   54   55 1    
   106   54  110 1    
   107   55   56 1    
   108   55   59 1    
   109   55  111 1    
   110   56   57 am   BACKBONE|DICT|INTERRES
   111   56   58 2    
   112   57  112 1    
   113   57  113 1    
   114   59   60 1    
   115   59  114 1    
   116   59  115 1    
   117   60   61 1    
   118   61  116 1    
   119   61  117 1    
@<TRIPOS>SUBSTRUCTURE
     1 UNK         1 GROUP             0       ****    0 ROOT    
