@<TRIPOS>MOLECULE
3R8
117   119    1
SMALL
USER_CHARGES


@<TRIPOS>ATOM
      1 CA         19.9318  -30.2592  -42.2596 C.3       0 UNK        -0.2013 
      2 C          19.1409  -29.2451  -41.4523 C.2       0 UNK         0.4866 
      3 O          19.4581  -29.0162  -40.2869 O.2       0 UNK        -0.5176 
      4 N          18.1262  -28.6159  -42.0618 N.am      1 UNK        -0.4884 
      5 CA         17.3973  -27.4838  -41.4691 C.3       1 UNK         0.0853 
      6 C6         16.0145  -27.2703  -42.1350 C.3       10 UNK        -0.0849 
      7 S7         16.0675  -26.7549  -43.8903 S.3       10 UNK        -0.2776 
      8 C8         15.4481  -28.2286  -44.7618 C.3       10 UNK         0.0316 
      9 C9         16.5507  -29.2454  -45.0190 C.ar      10 UNK        -0.0863 
     10 C10        16.5506  -30.4801  -44.3637 C.ar      10 UNK        -0.1009 
     11 C11        17.5428  -31.4307  -44.6341 C.ar      10 UNK        -0.0712 
     12 C12        18.5272  -31.1381  -45.5874 C.ar      10 UNK        -0.0894 
     13 C13        18.5371  -29.9066  -46.2512 C.ar      10 UNK        -0.0745 
     14 C14        17.5484  -28.9641  -45.9562 C.ar      10 UNK        -0.0972 
     15 C15        19.5771  -29.6024  -47.3261 C.3       10 UNK         0.0209 
     16 S16        21.2987  -29.5807  -46.7189 S.3       10 UNK        -0.2568 
     17 C17        21.2482  -28.3420  -45.3842 C.3       10 UNK        -0.0983 
     18 CA         21.3068  -26.8582  -45.8469 C.3       3 UNK         0.0876 
     19 N          20.6978  -25.9947  -44.8284 N.am      3 UNK        -0.4424 
     20 C          21.1971  -25.7433  -43.6062 C.2       2 UNK         0.4918 
     21 O          22.3159  -26.0891  -43.2247 O.2       2 UNK        -0.4875 
     22 CA         20.2184  -25.1205  -42.6077 C.3       2 UNK         0.0481 
     23 CB         19.6755  -23.7544  -43.0678 C.3       2 UNK        -0.1831 
     24 N          19.1519  -26.0987  -42.4440 N.am      2 UNK        -0.4498 
     25 C          18.2580  -26.1972  -41.4550 C.2       1 UNK         0.5027 
     26 O          18.1164  -25.3639  -40.5589 O.2       1 UNK        -0.4969 
     27 C          22.7105  -26.3515  -46.2569 C.2       3 UNK         0.5005 
     28 O          22.9196  -25.1375  -46.3312 O.2       3 UNK        -0.5279 
     29 N          23.6631  -27.2658  -46.4756 N.am      4 UNK        -0.4463 
     30 CA         25.0800  -26.9762  -46.7148 C.3       4 UNK         0.0283 
     31 CB         25.6902  -28.1307  -47.5319 C.3       4 UNK        -0.1875 
     32 C          25.8365  -26.7166  -45.3933 C.2       4 UNK         0.4949 
     33 O          26.8720  -27.3377  -45.1501 O.2       4 UNK        -0.5039 
     34 N          25.2881  -25.8192  -44.5588 N.am      5 UNK        -0.4663 
     35 CA         25.7339  -25.4533  -43.2064 C.3       5 UNK         0.0242 
     36 CB         27.0645  -24.6728  -43.2657 C.3       5 UNK        -0.1982 
     37 C          25.7850  -26.6682  -42.2570 C.2       5 UNK         0.5017 
     38 O          26.8042  -26.9047  -41.6043 O.2       5 UNK        -0.5012 
     39 N          24.6859  -27.4302  -42.2255 N.am      6 UNK        -0.4439 
     40 CA         24.5286  -28.6475  -41.4311 C.3       6 UNK         0.0297 
     41 CB         23.8470  -29.7132  -42.3012 C.3       6 UNK        -0.2006 
     42 C          23.7017  -28.3593  -40.1700 C.2       6 UNK         0.4892 
     43 O          22.8402  -27.4779  -40.1866 O.2       6 UNK        -0.5089 
     44 N          23.9820  -29.1135  -39.0998 N.am      7 UNK        -0.4243 
     45 CA         23.3321  -28.9644  -37.7945 C.3       7 UNK         0.0196 
     46 CB         24.3017  -29.4311  -36.6955 C.3       7 UNK        -0.2007 
     47 C          21.9990  -29.7238  -37.6820 C.2       7 UNK         0.5020 
     48 O          21.1428  -29.3093  -36.8997 O.2       7 UNK        -0.5147 
     49 N          21.8513  -30.8258  -38.4268 N.am      8 UNK        -0.4734 
     50 CA         20.6771  -31.6978  -38.4325 C.3       8 UNK         0.0238 
     51 CB         20.6474  -32.5599  -37.1535 C.3       8 UNK        -0.1912 
     52 C          20.7167  -32.5845  -39.6829 C.2       8 UNK         0.5038 
     53 O          21.7727  -32.7025  -40.3112 O.2       8 UNK        -0.5046 
     54 N          19.5733  -33.2018  -40.0091 N.am      9 UNK        -0.4200 
     55 CA         19.4206  -34.1476  -41.1307 C.3       9 UNK         0.0839 
     56 C          20.0487  -35.5512  -40.8835 C.2       9 UNK         0.5513 
     57 N          20.4745  -35.8914  -39.6727 N.am      9 UNK        -0.7519 
     58 O          20.1555  -36.3458  -41.8139 O.2       9 UNK        -0.4960 
     59 C59        17.9402  -34.2795  -41.5857 C.3       10 UNK        -0.0876 
     60 S60        17.2269  -32.6956  -42.1440 S.3       10 UNK        -0.2414 
     61 C61        17.5432  -32.7914  -43.9399 C.3       10 UNK         0.0169 
     62 H62        19.5878  -31.2659  -42.0508 H         1 UNK         0.0903 
     63 H63        19.8450  -30.0894  -43.3292 H         1 UNK         0.0903 
     64 H64        20.9830  -30.2135  -41.9867 H         1 UNK         0.0903 
     65 H65        17.8549  -28.8752  -43.0022 H         1 UNK         0.3096 
     66 H66        17.2079  -27.7303  -40.4214 H         1 UNK         0.1121 
     67 H67        15.4220  -28.1813  -42.0387 H         1 UNK         0.0849 
     68 H68        15.4579  -26.5091  -41.5849 H         1 UNK         0.0849 
     69 H69        14.6181  -28.6720  -44.2095 H         1 UNK         0.0865 
     70 H70        15.0324  -27.9142  -45.7203 H         1 UNK         0.0865 
     71 H71        15.7718  -30.7073  -43.6484 H         1 UNK         0.1346 
     72 H72        19.2877  -31.8707  -45.8218 H         1 UNK         0.1412 
     73 H73        17.5377  -28.0136  -46.4727 H         1 UNK         0.1426 
     74 H74        19.3668  -28.6462  -47.8073 H         1 UNK         0.0716 
     75 H75        19.4975  -30.3559  -48.1107 H         1 UNK         0.0716 
     76 H76        20.3262  -28.5068  -44.8295 H         1 UNK         0.0695 
     77 H77        22.0456  -28.5603  -44.6738 H         1 UNK         0.0695 
     78 H78        20.6831  -26.7517  -46.7356 H         1 UNK         0.0983 
     79 H79        19.7899  -25.6203  -45.0628 H         1 UNK         0.3095 
     80 H80        20.7351  -24.9984  -41.6535 H         1 UNK         0.0454 
     81 H81        20.4919  -23.0635  -43.2818 H         1 UNK         0.0851 
     82 H82        19.0657  -23.8336  -43.9680 H         1 UNK         0.0851 
     83 H83        19.0604  -23.2956  -42.2938 H         1 UNK         0.0851 
     84 H84        19.1779  -26.8669  -43.0994 H         1 UNK         0.2976 
     85 H85        23.4069  -28.2412  -46.3922 H         1 UNK         0.3116 
     86 H86        25.1627  -26.0679  -47.3154 H         1 UNK         0.0646 
     87 H87        26.7333  -27.9275  -47.7781 H         1 UNK         0.0847 
     88 H88        25.1605  -28.2741  -48.4738 H         1 UNK         0.0847 
     89 H89        25.6618  -29.0732  -46.9837 H         1 UNK         0.0847 
     90 H90        24.4223  -25.3873  -44.8658 H         1 UNK         0.3040 
     91 H91        24.9747  -24.7827  -42.8000 H         1 UNK         0.1015 
     92 H92        26.9839  -23.8010  -43.9150 H         1 UNK         0.0786 
     93 H93        27.8825  -25.2919  -43.6356 H         1 UNK         0.0786 
     94 H94        27.3505  -24.3138  -42.2763 H         1 UNK         0.0786 
     95 H95        23.8476  -27.0805  -42.6857 H         1 UNK         0.3172 
     96 H96        25.5058  -29.0295  -41.1278 H         1 UNK         0.0595 
     97 H97        23.6392  -30.6216  -41.7336 H         1 UNK         0.0839 
     98 H98        24.4766  -29.9937  -43.1458 H         1 UNK         0.0839 
     99 H99        22.9030  -29.3478  -42.7000 H         1 UNK         0.0839 
    100 H100       24.7041  -29.8164  -39.1712 H         1 UNK         0.2998 
    101 H101       23.1191  -27.9062  -37.6252 H         1 UNK         0.0822 
    102 H102       24.5616  -30.4848  -36.8051 H         1 UNK         0.0787 
    103 H103       25.2258  -28.8527  -36.7095 H         1 UNK         0.0787 
    104 H104       23.8587  -29.3065  -35.7063 H         1 UNK         0.0787 
    105 H105       22.5721  -31.0952  -39.0847 H         1 UNK         0.3055 
    106 H106       19.7800  -31.0761  -38.4818 H         1 UNK         0.1106 
    107 H107       21.5385  -33.1833  -37.0693 H         1 UNK         0.0828 
    108 H108       20.5868  -31.9444  -36.2560 H         1 UNK         0.0828 
    109 H109       19.7812  -33.2224  -37.1405 H         1 UNK         0.0828 
    110 H110       18.7509  -33.0532  -39.4432 H         1 UNK         0.2931 
    111 H111       19.9758  -33.7332  -41.9746 H         1 UNK         0.0412 
    112 H112       20.3953  -35.2494  -38.9013 H         1 UNK         0.3472 
    113 H113       20.8818  -36.8028  -39.5314 H         1 UNK         0.3472 
    114 H114       17.8423  -35.0071  -42.3941 H         1 UNK         0.0970 
    115 H115       17.3268  -34.6619  -40.7680 H         1 UNK         0.0970 
    116 H116       16.7872  -33.4279  -44.4012 H         1 UNK         0.0612 
    117 H117       18.5044  -33.2835  -44.0968 H         1 UNK         0.0612 
@<TRIPOS>BOND
     1    1    2 1    
     2    1   62 1    
     3    1   63 1    
     4    1   64 1    
     5    2    3 2    
     6    2    4 am   BACKBONE|DICT|INTERRES
     7    4    5 1    
     8    4   65 1    
     9    5    6 1    
    10    5   25 1    
    11    5   66 1    
    12    6    7 1    
    13    6   67 1    
    14    6   68 1    
    15    7    8 1    
    16    8    9 1    
    17    8   69 1    
    18    8   70 1    
    19    9   10 ar   
    20    9   14 ar   
    21   10   11 ar   
    22   10   71 1    
    23   11   12 ar   
    24   11   61 1    
    25   12   13 ar   
    26   12   72 1    
    27   13   14 ar   
    28   13   15 1    
    29   14   73 1    
    30   15   16 1    
    31   15   74 1    
    32   15   75 1    
    33   16   17 1    
    34   17   18 1    
    35   17   76 1    
    36   17   77 1    
    37   18   19 1    
    38   18   27 1    
    39   18   78 1    
    40   19   20 am   BACKBONE|DICT|INTERRES
    41   19   79 1    
    42   20   21 2    
    43   20   22 1    
    44   22   23 1    
    45   22   24 1    
    46   22   80 1    
    47   23   81 1    
    48   23   82 1    
    49   23   83 1    
    50   24   25 am   BACKBONE|DICT|INTERRES
    51   24   84 1    
    52   25   26 2    
    53   27   28 2    
    54   27   29 am   BACKBONE|DICT|INTERRES
    55   29   30 1    
    56   29   85 1    
    57   30   31 1    
    58   30   32 1    
    59   30   86 1    
    60   31   87 1    
    61   31   88 1    
    62   31   89 1    
    63   32   33 2    
    64   32   34 am   BACKBONE|DICT|INTERRES
    65   34   35 1    
    66   34   90 1    
    67   35   36 1    
    68   35   37 1    
    69   35   91 1    
    70   36   92 1    
    71   36   93 1    
    72   36   94 1    
    73   37   38 2    
    74   37   39 am   BACKBONE|DICT|INTERRES
    75   39   40 1    
    76   39   95 1    
    77   40   41 1    
    78   40   42 1    
    79   40   96 1    
    80   41   97 1    
    81   41   98 1    
    82   41   99 1    
    83   42   43 2    
    84   42   44 am   BACKBONE|DICT|INTERRES
    85   44   45 1    
    86   44  100 1    
    87   45   46 1    
    88   45   47 1    
    89   45  101 1    
    90   46  102 1    
    91   46  103 1    
    92   46  104 1    
    93   47   48 2    
    94   47   49 am   BACKBONE|DICT|INTERRES
    95   49   50 1    
    96   49  105 1    
    97   50   51 1    
    98   50   52 1    
    99   50  106 1    
   100   51  107 1    
   101   51  108 1    
   102   51  109 1    
   103   52   53 2    
   104   52   54 am   BACKBONE|DICT|INTERRES
   105   54   55 1    
   106   54  110 1    
   107   55   56 1    
   108   55   59 1    
   109   55  111 1    
   110   56   57 am   BACKBONE|DICT|INTERRES
   111   56   58 2    
   112   57  112 1    
   113   57  113 1    
   114   59   60 1    
   115   59  114 1    
   116   59  115 1    
   117   60   61 1    
   118   61  116 1    
   119   61  117 1    
@<TRIPOS>SUBSTRUCTURE
     1 UNK         1 GROUP             0       ****    0 ROOT    
