@<TRIPOS>MOLECULE
3R8
117   119    1
SMALL
USER_CHARGES


@<TRIPOS>ATOM
      1 CA         19.1241  -26.4812  -39.2738 C.3       0 UNK        -0.2013 
      2 C          18.4296  -25.8962  -40.4948 C.2       0 UNK         0.4866 
      3 O          18.0471  -24.7254  -40.4810 O.2       0 UNK        -0.5176 
      4 N          18.2579  -26.7055  -41.5464 N.am      1 UNK        -0.4884 
      5 CA         17.6842  -26.3027  -42.8358 C.3       1 UNK         0.0853 
      6 C6         17.2880  -27.5346  -43.6835 C.3       10 UNK        -0.0849 
      7 S7         16.0313  -28.6007  -42.8894 S.3       10 UNK        -0.2776 
      8 C8         15.5306  -29.6889  -44.2714 C.3       10 UNK         0.0316 
      9 C9         16.7298  -30.4286  -44.8438 C.ar      10 UNK        -0.0863 
     10 C10        17.1824  -31.6137  -44.2580 C.ar      10 UNK        -0.1009 
     11 C11        18.3830  -32.1975  -44.6788 C.ar      10 UNK        -0.0712 
     12 C12        19.1172  -31.6000  -45.7088 C.ar      10 UNK        -0.0894 
     13 C13        18.6648  -30.4175  -46.3005 C.ar      10 UNK        -0.0745 
     14 C14        17.4501  -29.8633  -45.8972 C.ar      10 UNK        -0.0972 
     15 C15        19.5448  -29.6426  -47.2618 C.3       10 UNK         0.0209 
     16 S16        20.4994  -28.4370  -46.2939 S.3       10 UNK        -0.2568 
     17 C17        21.0309  -27.2394  -47.5620 C.3       10 UNK        -0.0983 
     18 CA         21.6548  -25.9468  -46.9533 C.3       3 UNK         0.0876 
     19 N          20.7097  -25.1800  -46.1437 N.am      3 UNK        -0.4424 
     20 C          19.6548  -24.4872  -46.5733 C.2       2 UNK         0.4918 
     21 O          19.3124  -24.4246  -47.7553 O.2       2 UNK        -0.4875 
     22 CA         18.8498  -23.7410  -45.4881 C.3       2 UNK         0.0481 
     23 CB         17.8561  -22.7291  -46.0885 C.3       2 UNK        -0.1831 
     24 N          18.1177  -24.6557  -44.6055 N.am      2 UNK        -0.4498 
     25 C          18.6579  -25.3987  -43.6285 C.2       1 UNK         0.5027 
     26 O          19.8647  -25.4029  -43.3686 O.2       1 UNK        -0.4969 
     27 C          22.8989  -26.2142  -46.0789 C.2       3 UNK         0.5005 
     28 O          23.0302  -25.6306  -44.9972 O.2       3 UNK        -0.5279 
     29 N          23.7653  -27.1392  -46.5133 N.am      4 UNK        -0.4463 
     30 CA         24.8563  -27.7064  -45.7148 C.3       4 UNK         0.0283 
     31 CB         25.9197  -28.2930  -46.6619 C.3       4 UNK        -0.1875 
     32 C          24.3194  -28.7459  -44.7062 C.2       4 UNK         0.4949 
     33 O          24.6808  -29.9212  -44.7754 O.2       4 UNK        -0.5039 
     34 N          23.4405  -28.2918  -43.8018 N.am      5 UNK        -0.4663 
     35 CA         22.7639  -29.1026  -42.7835 C.3       5 UNK         0.0242 
     36 CB         21.6308  -28.2715  -42.1563 C.3       5 UNK        -0.1982 
     37 C          23.7083  -29.6356  -41.6934 C.2       5 UNK         0.5017 
     38 O          23.4192  -30.6782  -41.1023 O.2       5 UNK        -0.5012 
     39 N          24.7999  -28.8945  -41.4372 N.am      6 UNK        -0.4439 
     40 CA         25.9300  -29.2094  -40.5478 C.3       6 UNK         0.0297 
     41 CB         26.7483  -30.3742  -41.1440 C.3       6 UNK        -0.2006 
     42 C          25.5534  -29.4736  -39.0738 C.2       6 UNK         0.4892 
     43 O          26.3341  -30.0983  -38.3546 O.2       6 UNK        -0.5089 
     44 N          24.3531  -29.0320  -38.6659 N.am      7 UNK        -0.4243 
     45 CA         23.6565  -29.3471  -37.4097 C.3       7 UNK         0.0196 
     46 CB         24.4225  -28.7912  -36.1906 C.3       7 UNK        -0.2007 
     47 C          23.2984  -30.8426  -37.2465 C.2       7 UNK         0.5020 
     48 O          22.8916  -31.2479  -36.1568 O.2       7 UNK        -0.5147 
     49 N          23.4329  -31.6343  -38.3194 N.am      8 UNK        -0.4734 
     50 CA         23.0485  -33.0430  -38.3795 C.3       8 UNK         0.0238 
     51 CB         23.9871  -33.7913  -39.3411 C.3       8 UNK        -0.1912 
     52 C          21.5874  -33.1674  -38.8253 C.2       8 UNK         0.5038 
     53 O          20.8201  -33.8945  -38.1932 O.2       8 UNK        -0.5046 
     54 N          21.2276  -32.4302  -39.8835 N.am      9 UNK        -0.4200 
     55 CA         19.8426  -32.2448  -40.3286 C.3       9 UNK         0.0839 
     56 C          19.1038  -31.2392  -39.4071 C.2       9 UNK         0.5513 
     57 N          17.8543  -31.5138  -39.0611 N.am      9 UNK        -0.7519 
     58 O          19.6402  -30.1948  -39.0433 O.2       9 UNK        -0.4960 
     59 C59        19.7767  -31.7778  -41.8013 C.3       10 UNK        -0.0876 
     60 S60        20.4132  -33.0266  -42.9728 S.3       10 UNK        -0.2414 
     61 C61        18.9309  -33.4238  -43.9614 C.3       10 UNK         0.0169 
     62 H62        19.9948  -25.8801  -39.0134 H         1 UNK         0.0903 
     63 H63        18.4453  -26.4875  -38.4214 H         1 UNK         0.0903 
     64 H64        19.4603  -27.5032  -39.4474 H         1 UNK         0.0903 
     65 H65        18.5842  -27.6591  -41.4982 H         1 UNK         0.3096 
     66 H66        16.7841  -25.7178  -42.6322 H         1 UNK         0.1121 
     67 H67        16.8918  -27.2184  -44.6501 H         1 UNK         0.0849 
     68 H68        18.1743  -28.1376  -43.8928 H         1 UNK         0.0849 
     69 H69        14.7861  -30.4025  -43.9154 H         1 UNK         0.0865 
     70 H70        15.0406  -29.0954  -45.0450 H         1 UNK         0.0865 
     71 H71        16.6338  -32.0438  -43.4310 H         1 UNK         0.1346 
     72 H72        20.0728  -32.0163  -45.9971 H         1 UNK         0.1412 
     73 H73        17.1215  -28.9303  -46.3342 H         1 UNK         0.1426 
     74 H74        18.9327  -29.1311  -48.0063 H         1 UNK         0.0716 
     75 H75        20.2211  -30.3069  -47.8018 H         1 UNK         0.0716 
     76 H76        20.1673  -26.9791  -48.1753 H         1 UNK         0.0695 
     77 H77        21.7292  -27.7313  -48.2406 H         1 UNK         0.0695 
     78 H78        21.9852  -25.3037  -47.7714 H         1 UNK         0.0983 
     79 H79        20.9150  -25.1917  -45.1475 H         1 UNK         0.3095 
     80 H80        19.5644  -23.1770  -44.8847 H         1 UNK         0.0454 
     81 H81        18.3686  -22.0163  -46.7360 H         1 UNK         0.0851 
     82 H82        17.3561  -22.1531  -45.3098 H         1 UNK         0.0851 
     83 H83        17.0888  -23.2201  -46.6884 H         1 UNK         0.0851 
     84 H84        17.1255  -24.7324  -44.7785 H         1 UNK         0.2976 
     85 H85        23.5673  -27.6056  -47.3869 H         1 UNK         0.3116 
     86 H86        25.3307  -26.9082  -45.1398 H         1 UNK         0.0646 
     87 H87        25.5168  -29.1004  -47.2746 H         1 UNK         0.0847 
     88 H88        26.3196  -27.5310  -47.3309 H         1 UNK         0.0847 
     89 H89        26.7607  -28.7003  -46.0990 H         1 UNK         0.0847 
     90 H90        23.1765  -27.3131  -43.8648 H         1 UNK         0.3040 
     91 H91        22.3249  -29.9711  -43.2803 H         1 UNK         0.1015 
     92 H92        21.1624  -28.7939  -41.3213 H         1 UNK         0.0786 
     93 H93        20.8502  -28.0610  -42.8883 H         1 UNK         0.0786 
     94 H94        21.9919  -27.3161  -41.7741 H         1 UNK         0.0786 
     95 H95        24.8952  -28.0407  -41.9697 H         1 UNK         0.3172 
     96 H96        26.5676  -28.3243  -40.5410 H         1 UNK         0.0595 
     97 H97        26.1895  -31.3107  -41.1215 H         1 UNK         0.0839 
     98 H98        27.6733  -30.5337  -40.5887 H         1 UNK         0.0839 
     99 H99        27.0258  -30.1759  -42.1793 H         1 UNK         0.0839 
    100 H100       23.8031  -28.5276  -39.3467 H         1 UNK         0.2998 
    101 H101       22.7010  -28.8229  -37.4622 H         1 UNK         0.0822 
    102 H102       23.8266  -28.8788  -35.2813 H         1 UNK         0.0787 
    103 H103       24.6608  -27.7354  -36.3188 H         1 UNK         0.0787 
    104 H104       25.3553  -29.3280  -36.0166 H         1 UNK         0.0787 
    105 H105       23.7188  -31.2098  -39.1960 H         1 UNK         0.3055 
    106 H106       23.1421  -33.4941  -37.3888 H         1 UNK         0.1106 
    107 H107       25.0220  -33.7367  -39.0032 H         1 UNK         0.0828 
    108 H108       23.7207  -34.8473  -39.4019 H         1 UNK         0.0828 
    109 H109       23.9455  -33.3849  -40.3527 H         1 UNK         0.0828 
    110 H110       21.9252  -31.8484  -40.3333 H         1 UNK         0.2931 
    111 H111       19.3319  -33.2081  -40.2628 H         1 UNK         0.0412 
    112 H112       17.3545  -30.8626  -38.4761 H         1 UNK         0.3472 
    113 H113       17.4041  -32.3649  -39.3605 H         1 UNK         0.3472 
    114 H114       18.7492  -31.5237  -42.0598 H         1 UNK         0.0970 
    115 H115       20.3489  -30.8621  -41.9421 H         1 UNK         0.0970 
    116 H116       19.1891  -34.1867  -44.6970 H         1 UNK         0.0612 
    117 H117       18.1754  -33.8654  -43.3097 H         1 UNK         0.0612 
@<TRIPOS>BOND
     1    1    2 1    
     2    1   62 1    
     3    1   63 1    
     4    1   64 1    
     5    2    3 2    
     6    2    4 am   BACKBONE|DICT|INTERRES
     7    4    5 1    
     8    4   65 1    
     9    5    6 1    
    10    5   25 1    
    11    5   66 1    
    12    6    7 1    
    13    6   67 1    
    14    6   68 1    
    15    7    8 1    
    16    8    9 1    
    17    8   69 1    
    18    8   70 1    
    19    9   10 ar   
    20    9   14 ar   
    21   10   11 ar   
    22   10   71 1    
    23   11   12 ar   
    24   11   61 1    
    25   12   13 ar   
    26   12   72 1    
    27   13   14 ar   
    28   13   15 1    
    29   14   73 1    
    30   15   16 1    
    31   15   74 1    
    32   15   75 1    
    33   16   17 1    
    34   17   18 1    
    35   17   76 1    
    36   17   77 1    
    37   18   19 1    
    38   18   27 1    
    39   18   78 1    
    40   19   20 am   BACKBONE|DICT|INTERRES
    41   19   79 1    
    42   20   21 2    
    43   20   22 1    
    44   22   23 1    
    45   22   24 1    
    46   22   80 1    
    47   23   81 1    
    48   23   82 1    
    49   23   83 1    
    50   24   25 am   BACKBONE|DICT|INTERRES
    51   24   84 1    
    52   25   26 2    
    53   27   28 2    
    54   27   29 am   BACKBONE|DICT|INTERRES
    55   29   30 1    
    56   29   85 1    
    57   30   31 1    
    58   30   32 1    
    59   30   86 1    
    60   31   87 1    
    61   31   88 1    
    62   31   89 1    
    63   32   33 2    
    64   32   34 am   BACKBONE|DICT|INTERRES
    65   34   35 1    
    66   34   90 1    
    67   35   36 1    
    68   35   37 1    
    69   35   91 1    
    70   36   92 1    
    71   36   93 1    
    72   36   94 1    
    73   37   38 2    
    74   37   39 am   BACKBONE|DICT|INTERRES
    75   39   40 1    
    76   39   95 1    
    77   40   41 1    
    78   40   42 1    
    79   40   96 1    
    80   41   97 1    
    81   41   98 1    
    82   41   99 1    
    83   42   43 2    
    84   42   44 am   BACKBONE|DICT|INTERRES
    85   44   45 1    
    86   44  100 1    
    87   45   46 1    
    88   45   47 1    
    89   45  101 1    
    90   46  102 1    
    91   46  103 1    
    92   46  104 1    
    93   47   48 2    
    94   47   49 am   BACKBONE|DICT|INTERRES
    95   49   50 1    
    96   49  105 1    
    97   50   51 1    
    98   50   52 1    
    99   50  106 1    
   100   51  107 1    
   101   51  108 1    
   102   51  109 1    
   103   52   53 2    
   104   52   54 am   BACKBONE|DICT|INTERRES
   105   54   55 1    
   106   54  110 1    
   107   55   56 1    
   108   55   59 1    
   109   55  111 1    
   110   56   57 am   BACKBONE|DICT|INTERRES
   111   56   58 2    
   112   57  112 1    
   113   57  113 1    
   114   59   60 1    
   115   59  114 1    
   116   59  115 1    
   117   60   61 1    
   118   61  116 1    
   119   61  117 1    
@<TRIPOS>SUBSTRUCTURE
     1 UNK         1 GROUP             0       ****    0 ROOT    
