@<TRIPOS>MOLECULE
3R8
117   119    1
SMALL
USER_CHARGES


@<TRIPOS>ATOM
      1 CA         16.1079  -27.8142  -38.5186 C.3       0 UNK        -0.2013 
      2 C          16.5083  -28.1071  -39.9566 C.2       0 UNK         0.4866 
      3 O          17.0373  -29.1833  -40.2324 O.2       0 UNK        -0.5176 
      4 N          16.2570  -27.1579  -40.8704 N.am      1 UNK        -0.4884 
      5 CA         16.6160  -27.2070  -42.2935 C.3       1 UNK         0.0853 
      6 C6         15.8654  -28.3371  -43.0575 C.3       10 UNK        -0.0849 
      7 S7         15.6040  -27.9177  -44.8113 S.3       10 UNK        -0.2776 
      8 C8         15.9507  -29.4996  -45.6453 C.3       10 UNK         0.0316 
      9 C9         17.4381  -29.7126  -45.8907 C.ar      10 UNK        -0.0863 
     10 C10        18.1072  -30.8012  -45.3222 C.ar      10 UNK        -0.1009 
     11 C11        19.4631  -31.0309  -45.6006 C.ar      10 UNK        -0.0712 
     12 C12        20.1425  -30.1395  -46.4401 C.ar      10 UNK        -0.0894 
     13 C13        19.4855  -29.0492  -47.0180 C.ar      10 UNK        -0.0745 
     14 C14        18.1310  -28.8477  -46.7418 C.ar      10 UNK        -0.0972 
     15 C15        20.2124  -28.1433  -48.0069 C.3       10 UNK         0.0209 
     16 S16        20.0780  -26.3685  -47.6027 S.3       10 UNK        -0.2568 
     17 C17        21.5862  -26.0508  -46.6255 C.3       10 UNK        -0.0983 
     18 CA         21.2609  -25.5655  -45.1866 C.3       3 UNK         0.0876 
     19 N          20.5561  -26.5854  -44.3969 N.am      3 UNK        -0.4424 
     20 C          21.0727  -27.7238  -43.9130 C.2       2 UNK         0.4918 
     21 O          22.2387  -28.0799  -44.0961 O.2       2 UNK        -0.4875 
     22 CA         20.1662  -28.6062  -43.0393 C.3       2 UNK         0.0481 
     23 CB         20.7137  -28.6881  -41.6033 C.3       2 UNK        -0.1831 
     24 N          18.7376  -28.2588  -43.0220 N.am      2 UNK        -0.4498 
     25 C          18.1546  -27.2003  -42.4404 C.2       1 UNK         0.5027 
     26 O          18.7844  -26.2361  -42.0007 O.2       1 UNK        -0.4969 
     27 C          22.5043  -25.0140  -44.4442 C.2       3 UNK         0.5005 
     28 O          23.4996  -24.6616  -45.0807 O.2       3 UNK        -0.5279 
     29 N          22.4461  -25.0119  -43.1008 N.am      4 UNK        -0.4463 
     30 CA         23.5173  -24.7808  -42.1200 C.3       4 UNK         0.0283 
     31 CB         24.0938  -23.3563  -42.2291 C.3       4 UNK        -0.1875 
     32 C          24.6406  -25.8376  -42.1476 C.2       4 UNK         0.4949 
     33 O          25.0360  -26.3228  -41.0880 O.2       4 UNK        -0.5039 
     34 N          25.1282  -26.1790  -43.3463 N.am      5 UNK        -0.4663 
     35 CA         26.2628  -27.0653  -43.6154 C.3       5 UNK         0.0242 
     36 CB         26.5062  -27.1173  -45.1321 C.3       5 UNK        -0.1982 
     37 C          26.1269  -28.4874  -43.0478 C.2       5 UNK         0.5017 
     38 O          27.1288  -29.0436  -42.5970 O.2       5 UNK        -0.5012 
     39 N          24.9084  -29.0468  -43.0633 N.am      6 UNK        -0.4439 
     40 CA         24.6196  -30.3863  -42.5386 C.3       6 UNK         0.0297 
     41 CB         23.5339  -31.0462  -43.4029 C.3       6 UNK        -0.2006 
     42 C          24.2225  -30.3846  -41.0495 C.2       6 UNK         0.4892 
     43 O          23.8101  -31.4339  -40.5504 O.2       6 UNK        -0.5089 
     44 N          24.3174  -29.2259  -40.3759 N.am      7 UNK        -0.4243 
     45 CA         24.0102  -28.9477  -38.9655 C.3       7 UNK         0.0196 
     46 CB         24.9399  -29.7350  -38.0197 C.3       7 UNK        -0.2007 
     47 C          22.5288  -29.1347  -38.5939 C.2       7 UNK         0.5020 
     48 O          21.8665  -28.1606  -38.2378 O.2       7 UNK        -0.5147 
     49 N          22.0413  -30.3749  -38.6866 N.am      8 UNK        -0.4734 
     50 CA         20.6643  -30.7796  -38.3971 C.3       8 UNK         0.0238 
     51 CB         20.6017  -31.3618  -36.9730 C.3       8 UNK        -0.1912 
     52 C          20.1031  -31.7709  -39.4341 C.2       8 UNK         0.5038 
     53 O          18.9587  -32.1973  -39.2748 O.2       8 UNK        -0.5046 
     54 N          20.8882  -32.1249  -40.4660 N.am      9 UNK        -0.4200 
     55 CA         20.5433  -33.1232  -41.4925 C.3       9 UNK         0.0839 
     56 C          20.4167  -34.5659  -40.9041 C.2       9 UNK         0.5513 
     57 N          19.7272  -35.4769  -41.5759 N.am      9 UNK        -0.7519 
     58 O          20.9848  -34.8857  -39.8612 O.2       9 UNK        -0.4960 
     59 C59        19.3461  -32.6566  -42.3812 C.3       10 UNK        -0.0876 
     60 S60        19.3149  -33.4277  -44.0385 S.3       10 UNK        -0.2414 
     61 C61        20.2458  -32.2274  -45.0513 C.3       10 UNK         0.0169 
     62 H62        16.9846  -27.8478  -37.8722 H         1 UNK         0.0903 
     63 H63        15.6464  -26.8325  -38.4139 H         1 UNK         0.0903 
     64 H64        15.3973  -28.5622  -38.1679 H         1 UNK         0.0903 
     65 H65        15.8463  -26.2856  -40.5661 H         1 UNK         0.3096 
     66 H66        16.2814  -26.2505  -42.6993 H         1 UNK         0.1121 
     67 H67        16.3438  -29.3111  -42.9430 H         1 UNK         0.0849 
     68 H68        14.8696  -28.4637  -42.6296 H         1 UNK         0.0849 
     69 H69        15.5182  -30.3216  -45.0726 H         1 UNK         0.0865 
     70 H70        15.4377  -29.5029  -46.6082 H         1 UNK         0.0865 
     71 H71        17.5563  -31.4771  -44.6843 H         1 UNK         0.1346 
     72 H72        21.1868  -30.3116  -46.6640 H         1 UNK         0.1412 
     73 H73        17.6090  -28.0196  -47.2022 H         1 UNK         0.1426 
     74 H74        21.2622  -28.4235  -48.1036 H         1 UNK         0.0716 
     75 H75        19.7704  -28.2997  -48.9917 H         1 UNK         0.0716 
     76 H76        22.2199  -26.9386  -46.5993 H         1 UNK         0.0695 
     77 H77        22.1513  -25.2932  -47.1712 H         1 UNK         0.0695 
     78 H78        20.5807  -24.7163  -45.2686 H         1 UNK         0.0983 
     79 H79        19.5987  -26.3733  -44.1550 H         1 UNK         0.3095 
     80 H80        20.2241  -29.6066  -43.4602 H         1 UNK         0.0454 
     81 H81        21.6927  -29.1599  -41.5866 H         1 UNK         0.0851 
     82 H82        20.8259  -27.7040  -41.1472 H         1 UNK         0.0851 
     83 H83        20.0554  -29.2743  -40.9646 H         1 UNK         0.0851 
     84 H84        18.1296  -28.9530  -43.4339 H         1 UNK         0.2976 
     85 H85        21.5751  -25.3314  -42.6979 H         1 UNK         0.3116 
     86 H86        23.0390  -24.8635  -41.1425 H         1 UNK         0.0646 
     87 H87        24.8135  -23.1679  -41.4313 H         1 UNK         0.0847 
     88 H88        23.3103  -22.6037  -42.1424 H         1 UNK         0.0847 
     89 H89        24.6121  -23.1931  -43.1743 H         1 UNK         0.0847 
     90 H90        24.7095  -25.7149  -44.1497 H         1 UNK         0.3040 
     91 H91        27.1389  -26.6153  -43.1436 H         1 UNK         0.1015 
     92 H92        26.7203  -26.1266  -45.5338 H         1 UNK         0.0786 
     93 H93        25.6408  -27.5146  -45.6646 H         1 UNK         0.0786 
     94 H94        27.3592  -27.7541  -45.3714 H         1 UNK         0.0786 
     95 H95        24.1255  -28.5276  -43.4531 H         1 UNK         0.3172 
     96 H96        25.5148  -31.0059  -42.6220 H         1 UNK         0.0595 
     97 H97        23.4110  -32.0972  -43.1398 H         1 UNK         0.0839 
     98 H98        23.7877  -31.0079  -44.4624 H         1 UNK         0.0839 
     99 H99        22.5682  -30.5624  -43.2720 H         1 UNK         0.0839 
    100 H100       24.6424  -28.4158  -40.8927 H         1 UNK         0.2998 
    101 H101       24.2319  -27.8883  -38.8239 H         1 UNK         0.0822 
    102 H102       25.9866  -29.5003  -38.2134 H         1 UNK         0.0787 
    103 H103       24.7392  -29.4815  -36.9779 H         1 UNK         0.0787 
    104 H104       24.8177  -30.8137  -38.1194 H         1 UNK         0.0787 
    105 H105       22.6746  -31.0894  -39.0343 H         1 UNK         0.3055 
    106 H106       20.0104  -29.9053  -38.4401 H         1 UNK         0.1106 
    107 H107       19.5820  -31.6422  -36.7057 H         1 UNK         0.0828 
    108 H108       21.2224  -32.2534  -36.8770 H         1 UNK         0.0828 
    109 H109       20.9395  -30.6360  -36.2332 H         1 UNK         0.0828 
    110 H110       21.8402  -31.7810  -40.5045 H         1 UNK         0.2931 
    111 H111       21.4274  -33.1603  -42.1291 H         1 UNK         0.0412 
    112 H112       19.6557  -36.4151  -41.2144 H         1 UNK         0.3472 
    113 H113       19.2896  -35.2329  -42.4529 H         1 UNK         0.3472 
    114 H114       19.3735  -31.5750  -42.5128 H         1 UNK         0.0970 
    115 H115       18.3974  -32.8605  -41.8816 H         1 UNK         0.0970 
    116 H116       20.6637  -32.7744  -45.8975 H         1 UNK         0.0612 
    117 H117       21.0949  -31.8679  -44.4740 H         1 UNK         0.0612 
@<TRIPOS>BOND
     1    1    2 1    
     2    1   62 1    
     3    1   63 1    
     4    1   64 1    
     5    2    3 2    
     6    2    4 am   BACKBONE|DICT|INTERRES
     7    4    5 1    
     8    4   65 1    
     9    5    6 1    
    10    5   25 1    
    11    5   66 1    
    12    6    7 1    
    13    6   67 1    
    14    6   68 1    
    15    7    8 1    
    16    8    9 1    
    17    8   69 1    
    18    8   70 1    
    19    9   10 ar   
    20    9   14 ar   
    21   10   11 ar   
    22   10   71 1    
    23   11   12 ar   
    24   11   61 1    
    25   12   13 ar   
    26   12   72 1    
    27   13   14 ar   
    28   13   15 1    
    29   14   73 1    
    30   15   16 1    
    31   15   74 1    
    32   15   75 1    
    33   16   17 1    
    34   17   18 1    
    35   17   76 1    
    36   17   77 1    
    37   18   19 1    
    38   18   27 1    
    39   18   78 1    
    40   19   20 am   BACKBONE|DICT|INTERRES
    41   19   79 1    
    42   20   21 2    
    43   20   22 1    
    44   22   23 1    
    45   22   24 1    
    46   22   80 1    
    47   23   81 1    
    48   23   82 1    
    49   23   83 1    
    50   24   25 am   BACKBONE|DICT|INTERRES
    51   24   84 1    
    52   25   26 2    
    53   27   28 2    
    54   27   29 am   BACKBONE|DICT|INTERRES
    55   29   30 1    
    56   29   85 1    
    57   30   31 1    
    58   30   32 1    
    59   30   86 1    
    60   31   87 1    
    61   31   88 1    
    62   31   89 1    
    63   32   33 2    
    64   32   34 am   BACKBONE|DICT|INTERRES
    65   34   35 1    
    66   34   90 1    
    67   35   36 1    
    68   35   37 1    
    69   35   91 1    
    70   36   92 1    
    71   36   93 1    
    72   36   94 1    
    73   37   38 2    
    74   37   39 am   BACKBONE|DICT|INTERRES
    75   39   40 1    
    76   39   95 1    
    77   40   41 1    
    78   40   42 1    
    79   40   96 1    
    80   41   97 1    
    81   41   98 1    
    82   41   99 1    
    83   42   43 2    
    84   42   44 am   BACKBONE|DICT|INTERRES
    85   44   45 1    
    86   44  100 1    
    87   45   46 1    
    88   45   47 1    
    89   45  101 1    
    90   46  102 1    
    91   46  103 1    
    92   46  104 1    
    93   47   48 2    
    94   47   49 am   BACKBONE|DICT|INTERRES
    95   49   50 1    
    96   49  105 1    
    97   50   51 1    
    98   50   52 1    
    99   50  106 1    
   100   51  107 1    
   101   51  108 1    
   102   51  109 1    
   103   52   53 2    
   104   52   54 am   BACKBONE|DICT|INTERRES
   105   54   55 1    
   106   54  110 1    
   107   55   56 1    
   108   55   59 1    
   109   55  111 1    
   110   56   57 am   BACKBONE|DICT|INTERRES
   111   56   58 2    
   112   57  112 1    
   113   57  113 1    
   114   59   60 1    
   115   59  114 1    
   116   59  115 1    
   117   60   61 1    
   118   61  116 1    
   119   61  117 1    
@<TRIPOS>SUBSTRUCTURE
     1 UNK         1 GROUP             0       ****    0 ROOT    
