@<TRIPOS>MOLECULE
3R8
117   119    1
SMALL
USER_CHARGES


@<TRIPOS>ATOM
      1 CA         15.3625  -27.5649  -47.9538 C.3       0 UNK        -0.2013 
      2 C          16.7531  -27.6639  -47.3443 C.2       0 UNK         0.4866 
      3 O          16.9281  -27.3054  -46.1821 O.2       0 UNK        -0.5176 
      4 N          17.7279  -28.1463  -48.1277 N.am      1 UNK        -0.4884 
      5 CA         19.1461  -28.3373  -47.7863 C.3       1 UNK         0.0853 
      6 C6         19.4028  -29.6430  -46.9578 C.3       10 UNK        -0.0849 
      7 S7         19.5277  -29.5101  -45.1368 S.3       10 UNK        -0.2776 
      8 C8         17.9316  -30.1642  -44.5694 C.3       10 UNK         0.0316 
      9 C9         17.6748  -29.6854  -43.1511 C.ar      10 UNK        -0.0863 
     10 C10        18.1063  -30.4385  -42.0567 C.ar      10 UNK        -0.1009 
     11 C11        17.9491  -29.9589  -40.7482 C.ar      10 UNK        -0.0712 
     12 C12        17.3442  -28.7111  -40.5565 C.ar      10 UNK        -0.0894 
     13 C13        16.9064  -27.9508  -41.6450 C.ar      10 UNK        -0.0745 
     14 C14        17.0591  -28.4520  -42.9374 C.ar      10 UNK        -0.0972 
     15 C15        16.3130  -26.5669  -41.4362 C.3       10 UNK         0.0209 
     16 S16        17.6024  -25.3405  -41.0476 S.3       10 UNK        -0.2568 
     17 C17        18.5969  -25.2752  -42.5853 C.3       10 UNK        -0.0983 
     18 CA         19.8177  -26.2447  -42.6080 C.3       3 UNK         0.0876 
     19 N          20.3549  -26.4481  -43.9593 N.am      3 UNK        -0.4424 
     20 C          21.0430  -25.5537  -44.6871 C.2       2 UNK         0.4918 
     21 O          21.1933  -24.3737  -44.3678 O.2       2 UNK        -0.4875 
     22 CA         21.7077  -26.0629  -45.9812 C.3       2 UNK         0.0481 
     23 CB         23.1482  -26.5141  -45.6878 C.3       2 UNK        -0.1831 
     24 N          20.9782  -27.1690  -46.6045 N.am      2 UNK        -0.4498 
     25 C          19.8515  -27.0345  -47.3166 C.2       1 UNK         0.5027 
     26 O          19.3962  -25.9352  -47.6457 O.2       1 UNK        -0.4969 
     27 C          20.9583  -25.9253  -41.6101 C.2       3 UNK         0.5005 
     28 O          22.0267  -26.5328  -41.7118 O.2       3 UNK        -0.5279 
     29 N          20.7139  -25.0277  -40.6429 N.am      4 UNK        -0.4463 
     30 CA         21.6484  -24.5172  -39.6262 C.3       4 UNK         0.0283 
     31 CB         22.7197  -23.6320  -40.2975 C.3       4 UNK        -0.1875 
     32 C          22.2815  -25.6009  -38.7252 C.2       4 UNK         0.4949 
     33 O          23.3393  -25.3607  -38.1417 O.2       4 UNK        -0.5039 
     34 N          21.6367  -26.7761  -38.6474 N.am      5 UNK        -0.4663 
     35 CA         22.1155  -28.0165  -38.0219 C.3       5 UNK         0.0242 
     36 CB         22.1838  -27.8673  -36.4869 C.3       5 UNK        -0.1982 
     37 C          23.4319  -28.5464  -38.6355 C.2       5 UNK         0.5017 
     38 O          24.2131  -29.1932  -37.9344 O.2       5 UNK        -0.5012 
     39 N          23.6587  -28.2648  -39.9282 N.am      6 UNK        -0.4439 
     40 CA         24.8112  -28.7313  -40.7013 C.3       6 UNK         0.0297 
     41 CB         24.8747  -27.9404  -42.0202 C.3       6 UNK        -0.2006 
     42 C          24.7537  -30.2421  -40.9869 C.2       6 UNK         0.4892 
     43 O          23.7020  -30.8692  -40.8328 O.2       6 UNK        -0.5089 
     44 N          25.8826  -30.7843  -41.4676 N.am      7 UNK        -0.4243 
     45 CA         26.0754  -32.1926  -41.8437 C.3       7 UNK         0.0196 
     46 CB         27.5249  -32.3935  -42.3144 C.3       7 UNK        -0.2007 
     47 C          25.0902  -32.7260  -42.9023 C.2       7 UNK         0.5020 
     48 O          24.8736  -33.9359  -42.9642 O.2       7 UNK        -0.5147 
     49 N          24.4701  -31.8234  -43.6763 N.am      8 UNK        -0.4734 
     50 CA         23.3624  -32.1052  -44.5957 C.3       8 UNK         0.0238 
     51 CB         23.0099  -30.8191  -45.3598 C.3       8 UNK        -0.1912 
     52 C          22.1084  -32.6868  -43.9085 C.2       8 UNK         0.5038 
     53 O          21.3347  -33.3786  -44.5715 O.2       8 UNK        -0.5046 
     54 N          21.9454  -32.4279  -42.6025 N.am      9 UNK        -0.4200 
     55 CA         20.9429  -33.0664  -41.7378 C.3       9 UNK         0.0839 
     56 C          21.2674  -34.5498  -41.3753 C.2       9 UNK         0.5513 
     57 N          22.4585  -35.0695  -41.6520 N.am      9 UNK        -0.7519 
     58 O          20.4138  -35.2582  -40.8490 O.2       9 UNK        -0.4960 
     59 C59        20.6727  -32.1954  -40.4780 C.3       10 UNK        -0.0876 
     60 S60        19.0020  -32.4368  -39.7751 S.3       10 UNK        -0.2414 
     61 C61        18.4325  -30.7202  -39.5102 C.3       10 UNK         0.0169 
     62 H62        15.0252  -26.5287  -47.9492 H         1 UNK         0.0903 
     63 H63        15.3385  -27.9250  -48.9821 H         1 UNK         0.0903 
     64 H64        14.6559  -28.1556  -47.3713 H         1 UNK         0.0903 
     65 H65        17.4953  -28.3807  -49.0830 H         1 UNK         0.3096 
     66 H66        19.6059  -28.5191  -48.7596 H         1 UNK         0.1121 
     67 H67        20.3451  -30.0792  -47.2919 H         1 UNK         0.0849 
     68 H68        18.6557  -30.3983  -47.2071 H         1 UNK         0.0849 
     69 H69        17.1297  -29.8304  -45.2286 H         1 UNK         0.0865 
     70 H70        17.9433  -31.2542  -44.6166 H         1 UNK         0.0865 
     71 H71        18.5844  -31.3861  -42.2442 H         1 UNK         0.1346 
     72 H72        17.2319  -28.3169  -39.5554 H         1 UNK         0.1412 
     73 H73        16.7408  -27.8575  -43.7811 H         1 UNK         0.1426 
     74 H74        15.5960  -26.6001  -40.6147 H         1 UNK         0.0716 
     75 H75        15.7558  -26.2421  -42.3165 H         1 UNK         0.0716 
     76 H76        18.9226  -24.2460  -42.7462 H         1 UNK         0.0695 
     77 H77        17.9346  -25.5034  -43.4223 H         1 UNK         0.0695 
     78 H78        19.4660  -27.2299  -42.3046 H         1 UNK         0.0983 
     79 H79        20.2752  -27.3913  -44.3153 H         1 UNK         0.3095 
     80 H80        21.7518  -25.2299  -46.6861 H         1 UNK         0.0454 
     81 H81        23.1765  -27.3501  -44.9880 H         1 UNK         0.0851 
     82 H82        23.7276  -25.7027  -45.2449 H         1 UNK         0.0851 
     83 H83        23.6636  -26.8189  -46.5986 H         1 UNK         0.0851 
     84 H84        21.2833  -28.1040  -46.3742 H         1 UNK         0.2976 
     85 H85        19.7773  -24.6412  -40.6113 H         1 UNK         0.3116 
     86 H86        21.0594  -23.8817  -38.9634 H         1 UNK         0.0646 
     87 H87        23.3869  -24.2190  -40.9299 H         1 UNK         0.0847 
     88 H88        23.3372  -23.1259  -39.5544 H         1 UNK         0.0847 
     89 H89        22.2655  -22.8593  -40.9176 H         1 UNK         0.0847 
     90 H90        20.7730  -26.8542  -39.1656 H         1 UNK         0.3040 
     91 H91        21.3652  -28.7774  -38.2426 H         1 UNK         0.1015 
     92 H92        22.9680  -27.1740  -36.1814 H         1 UNK         0.0786 
     93 H93        22.3940  -28.8251  -36.0092 H         1 UNK         0.0786 
     94 H94        21.2390  -27.5060  -36.0808 H         1 UNK         0.0786 
     95 H95        22.9741  -27.7130  -40.4387 H         1 UNK         0.3172 
     96 H96        25.7142  -28.5246  -40.1233 H         1 UNK         0.0595 
     97 H97        25.7716  -28.1823  -42.5912 H         1 UNK         0.0839 
     98 H98        24.8930  -26.8656  -41.8371 H         1 UNK         0.0839 
     99 H99        24.0146  -28.1523  -42.6569 H         1 UNK         0.0839 
    100 H100       26.6895  -30.1856  -41.5724 H         1 UNK         0.2998 
    101 H101       25.9220  -32.7891  -40.9420 H         1 UNK         0.0822 
    102 H102       27.7108  -33.4368  -42.5741 H         1 UNK         0.0787 
    103 H103       27.7492  -31.7933  -43.1972 H         1 UNK         0.0787 
    104 H104       28.2378  -32.1257  -41.5342 H         1 UNK         0.0787 
    105 H105       24.7192  -30.8534  -43.5528 H         1 UNK         0.3055 
    106 H106       23.7105  -32.8516  -45.3132 H         1 UNK         0.1106 
    107 H107       22.2212  -31.0092  -46.0879 H         1 UNK         0.0828 
    108 H108       22.6544  -30.0360  -44.6887 H         1 UNK         0.0828 
    109 H109       23.8681  -30.4314  -45.9090 H         1 UNK         0.0828 
    110 H110       22.6384  -31.8594  -42.1237 H         1 UNK         0.2931 
    111 H111       20.0211  -33.1059  -42.3198 H         1 UNK         0.0412 
    112 H112       23.1827  -34.5284  -42.1116 H         1 UNK         0.3472 
    113 H113       22.6358  -36.0325  -41.4143 H         1 UNK         0.3472 
    114 H114       20.7786  -31.1392  -40.7324 H         1 UNK         0.0970 
    115 H115       21.4207  -32.3813  -39.7048 H         1 UNK         0.0970 
    116 H116       17.6130  -30.7590  -38.7910 H         1 UNK         0.0612 
    117 H117       19.2319  -30.1530  -39.0313 H         1 UNK         0.0612 
@<TRIPOS>BOND
     1    1    2 1    
     2    1   62 1    
     3    1   63 1    
     4    1   64 1    
     5    2    3 2    
     6    2    4 am   BACKBONE|DICT|INTERRES
     7    4    5 1    
     8    4   65 1    
     9    5    6 1    
    10    5   25 1    
    11    5   66 1    
    12    6    7 1    
    13    6   67 1    
    14    6   68 1    
    15    7    8 1    
    16    8    9 1    
    17    8   69 1    
    18    8   70 1    
    19    9   10 ar   
    20    9   14 ar   
    21   10   11 ar   
    22   10   71 1    
    23   11   12 ar   
    24   11   61 1    
    25   12   13 ar   
    26   12   72 1    
    27   13   14 ar   
    28   13   15 1    
    29   14   73 1    
    30   15   16 1    
    31   15   74 1    
    32   15   75 1    
    33   16   17 1    
    34   17   18 1    
    35   17   76 1    
    36   17   77 1    
    37   18   19 1    
    38   18   27 1    
    39   18   78 1    
    40   19   20 am   BACKBONE|DICT|INTERRES
    41   19   79 1    
    42   20   21 2    
    43   20   22 1    
    44   22   23 1    
    45   22   24 1    
    46   22   80 1    
    47   23   81 1    
    48   23   82 1    
    49   23   83 1    
    50   24   25 am   BACKBONE|DICT|INTERRES
    51   24   84 1    
    52   25   26 2    
    53   27   28 2    
    54   27   29 am   BACKBONE|DICT|INTERRES
    55   29   30 1    
    56   29   85 1    
    57   30   31 1    
    58   30   32 1    
    59   30   86 1    
    60   31   87 1    
    61   31   88 1    
    62   31   89 1    
    63   32   33 2    
    64   32   34 am   BACKBONE|DICT|INTERRES
    65   34   35 1    
    66   34   90 1    
    67   35   36 1    
    68   35   37 1    
    69   35   91 1    
    70   36   92 1    
    71   36   93 1    
    72   36   94 1    
    73   37   38 2    
    74   37   39 am   BACKBONE|DICT|INTERRES
    75   39   40 1    
    76   39   95 1    
    77   40   41 1    
    78   40   42 1    
    79   40   96 1    
    80   41   97 1    
    81   41   98 1    
    82   41   99 1    
    83   42   43 2    
    84   42   44 am   BACKBONE|DICT|INTERRES
    85   44   45 1    
    86   44  100 1    
    87   45   46 1    
    88   45   47 1    
    89   45  101 1    
    90   46  102 1    
    91   46  103 1    
    92   46  104 1    
    93   47   48 2    
    94   47   49 am   BACKBONE|DICT|INTERRES
    95   49   50 1    
    96   49  105 1    
    97   50   51 1    
    98   50   52 1    
    99   50  106 1    
   100   51  107 1    
   101   51  108 1    
   102   51  109 1    
   103   52   53 2    
   104   52   54 am   BACKBONE|DICT|INTERRES
   105   54   55 1    
   106   54  110 1    
   107   55   56 1    
   108   55   59 1    
   109   55  111 1    
   110   56   57 am   BACKBONE|DICT|INTERRES
   111   56   58 2    
   112   57  112 1    
   113   57  113 1    
   114   59   60 1    
   115   59  114 1    
   116   59  115 1    
   117   60   61 1    
   118   61  116 1    
   119   61  117 1    
@<TRIPOS>SUBSTRUCTURE
     1 UNK         1 GROUP             0       ****    0 ROOT    
