@<TRIPOS>MOLECULE
3R8
117   119    1
SMALL
USER_CHARGES


@<TRIPOS>ATOM
      1 CA         14.2653  -22.7926  -42.6135 C.3       0 UNK        -0.2013 
      2 C          15.0326  -23.5146  -43.7111 C.2       0 UNK         0.4866 
      3 O          14.9613  -23.1139  -44.8736 O.2       0 UNK        -0.5176 
      4 N          15.7577  -24.5817  -43.3540 N.am      1 UNK        -0.4884 
      5 CA         16.5937  -25.3706  -44.2655 C.3       1 UNK         0.0853 
      6 C6         17.0348  -26.7105  -43.6271 C.3       10 UNK        -0.0849 
      7 S7         15.6258  -27.7805  -43.1723 S.3       10 UNK        -0.2776 
      8 C8         15.7725  -29.1575  -44.3623 C.3       10 UNK         0.0316 
      9 C9         17.1001  -29.8965  -44.2406 C.ar      10 UNK        -0.0863 
     10 C10        17.4564  -30.5181  -43.0384 C.ar      10 UNK        -0.1009 
     11 C11        18.6905  -31.1617  -42.9127 C.ar      10 UNK        -0.0712 
     12 C12        19.5612  -31.1986  -44.0031 C.ar      10 UNK        -0.0894 
     13 C13        19.2181  -30.5844  -45.2098 C.ar      10 UNK        -0.0745 
     14 C14        17.9814  -29.9428  -45.3271 C.ar      10 UNK        -0.0972 
     15 C15        20.2096  -30.5806  -46.3657 C.3       10 UNK         0.0209 
     16 S16        20.8841  -28.9191  -46.7055 S.3       10 UNK        -0.2568 
     17 C17        21.4363  -28.3669  -45.0516 C.3       10 UNK        -0.0983 
     18 CA         21.7751  -26.8540  -44.9978 C.3       3 UNK         0.0876 
     19 N          20.6755  -26.0401  -45.5243 N.am      3 UNK        -0.4424 
     20 C          20.7656  -24.7955  -46.0102 C.2       2 UNK         0.4918 
     21 O          21.8181  -24.1567  -46.0542 O.2       2 UNK        -0.4875 
     22 CA         19.4666  -24.1529  -46.5330 C.3       2 UNK         0.0481 
     23 CB         19.4087  -24.2467  -48.0659 C.3       2 UNK        -0.1831 
     24 N          18.2519  -24.7514  -45.9662 N.am      2 UNK        -0.4498 
     25 C          17.8373  -24.5701  -44.7039 C.2       1 UNK         0.5027 
     26 O          18.4214  -23.8519  -43.8882 O.2       1 UNK        -0.4969 
     27 C          22.1485  -26.3959  -43.5693 C.2       3 UNK         0.5005 
     28 O          21.9890  -27.1561  -42.6115 O.2       3 UNK        -0.5279 
     29 N          22.6218  -25.1470  -43.4486 N.am      4 UNK        -0.4463 
     30 CA         22.8926  -24.4241  -42.1977 C.3       4 UNK         0.0283 
     31 CB         23.3787  -23.0062  -42.5390 C.3       4 UNK        -0.1875 
     32 C          23.8732  -25.1063  -41.2242 C.2       4 UNK         0.4949 
     33 O          23.8555  -24.7861  -40.0355 O.2       4 UNK        -0.5039 
     34 N          24.6947  -26.0370  -41.7285 N.am      5 UNK        -0.4663 
     35 CA         25.5794  -26.8901  -40.9329 C.3       5 UNK         0.0242 
     36 CB         26.5481  -27.6256  -41.8733 C.3       5 UNK        -0.1982 
     37 C          24.8297  -27.9025  -40.0460 C.2       5 UNK         0.5017 
     38 O          25.3960  -28.3335  -39.0417 O.2       5 UNK        -0.5012 
     39 N          23.6009  -28.2865  -40.4350 N.am      6 UNK        -0.4439 
     40 CA         22.6573  -29.2099  -39.7776 C.3       6 UNK         0.0297 
     41 CB         22.2126  -28.6577  -38.4106 C.3       6 UNK        -0.2006 
     42 C          23.1129  -30.6791  -39.6457 C.2       6 UNK         0.4892 
     43 O          22.2660  -31.5718  -39.6949 O.2       6 UNK        -0.5089 
     44 N          24.4245  -30.9140  -39.5097 N.am      7 UNK        -0.4243 
     45 CA         25.0919  -32.2071  -39.3114 C.3       7 UNK         0.0196 
     46 CB         26.5927  -31.9513  -39.0931 C.3       7 UNK        -0.2007 
     47 C          24.8801  -33.2486  -40.4275 C.2       7 UNK         0.5020 
     48 O          25.2160  -34.4162  -40.2282 O.2       7 UNK        -0.5147 
     49 N          24.3210  -32.8285  -41.5703 N.am      8 UNK        -0.4734 
     50 CA         23.8497  -33.7045  -42.6451 C.3       8 UNK         0.0238 
     51 CB         23.4742  -32.8471  -43.8646 C.3       8 UNK        -0.1912 
     52 C          22.6740  -34.6089  -42.2215 C.2       8 UNK         0.5038 
     53 O          22.5341  -35.6976  -42.7805 O.2       8 UNK        -0.5046 
     54 N          21.8749  -34.1638  -41.2414 N.am      9 UNK        -0.4200 
     55 CA         20.8580  -34.9793  -40.5661 C.3       9 UNK         0.0839 
     56 C          21.4901  -35.6977  -39.3476 C.2       9 UNK         0.5513 
     57 N          21.2744  -36.9986  -39.2104 N.am      9 UNK        -0.7519 
     58 O          22.1363  -35.0788  -38.5051 O.2       9 UNK        -0.4960 
     59 C59        19.6339  -34.1335  -40.1333 C.3       10 UNK        -0.0876 
     60 S60        18.6703  -33.5621  -41.5712 S.3       10 UNK        -0.2414 
     61 C61        19.1049  -31.8003  -41.5986 C.3       10 UNK         0.0169 
     62 H62        14.4069  -23.2620  -41.6401 H         1 UNK         0.0903 
     63 H63        14.5980  -21.7574  -42.5422 H         1 UNK         0.0903 
     64 H64        13.1989  -22.7935  -42.8380 H         1 UNK         0.0903 
     65 H65        15.7852  -24.8654  -42.3850 H         1 UNK         0.3096 
     66 H66        15.9973  -25.5912  -45.1541 H         1 UNK         0.1121 
     67 H67        17.6964  -27.2532  -44.3034 H         1 UNK         0.0849 
     68 H68        17.6222  -26.5298  -42.7243 H         1 UNK         0.0849 
     69 H69        14.9580  -29.8623  -44.1897 H         1 UNK         0.0865 
     70 H70        15.6314  -28.7689  -45.3721 H         1 UNK         0.0865 
     71 H71        16.7805  -30.4822  -42.1948 H         1 UNK         0.1346 
     72 H72        20.5151  -31.6945  -43.9033 H         1 UNK         0.1412 
     73 H73        17.7216  -29.4582  -46.2585 H         1 UNK         0.1426 
     74 H74        19.7178  -30.9547  -47.2646 H         1 UNK         0.0716 
     75 H75        21.0395  -31.2603  -46.1656 H         1 UNK         0.0716 
     76 H76        20.6496  -28.5849  -44.3284 H         1 UNK         0.0695 
     77 H77        22.3003  -28.9663  -44.7585 H         1 UNK         0.0695 
     78 H78        22.6528  -26.6916  -45.6276 H         1 UNK         0.0983 
     79 H79        19.7734  -26.4890  -45.5376 H         1 UNK         0.3095 
     80 H80        19.4891  -23.0960  -46.2586 H         1 UNK         0.0454 
     81 H81        20.2849  -23.7801  -48.5184 H         1 UNK         0.0851 
     82 H82        19.3792  -25.2819  -48.4083 H         1 UNK         0.0851 
     83 H83        18.5319  -23.7349  -48.4630 H         1 UNK         0.0851 
     84 H84        17.7142  -25.3464  -46.5810 H         1 UNK         0.2976 
     85 H85        22.6704  -24.5987  -44.3024 H         1 UNK         0.3116 
     86 H86        21.9396  -24.3378  -41.6719 H         1 UNK         0.0646 
     87 H87        23.5551  -22.4231  -41.6339 H         1 UNK         0.0847 
     88 H88        22.6408  -22.4641  -43.1309 H         1 UNK         0.0847 
     89 H89        24.3131  -23.0255  -43.1013 H         1 UNK         0.0847 
     90 H90        24.6465  -26.2227  -42.7195 H         1 UNK         0.3040 
     91 H91        26.1628  -26.2477  -40.2693 H         1 UNK         0.1015 
     92 H92        27.1474  -26.9240  -42.4539 H         1 UNK         0.0786 
     93 H93        26.0194  -28.2759  -42.5717 H         1 UNK         0.0786 
     94 H94        27.2420  -28.2502  -41.3086 H         1 UNK         0.0786 
     95 H95        23.2284  -27.8566  -41.2795 H         1 UNK         0.3172 
     96 H96        21.7779  -29.2241  -40.4239 H         1 UNK         0.0595 
     97 H97        21.7986  -27.6538  -38.5053 H         1 UNK         0.0839 
     98 H98        23.0387  -28.6144  -37.7001 H         1 UNK         0.0839 
     99 H99        21.4386  -29.2872  -37.9693 H         1 UNK         0.0839 
    100 H100       25.0125  -30.0889  -39.4228 H         1 UNK         0.2998 
    101 H101       24.6804  -32.6427  -38.3986 H         1 UNK         0.0822 
    102 H102       26.7638  -31.2955  -38.2391 H         1 UNK         0.0787 
    103 H103       27.1266  -32.8821  -38.8959 H         1 UNK         0.0787 
    104 H104       27.0522  -31.4896  -39.9681 H         1 UNK         0.0787 
    105 H105       24.0916  -31.8484  -41.6446 H         1 UNK         0.3055 
    106 H106       24.6733  -34.3639  -42.9285 H         1 UNK         0.1106 
    107 H107       22.7333  -32.0898  -43.6115 H         1 UNK         0.0828 
    108 H108       24.3471  -32.3356  -44.2708 H         1 UNK         0.0828 
    109 H109       23.0589  -33.4607  -44.6655 H         1 UNK         0.0828 
    110 H110       22.0925  -33.2793  -40.7937 H         1 UNK         0.2931 
    111 H111       20.4966  -35.7424  -41.2591 H         1 UNK         0.0412 
    112 H112       21.6647  -37.4796  -38.4147 H         1 UNK         0.3472 
    113 H113       20.7373  -37.5124  -39.8923 H         1 UNK         0.3472 
    114 H114       19.9417  -33.2861  -39.5169 H         1 UNK         0.0970 
    115 H115       18.9605  -34.7280  -39.5127 H         1 UNK         0.0970 
    116 H116       20.1810  -31.6865  -41.4611 H         1 UNK         0.0612 
    117 H117       18.6287  -31.2941  -40.7575 H         1 UNK         0.0612 
@<TRIPOS>BOND
     1    1    2 1    
     2    1   62 1    
     3    1   63 1    
     4    1   64 1    
     5    2    3 2    
     6    2    4 am   BACKBONE|DICT|INTERRES
     7    4    5 1    
     8    4   65 1    
     9    5    6 1    
    10    5   25 1    
    11    5   66 1    
    12    6    7 1    
    13    6   67 1    
    14    6   68 1    
    15    7    8 1    
    16    8    9 1    
    17    8   69 1    
    18    8   70 1    
    19    9   10 ar   
    20    9   14 ar   
    21   10   11 ar   
    22   10   71 1    
    23   11   12 ar   
    24   11   61 1    
    25   12   13 ar   
    26   12   72 1    
    27   13   14 ar   
    28   13   15 1    
    29   14   73 1    
    30   15   16 1    
    31   15   74 1    
    32   15   75 1    
    33   16   17 1    
    34   17   18 1    
    35   17   76 1    
    36   17   77 1    
    37   18   19 1    
    38   18   27 1    
    39   18   78 1    
    40   19   20 am   BACKBONE|DICT|INTERRES
    41   19   79 1    
    42   20   21 2    
    43   20   22 1    
    44   22   23 1    
    45   22   24 1    
    46   22   80 1    
    47   23   81 1    
    48   23   82 1    
    49   23   83 1    
    50   24   25 am   BACKBONE|DICT|INTERRES
    51   24   84 1    
    52   25   26 2    
    53   27   28 2    
    54   27   29 am   BACKBONE|DICT|INTERRES
    55   29   30 1    
    56   29   85 1    
    57   30   31 1    
    58   30   32 1    
    59   30   86 1    
    60   31   87 1    
    61   31   88 1    
    62   31   89 1    
    63   32   33 2    
    64   32   34 am   BACKBONE|DICT|INTERRES
    65   34   35 1    
    66   34   90 1    
    67   35   36 1    
    68   35   37 1    
    69   35   91 1    
    70   36   92 1    
    71   36   93 1    
    72   36   94 1    
    73   37   38 2    
    74   37   39 am   BACKBONE|DICT|INTERRES
    75   39   40 1    
    76   39   95 1    
    77   40   41 1    
    78   40   42 1    
    79   40   96 1    
    80   41   97 1    
    81   41   98 1    
    82   41   99 1    
    83   42   43 2    
    84   42   44 am   BACKBONE|DICT|INTERRES
    85   44   45 1    
    86   44  100 1    
    87   45   46 1    
    88   45   47 1    
    89   45  101 1    
    90   46  102 1    
    91   46  103 1    
    92   46  104 1    
    93   47   48 2    
    94   47   49 am   BACKBONE|DICT|INTERRES
    95   49   50 1    
    96   49  105 1    
    97   50   51 1    
    98   50   52 1    
    99   50  106 1    
   100   51  107 1    
   101   51  108 1    
   102   51  109 1    
   103   52   53 2    
   104   52   54 am   BACKBONE|DICT|INTERRES
   105   54   55 1    
   106   54  110 1    
   107   55   56 1    
   108   55   59 1    
   109   55  111 1    
   110   56   57 am   BACKBONE|DICT|INTERRES
   111   56   58 2    
   112   57  112 1    
   113   57  113 1    
   114   59   60 1    
   115   59  114 1    
   116   59  115 1    
   117   60   61 1    
   118   61  116 1    
   119   61  117 1    
@<TRIPOS>SUBSTRUCTURE
     1 UNK         1 GROUP             0       ****    0 ROOT    
