@<TRIPOS>MOLECULE
3R8
117   119    1
SMALL
USER_CHARGES


@<TRIPOS>ATOM
      1 CA         15.0108  -23.1595  -43.6416 C.3       0 UNK        -0.2013 
      2 C          15.9846  -24.2542  -44.0496 C.2       0 UNK         0.4866 
      3 O          16.1456  -24.5206  -45.2417 O.2       0 UNK        -0.5176 
      4 N          16.6394  -24.8944  -43.0727 N.am      1 UNK        -0.4884 
      5 CA         17.6230  -25.9624  -43.2787 C.3       1 UNK         0.0853 
      6 C6         17.7196  -26.9097  -42.0550 C.3       10 UNK        -0.0849 
      7 S7         16.1314  -27.7169  -41.6376 S.3       10 UNK        -0.2776 
      8 C8         15.7990  -28.7773  -43.0874 C.3       10 UNK         0.0316 
      9 C9         16.8884  -29.8184  -43.2900 C.ar      10 UNK        -0.0863 
     10 C10        16.8575  -31.0141  -42.5695 C.ar      10 UNK        -0.1009 
     11 C11        17.8818  -31.9550  -42.7070 C.ar      10 UNK        -0.0712 
     12 C12        18.9484  -31.6870  -43.5755 C.ar      10 UNK        -0.0894 
     13 C13        18.9932  -30.4872  -44.2919 C.ar      10 UNK        -0.0745 
     14 C14        17.9463  -29.5726  -44.1683 C.ar      10 UNK        -0.0972 
     15 C15        20.1923  -30.1366  -45.1554 C.3       10 UNK         0.0209 
     16 S16        21.3591  -29.0937  -44.2208 S.3       10 UNK        -0.2568 
     17 C17        22.4859  -28.5446  -45.5504 C.3       10 UNK        -0.0983 
     18 CA         22.7634  -27.0169  -45.5823 C.3       3 UNK         0.0876 
     19 N          21.5404  -26.2075  -45.5148 N.am      3 UNK        -0.4424 
     20 C          21.4962  -24.8878  -45.7487 C.2       2 UNK         0.4918 
     21 O          22.4643  -24.2458  -46.1606 O.2       2 UNK        -0.4875 
     22 CA         20.1708  -24.1356  -45.5134 C.3       2 UNK         0.0481 
     23 CB         19.6722  -23.5000  -46.8228 C.3       2 UNK        -0.1831 
     24 N          19.0763  -24.9216  -44.9377 N.am      2 UNK        -0.4498 
     25 C          18.9842  -25.3536  -43.6731 C.2       1 UNK         0.5027 
     26 O          19.8834  -25.2446  -42.8391 O.2       1 UNK        -0.4969 
     27 C          23.7755  -26.5803  -44.4999 C.2       3 UNK         0.5005 
     28 O          23.3777  -26.2962  -43.3676 O.2       3 UNK        -0.5279 
     29 N          25.0655  -26.5350  -44.8672 N.am      4 UNK        -0.4463 
     30 CA         26.1662  -25.9791  -44.0648 C.3       4 UNK         0.0283 
     31 CB         27.4640  -26.0261  -44.8878 C.3       4 UNK        -0.1875 
     32 C          26.3832  -26.6406  -42.6914 C.2       4 UNK         0.4949 
     33 O          26.9227  -25.9978  -41.7909 O.2       4 UNK        -0.5039 
     34 N          25.9480  -27.8982  -42.5493 N.am      5 UNK        -0.4663 
     35 CA         25.9590  -28.6479  -41.2926 C.3       5 UNK         0.0242 
     36 CB         25.8668  -30.1461  -41.6173 C.3       5 UNK        -0.1982 
     37 C          24.8432  -28.2359  -40.3103 C.2       5 UNK         0.5017 
     38 O          24.9048  -28.6617  -39.1569 O.2       5 UNK        -0.5012 
     39 N          23.8618  -27.4382  -40.7692 N.am      6 UNK        -0.4439 
     40 CA         22.6678  -26.9745  -40.0521 C.3       6 UNK         0.0297 
     41 CB         23.0453  -26.0687  -38.8603 C.3       6 UNK        -0.2006 
     42 C          21.7672  -28.1559  -39.6519 C.2       6 UNK         0.4892 
     43 O          21.7637  -28.5627  -38.4889 O.2       6 UNK        -0.5089 
     44 N          21.0480  -28.6853  -40.6523 N.am      7 UNK        -0.4243 
     45 CA         20.2432  -29.9123  -40.6321 C.3       7 UNK         0.0196 
     46 CB         19.1614  -29.9012  -39.5312 C.3       7 UNK        -0.2007 
     47 C          21.1589  -31.1479  -40.5903 C.2       7 UNK         0.5020 
     48 O          21.3180  -31.7850  -39.5488 O.2       7 UNK        -0.5147 
     49 N          21.7644  -31.4399  -41.7492 N.am      8 UNK        -0.4734 
     50 CA         22.7981  -32.4567  -41.9874 C.3       8 UNK         0.0238 
     51 CB         23.2440  -32.3449  -43.4575 C.3       8 UNK        -0.1912 
     52 C          22.4327  -33.9217  -41.6717 C.2       8 UNK         0.5038 
     53 O          23.3310  -34.7647  -41.6821 O.2       8 UNK        -0.5046 
     54 N          21.1491  -34.2160  -41.4342 N.am      9 UNK        -0.4200 
     55 CA         20.6221  -35.5689  -41.1765 C.3       9 UNK         0.0839 
     56 C          21.1067  -36.2171  -39.8468 C.2       9 UNK         0.5513 
     57 N          21.6010  -35.4521  -38.8803 N.am      9 UNK        -0.7519 
     58 O          21.0266  -37.4329  -39.6921 O.2       9 UNK        -0.4960 
     59 C59        19.0716  -35.6357  -41.2660 C.3       10 UNK        -0.0876 
     60 S60        18.3755  -34.7219  -42.6859 S.3       10 UNK        -0.2414 
     61 C61        17.8674  -33.1970  -41.8266 C.3       10 UNK         0.0169 
     62 H62        15.3091  -22.2089  -44.0831 H         1 UNK         0.0903 
     63 H63        14.0082  -23.3997  -43.9943 H         1 UNK         0.0903 
     64 H64        14.9687  -23.0333  -42.5599 H         1 UNK         0.0903 
     65 H65        16.4774  -24.6330  -42.1101 H         1 UNK         0.3096 
     66 H66        17.2986  -26.5597  -44.1307 H         1 UNK         0.1121 
     67 H67        18.4744  -27.6807  -42.2162 H         1 UNK         0.0849 
     68 H68        18.0512  -26.3575  -41.1736 H         1 UNK         0.0849 
     69 H69        14.8412  -29.2782  -42.9386 H         1 UNK         0.0865 
     70 H70        15.6734  -28.1661  -43.9816 H         1 UNK         0.0865 
     71 H71        16.0482  -31.1949  -41.8749 H         1 UNK         0.1346 
     72 H72        19.7625  -32.3927  -43.6651 H         1 UNK         0.1412 
     73 H73        17.9843  -28.6494  -44.7272 H         1 UNK         0.1426 
     74 H74        19.8567  -29.6089  -46.0496 H         1 UNK         0.0716 
     75 H75        20.7011  -31.0394  -45.4968 H         1 UNK         0.0716 
     76 H76        22.0613  -28.8374  -46.5115 H         1 UNK         0.0695 
     77 H77        23.4169  -29.1087  -45.4684 H         1 UNK         0.0695 
     78 H78        23.2206  -26.7991  -46.5503 H         1 UNK         0.0983 
     79 H79        20.7280  -26.6625  -45.1286 H         1 UNK         0.3095 
     80 H80        20.3935  -23.3269  -44.8144 H         1 UNK         0.0454 
     81 H81        20.4291  -22.8464  -47.2586 H         1 UNK         0.0851 
     82 H82        18.7831  -22.8912  -46.6564 H         1 UNK         0.0851 
     83 H83        19.4266  -24.2564  -47.5692 H         1 UNK         0.0851 
     84 H84        18.2420  -25.0007  -45.5085 H         1 UNK         0.2976 
     85 H85        25.3043  -26.8063  -45.8109 H         1 UNK         0.3116 
     86 H86        25.9240  -24.9314  -43.8746 H         1 UNK         0.0646 
     87 H87        27.7426  -27.0489  -45.1447 H         1 UNK         0.0847 
     88 H88        27.3704  -25.4587  -45.8139 H         1 UNK         0.0847 
     89 H89        28.2963  -25.5932  -44.3307 H         1 UNK         0.0847 
     90 H90        25.5223  -28.3464  -43.3474 H         1 UNK         0.3040 
     91 H91        26.9110  -28.4666  -40.7880 H         1 UNK         0.1015 
     92 H92        25.8865  -30.7499  -40.7088 H         1 UNK         0.0786 
     93 H93        26.7002  -30.4718  -42.2401 H         1 UNK         0.0786 
     94 H94        24.9425  -30.3746  -42.1436 H         1 UNK         0.0786 
     95 H95        23.9046  -27.1381  -41.7415 H         1 UNK         0.3172 
     96 H96        22.1041  -26.3610  -40.7576 H         1 UNK         0.0595 
     97 H97        23.6072  -26.6050  -38.0953 H         1 UNK         0.0839 
     98 H98        22.1507  -25.6690  -38.3815 H         1 UNK         0.0839 
     99 H99        23.6475  -25.2200  -39.1845 H         1 UNK         0.0839 
    100 H100       21.1604  -28.2662  -41.5662 H         1 UNK         0.2998 
    101 H101       19.7118  -29.9291  -41.5824 H         1 UNK         0.0822 
    102 H102       18.4996  -30.7612  -39.6367 H         1 UNK         0.0787 
    103 H103       18.5411  -29.0073  -39.5965 H         1 UNK         0.0787 
    104 H104       19.5862  -29.9457  -38.5285 H         1 UNK         0.0787 
    105 H105       21.5632  -30.8384  -42.5379 H         1 UNK         0.3055 
    106 H106       23.6435  -32.2100  -41.3428 H         1 UNK         0.1106 
    107 H107       23.5502  -31.3322  -43.7175 H         1 UNK         0.0828 
    108 H108       24.0939  -32.9980  -43.6609 H         1 UNK         0.0828 
    109 H109       22.4441  -32.6321  -44.1411 H         1 UNK         0.0828 
    110 H110       20.4787  -33.4643  -41.4291 H         1 UNK         0.2931 
    111 H111       21.0120  -36.1990  -41.9784 H         1 UNK         0.0412 
    112 H112       21.9140  -35.8774  -38.0217 H         1 UNK         0.3472 
    113 H113       21.6594  -34.4517  -39.0013 H         1 UNK         0.3472 
    114 H114       18.7537  -36.6764  -41.3538 H         1 UNK         0.0970 
    115 H115       18.6133  -35.2706  -40.3445 H         1 UNK         0.0970 
    116 H116       16.8743  -33.3619  -41.4055 H         1 UNK         0.0612 
    117 H117       18.5298  -33.0045  -40.9823 H         1 UNK         0.0612 
@<TRIPOS>BOND
     1    1    2 1    
     2    1   62 1    
     3    1   63 1    
     4    1   64 1    
     5    2    3 2    
     6    2    4 am   BACKBONE|DICT|INTERRES
     7    4    5 1    
     8    4   65 1    
     9    5    6 1    
    10    5   25 1    
    11    5   66 1    
    12    6    7 1    
    13    6   67 1    
    14    6   68 1    
    15    7    8 1    
    16    8    9 1    
    17    8   69 1    
    18    8   70 1    
    19    9   10 ar   
    20    9   14 ar   
    21   10   11 ar   
    22   10   71 1    
    23   11   12 ar   
    24   11   61 1    
    25   12   13 ar   
    26   12   72 1    
    27   13   14 ar   
    28   13   15 1    
    29   14   73 1    
    30   15   16 1    
    31   15   74 1    
    32   15   75 1    
    33   16   17 1    
    34   17   18 1    
    35   17   76 1    
    36   17   77 1    
    37   18   19 1    
    38   18   27 1    
    39   18   78 1    
    40   19   20 am   BACKBONE|DICT|INTERRES
    41   19   79 1    
    42   20   21 2    
    43   20   22 1    
    44   22   23 1    
    45   22   24 1    
    46   22   80 1    
    47   23   81 1    
    48   23   82 1    
    49   23   83 1    
    50   24   25 am   BACKBONE|DICT|INTERRES
    51   24   84 1    
    52   25   26 2    
    53   27   28 2    
    54   27   29 am   BACKBONE|DICT|INTERRES
    55   29   30 1    
    56   29   85 1    
    57   30   31 1    
    58   30   32 1    
    59   30   86 1    
    60   31   87 1    
    61   31   88 1    
    62   31   89 1    
    63   32   33 2    
    64   32   34 am   BACKBONE|DICT|INTERRES
    65   34   35 1    
    66   34   90 1    
    67   35   36 1    
    68   35   37 1    
    69   35   91 1    
    70   36   92 1    
    71   36   93 1    
    72   36   94 1    
    73   37   38 2    
    74   37   39 am   BACKBONE|DICT|INTERRES
    75   39   40 1    
    76   39   95 1    
    77   40   41 1    
    78   40   42 1    
    79   40   96 1    
    80   41   97 1    
    81   41   98 1    
    82   41   99 1    
    83   42   43 2    
    84   42   44 am   BACKBONE|DICT|INTERRES
    85   44   45 1    
    86   44  100 1    
    87   45   46 1    
    88   45   47 1    
    89   45  101 1    
    90   46  102 1    
    91   46  103 1    
    92   46  104 1    
    93   47   48 2    
    94   47   49 am   BACKBONE|DICT|INTERRES
    95   49   50 1    
    96   49  105 1    
    97   50   51 1    
    98   50   52 1    
    99   50  106 1    
   100   51  107 1    
   101   51  108 1    
   102   51  109 1    
   103   52   53 2    
   104   52   54 am   BACKBONE|DICT|INTERRES
   105   54   55 1    
   106   54  110 1    
   107   55   56 1    
   108   55   59 1    
   109   55  111 1    
   110   56   57 am   BACKBONE|DICT|INTERRES
   111   56   58 2    
   112   57  112 1    
   113   57  113 1    
   114   59   60 1    
   115   59  114 1    
   116   59  115 1    
   117   60   61 1    
   118   61  116 1    
   119   61  117 1    
@<TRIPOS>SUBSTRUCTURE
     1 UNK         1 GROUP             0       ****    0 ROOT    
