@<TRIPOS>MOLECULE
3R8
117   119    1
SMALL
USER_CHARGES


@<TRIPOS>ATOM
      1 CA         25.8056  -25.0629  -47.4856 C.3       0 UNK        -0.2013 
      2 C          24.8299  -25.4094  -46.3708 C.2       0 UNK         0.4866 
      3 O          24.6237  -24.6014  -45.4648 O.2       0 UNK        -0.5176 
      4 N          24.2345  -26.6075  -46.4247 N.am      1 UNK        -0.4884 
      5 CA         23.2203  -27.0726  -45.4751 C.3       1 UNK         0.0853 
      6 C6         23.1043  -28.6181  -45.5014 C.3       10 UNK        -0.0849 
      7 S7         22.0872  -29.3043  -44.1445 S.3       10 UNK        -0.2776 
      8 C8         20.6963  -30.0294  -45.0813 C.3       10 UNK         0.0316 
      9 C9         19.5046  -30.4182  -44.2082 C.ar      10 UNK        -0.0863 
     10 C10        19.6859  -31.0565  -42.9770 C.ar      10 UNK        -0.1009 
     11 C11        18.5910  -31.4184  -42.1863 C.ar      10 UNK        -0.0712 
     12 C12        17.2982  -31.1454  -42.6432 C.ar      10 UNK        -0.0894 
     13 C13        17.0958  -30.5104  -43.8720 C.ar      10 UNK        -0.0745 
     14 C14        18.2033  -30.1591  -44.6526 C.ar      10 UNK        -0.0972 
     15 C15        15.6800  -30.2043  -44.3490 C.3       10 UNK         0.0209 
     16 S16        15.4070  -28.4288  -44.6686 S.3       10 UNK        -0.2568 
     17 C17        15.4860  -27.6898  -42.9973 C.3       10 UNK        -0.0983 
     18 CA         16.9302  -27.3824  -42.5270 C.3       3 UNK         0.0876 
     19 N          17.7275  -26.6865  -43.5373 N.am      3 UNK        -0.4424 
     20 C          19.0530  -26.5465  -43.4626 C.2       2 UNK         0.4918 
     21 O          19.7386  -26.9854  -42.5302 O.2       2 UNK        -0.4875 
     22 CA         19.7202  -25.7812  -44.6092 C.3       2 UNK         0.0481 
     23 CB         19.6454  -24.2618  -44.3862 C.3       2 UNK        -0.1831 
     24 N          21.1084  -26.2080  -44.6445 N.am      2 UNK        -0.4498 
     25 C          21.8652  -26.3810  -45.7291 C.2       1 UNK         0.5027 
     26 O          21.5253  -26.0672  -46.8732 O.2       1 UNK        -0.4969 
     27 C          16.9575  -26.5935  -41.2033 C.2       3 UNK         0.5005 
     28 O          16.7979  -25.3711  -41.2229 O.2       3 UNK        -0.5279 
     29 N          17.2236  -27.3052  -40.0998 N.am      4 UNK        -0.4463 
     30 CA         17.4990  -26.8153  -38.7408 C.3       4 UNK         0.0283 
     31 CB         16.4055  -25.8599  -38.2191 C.3       4 UNK        -0.1875 
     32 C          18.9134  -26.2308  -38.5416 C.2       4 UNK         0.4949 
     33 O          19.3367  -26.1220  -37.3905 O.2       4 UNK        -0.5039 
     34 N          19.6466  -25.9140  -39.6218 N.am      5 UNK        -0.4663 
     35 CA         21.0864  -25.6241  -39.5656 C.3       5 UNK         0.0242 
     36 CB         21.5183  -24.7633  -40.7645 C.3       5 UNK        -0.1982 
     37 C          21.8911  -26.9327  -39.4919 C.2       5 UNK         0.5017 
     38 O          22.8402  -27.0154  -38.7126 O.2       5 UNK        -0.5012 
     39 N          21.4444  -27.9429  -40.2569 N.am      6 UNK        -0.4439 
     40 CA         21.8007  -29.3636  -40.1477 C.3       6 UNK         0.0297 
     41 CB         21.3237  -29.9259  -38.7898 C.3       6 UNK        -0.2006 
     42 C          23.2776  -29.7042  -40.4317 C.2       6 UNK         0.4892 
     43 O          23.7663  -30.7231  -39.9401 O.2       6 UNK        -0.5089 
     44 N          23.9566  -28.8742  -41.2362 N.am      7 UNK        -0.4243 
     45 CA         25.3807  -29.0004  -41.5723 C.3       7 UNK         0.0196 
     46 CB         25.8249  -27.7669  -42.3746 C.3       7 UNK        -0.2007 
     47 C          25.7557  -30.2899  -42.3284 C.2       7 UNK         0.5020 
     48 O          26.8907  -30.7495  -42.1994 O.2       7 UNK        -0.5147 
     49 N          24.8116  -30.8495  -43.0942 N.am      8 UNK        -0.4734 
     50 CA         24.9700  -32.0901  -43.8538 C.3       8 UNK         0.0238 
     51 CB         25.4266  -31.7750  -45.2922 C.3       8 UNK        -0.1912 
     52 C          23.6745  -32.9144  -43.7989 C.2       8 UNK         0.5038 
     53 O          23.2131  -33.4031  -44.8316 O.2       8 UNK        -0.5046 
     54 N          23.1029  -33.0463  -42.5933 N.am      9 UNK        -0.4200 
     55 CA         21.9096  -33.8700  -42.3290 C.3       9 UNK         0.0839 
     56 C          22.1494  -35.4060  -42.4470 C.2       9 UNK         0.5513 
     57 N          23.3809  -35.8916  -42.3367 N.am      9 UNK        -0.7519 
     58 O          21.2093  -36.1677  -42.6557 O.2       9 UNK        -0.4960 
     59 C59        21.2605  -33.4924  -40.9696 C.3       10 UNK        -0.0876 
     60 S60        19.4525  -33.7639  -40.9363 S.3       10 UNK        -0.2414 
     61 C61        18.7937  -32.0693  -40.8236 C.3       10 UNK         0.0169 
     62 H62        25.9034  -25.8721  -48.2092 H         1 UNK         0.0903 
     63 H63        25.4678  -24.1729  -48.0160 H         1 UNK         0.0903 
     64 H64        26.7922  -24.8585  -47.0706 H         1 UNK         0.0903 
     65 H65        24.4124  -27.2140  -47.2128 H         1 UNK         0.3096 
     66 H66        23.5532  -26.7772  -44.4779 H         1 UNK         0.1121 
     67 H67        22.7309  -28.9637  -46.4673 H         1 UNK         0.0849 
     68 H68        24.1011  -29.0474  -45.3984 H         1 UNK         0.0849 
     69 H69        20.3789  -29.3125  -45.8403 H         1 UNK         0.0865 
     70 H70        21.0485  -30.9147  -45.6127 H         1 UNK         0.0865 
     71 H71        20.6867  -31.2702  -42.6365 H         1 UNK         0.1346 
     72 H72        16.4465  -31.4195  -42.0355 H         1 UNK         0.1412 
     73 H73        18.0453  -29.6708  -45.6047 H         1 UNK         0.1426 
     74 H74        14.9369  -30.5541  -43.6307 H         1 UNK         0.0716 
     75 H75        15.4969  -30.7566  -45.2716 H         1 UNK         0.0716 
     76 H76        14.9874  -28.3552  -42.2903 H         1 UNK         0.0695 
     77 H77        14.8933  -26.7732  -43.0214 H         1 UNK         0.0695 
     78 H78        17.4300  -28.3345  -42.3463 H         1 UNK         0.0983 
     79 H79        17.2196  -26.2923  -44.3149 H         1 UNK         0.3095 
     80 H80        19.2234  -26.0473  -45.5446 H         1 UNK         0.0454 
     81 H81        20.1173  -23.9667  -43.4486 H         1 UNK         0.0851 
     82 H82        18.6101  -23.9207  -44.3517 H         1 UNK         0.0851 
     83 H83        20.1387  -23.7196  -45.1930 H         1 UNK         0.0851 
     84 H84        21.4224  -26.5938  -43.7626 H         1 UNK         0.2976 
     85 H85        17.3443  -28.3031  -40.2101 H         1 UNK         0.3116 
     86 H86        17.4624  -27.7069  -38.1128 H         1 UNK         0.0646 
     87 H87        16.4335  -24.8911  -38.7179 H         1 UNK         0.0847 
     88 H88        16.5358  -25.6708  -37.1528 H         1 UNK         0.0847 
     89 H89        15.4094  -26.2812  -38.3532 H         1 UNK         0.0847 
     90 H90        19.2374  -26.0266  -40.5402 H         1 UNK         0.3040 
     91 H91        21.2953  -25.0526  -38.6581 H         1 UNK         0.1015 
     92 H92        20.9067  -23.8650  -40.8491 H         1 UNK         0.0786 
     93 H93        21.4579  -25.3018  -41.7082 H         1 UNK         0.0786 
     94 H94        22.5535  -24.4396  -40.6495 H         1 UNK         0.0786 
     95 H95        20.7151  -27.7265  -40.9312 H         1 UNK         0.3172 
     96 H96        21.2297  -29.8621  -40.9280 H         1 UNK         0.0595 
     97 H97        21.8943  -29.5086  -37.9595 H         1 UNK         0.0839 
     98 H98        21.4376  -31.0092  -38.7430 H         1 UNK         0.0839 
     99 H99        20.2712  -29.7040  -38.6143 H         1 UNK         0.0839 
    100 H100       23.4683  -28.0709  -41.6021 H         1 UNK         0.2998 
    101 H101       25.9319  -29.0086  -40.6295 H         1 UNK         0.0822 
    102 H102       25.5938  -26.8402  -41.8488 H         1 UNK         0.0787 
    103 H103       26.9028  -27.7822  -42.5422 H         1 UNK         0.0787 
    104 H104       25.3492  -27.7310  -43.3539 H         1 UNK         0.0787 
    105 H105       23.9039  -30.4025  -43.1521 H         1 UNK         0.3055 
    106 H106       25.7390  -32.7082  -43.3845 H         1 UNK         0.1106 
    107 H107       25.6631  -32.6920  -45.8331 H         1 UNK         0.0828 
    108 H108       26.3231  -31.1550  -45.3010 H         1 UNK         0.0828 
    109 H109       24.6517  -31.2587  -45.8583 H         1 UNK         0.0828 
    110 H110       23.5500  -32.6199  -41.7933 H         1 UNK         0.2931 
    111 H111       21.1954  -33.6184  -43.1159 H         1 UNK         0.0412 
    112 H112       24.1626  -35.2808  -42.1628 H         1 UNK         0.3472 
    113 H113       23.5277  -36.8855  -42.4216 H         1 UNK         0.3472 
    114 H114       21.7159  -34.0504  -40.1491 H         1 UNK         0.0970 
    115 H115       21.4556  -32.4461  -40.7378 H         1 UNK         0.0970 
    116 H116       17.8444  -32.1186  -40.2881 H         1 UNK         0.0612 
    117 H117       19.4431  -31.4490  -40.2091 H         1 UNK         0.0612 
@<TRIPOS>BOND
     1    1    2 1    
     2    1   62 1    
     3    1   63 1    
     4    1   64 1    
     5    2    3 2    
     6    2    4 am   BACKBONE|DICT|INTERRES
     7    4    5 1    
     8    4   65 1    
     9    5    6 1    
    10    5   25 1    
    11    5   66 1    
    12    6    7 1    
    13    6   67 1    
    14    6   68 1    
    15    7    8 1    
    16    8    9 1    
    17    8   69 1    
    18    8   70 1    
    19    9   10 ar   
    20    9   14 ar   
    21   10   11 ar   
    22   10   71 1    
    23   11   12 ar   
    24   11   61 1    
    25   12   13 ar   
    26   12   72 1    
    27   13   14 ar   
    28   13   15 1    
    29   14   73 1    
    30   15   16 1    
    31   15   74 1    
    32   15   75 1    
    33   16   17 1    
    34   17   18 1    
    35   17   76 1    
    36   17   77 1    
    37   18   19 1    
    38   18   27 1    
    39   18   78 1    
    40   19   20 am   BACKBONE|DICT|INTERRES
    41   19   79 1    
    42   20   21 2    
    43   20   22 1    
    44   22   23 1    
    45   22   24 1    
    46   22   80 1    
    47   23   81 1    
    48   23   82 1    
    49   23   83 1    
    50   24   25 am   BACKBONE|DICT|INTERRES
    51   24   84 1    
    52   25   26 2    
    53   27   28 2    
    54   27   29 am   BACKBONE|DICT|INTERRES
    55   29   30 1    
    56   29   85 1    
    57   30   31 1    
    58   30   32 1    
    59   30   86 1    
    60   31   87 1    
    61   31   88 1    
    62   31   89 1    
    63   32   33 2    
    64   32   34 am   BACKBONE|DICT|INTERRES
    65   34   35 1    
    66   34   90 1    
    67   35   36 1    
    68   35   37 1    
    69   35   91 1    
    70   36   92 1    
    71   36   93 1    
    72   36   94 1    
    73   37   38 2    
    74   37   39 am   BACKBONE|DICT|INTERRES
    75   39   40 1    
    76   39   95 1    
    77   40   41 1    
    78   40   42 1    
    79   40   96 1    
    80   41   97 1    
    81   41   98 1    
    82   41   99 1    
    83   42   43 2    
    84   42   44 am   BACKBONE|DICT|INTERRES
    85   44   45 1    
    86   44  100 1    
    87   45   46 1    
    88   45   47 1    
    89   45  101 1    
    90   46  102 1    
    91   46  103 1    
    92   46  104 1    
    93   47   48 2    
    94   47   49 am   BACKBONE|DICT|INTERRES
    95   49   50 1    
    96   49  105 1    
    97   50   51 1    
    98   50   52 1    
    99   50  106 1    
   100   51  107 1    
   101   51  108 1    
   102   51  109 1    
   103   52   53 2    
   104   52   54 am   BACKBONE|DICT|INTERRES
   105   54   55 1    
   106   54  110 1    
   107   55   56 1    
   108   55   59 1    
   109   55  111 1    
   110   56   57 am   BACKBONE|DICT|INTERRES
   111   56   58 2    
   112   57  112 1    
   113   57  113 1    
   114   59   60 1    
   115   59  114 1    
   116   59  115 1    
   117   60   61 1    
   118   61  116 1    
   119   61  117 1    
@<TRIPOS>SUBSTRUCTURE
     1 UNK         1 GROUP             0       ****    0 ROOT    
