@<TRIPOS>MOLECULE
3R8
117   119    1
SMALL
USER_CHARGES


@<TRIPOS>ATOM
      1 CA         16.9875  -23.3254  -40.4053 C.3       0 UNK        -0.2013 
      2 C          17.3227  -23.5951  -41.8646 C.2       0 UNK         0.4866 
      3 O          17.6474  -22.6625  -42.6008 O.2       0 UNK        -0.5176 
      4 N          17.2389  -24.8625  -42.2894 N.am      1 UNK        -0.4884 
      5 CA         17.6137  -25.3202  -43.6325 C.3       1 UNK         0.0853 
      6 C6         17.0107  -26.7195  -43.9305 C.3       10 UNK        -0.0849 
      7 S7         16.5669  -26.9076  -45.6878 S.3       10 UNK        -0.2776 
      8 C8         15.6074  -28.4594  -45.6544 C.3       10 UNK         0.0316 
      9 C9         16.5102  -29.6692  -45.4636 C.ar      10 UNK        -0.0863 
     10 C10        16.5012  -30.3904  -44.2632 C.ar      10 UNK        -0.1009 
     11 C11        17.3761  -31.4676  -44.0819 C.ar      10 UNK        -0.0712 
     12 C12        18.2355  -31.8406  -45.1169 C.ar      10 UNK        -0.0894 
     13 C13        18.2955  -31.0852  -46.2901 C.ar      10 UNK        -0.0745 
     14 C14        17.4035  -30.0280  -46.4776 C.ar      10 UNK        -0.0972 
     15 C15        19.4436  -31.3006  -47.2629 C.3       10 UNK         0.0209 
     16 S16        20.7678  -30.0592  -47.0061 S.3       10 UNK        -0.2568 
     17 C17        20.9680  -30.0504  -45.1846 C.3       10 UNK        -0.0983 
     18 CA         21.7711  -28.8555  -44.6289 C.3       3 UNK         0.0876 
     19 N          21.2324  -27.5740  -45.0909 N.am      3 UNK        -0.4424 
     20 C          21.8476  -26.3942  -44.9480 C.2       2 UNK         0.4918 
     21 O          22.9633  -26.2591  -44.4456 O.2       2 UNK        -0.4875 
     22 CA         21.0561  -25.1527  -45.3987 C.3       2 UNK         0.0481 
     23 CB         21.2172  -24.9313  -46.9106 C.3       2 UNK        -0.1831 
     24 N          19.6272  -25.2048  -45.0556 N.am      2 UNK        -0.4498 
     25 C          19.1494  -25.3075  -43.8068 C.2       1 UNK         0.5027 
     26 O          19.8752  -25.4265  -42.8167 O.2       1 UNK        -0.4969 
     27 C          21.7974  -28.9317  -43.0867 C.2       3 UNK         0.5005 
     28 O          22.7432  -29.4800  -42.5228 O.2       3 UNK        -0.5279 
     29 N          20.7687  -28.3724  -42.4303 N.am      4 UNK        -0.4463 
     30 CA         20.6334  -28.3294  -40.9718 C.3       4 UNK         0.0283 
     31 CB         19.2006  -27.9316  -40.5814 C.3       4 UNK        -0.1875 
     32 C          21.6593  -27.3878  -40.3277 C.2       4 UNK         0.4949 
     33 O          22.2217  -27.7309  -39.2895 O.2       4 UNK        -0.5039 
     34 N          21.9383  -26.2541  -40.9862 N.am      5 UNK        -0.4663 
     35 CA         23.0083  -25.3182  -40.6258 C.3       5 UNK         0.0242 
     36 CB         22.8969  -24.0594  -41.5003 C.3       5 UNK        -0.1982 
     37 C          24.4140  -25.9403  -40.7354 C.2       5 UNK         0.5017 
     38 O          25.2927  -25.5909  -39.9474 O.2       5 UNK        -0.5012 
     39 N          24.5854  -26.8765  -41.6793 N.am      6 UNK        -0.4439 
     40 CA         25.7841  -27.7034  -41.8449 C.3       6 UNK         0.0297 
     41 CB         25.8908  -28.1282  -43.3199 C.3       6 UNK        -0.2006 
     42 C          25.8091  -28.9391  -40.9186 C.2       6 UNK         0.4892 
     43 O          26.8093  -29.6577  -40.9226 O.2       6 UNK        -0.5089 
     44 N          24.7244  -29.1741  -40.1617 N.am      7 UNK        -0.4243 
     45 CA         24.4735  -30.3076  -39.2615 C.3       7 UNK         0.0196 
     46 CB         25.4651  -30.3044  -38.0785 C.3       7 UNK        -0.2007 
     47 C          24.4010  -31.6707  -39.9804 C.2       7 UNK         0.5020 
     48 O          24.6917  -32.7006  -39.3697 O.2       7 UNK        -0.5147 
     49 N          23.9972  -31.6697  -41.2578 N.am      8 UNK        -0.4734 
     50 CA         23.9114  -32.8661  -42.1002 C.3       8 UNK         0.0238 
     51 CB         24.0754  -32.4558  -43.5722 C.3       8 UNK        -0.1912 
     52 C          22.6185  -33.6757  -41.8916 C.2       8 UNK         0.5038 
     53 O          22.5654  -34.8263  -42.3285 O.2       8 UNK        -0.5046 
     54 N          21.6104  -33.0847  -41.2339 N.am      9 UNK        -0.4200 
     55 CA         20.3373  -33.7433  -40.8838 C.3       9 UNK         0.0839 
     56 C          20.4539  -34.8208  -39.7651 C.2       9 UNK         0.5513 
     57 N          21.5624  -34.9162  -39.0396 N.am      9 UNK        -0.7519 
     58 O          19.5176  -35.5874  -39.5546 O.2       9 UNK        -0.4960 
     59 C59        19.2148  -32.7257  -40.5408 C.3       10 UNK        -0.0876 
     60 S60        18.9481  -31.4932  -41.8545 S.3       10 UNK        -0.2414 
     61 C61        17.5015  -32.1613  -42.7360 C.3       10 UNK         0.0169 
     62 H62        16.1605  -22.6194  -40.3341 H         1 UNK         0.0903 
     63 H63        16.7036  -24.2349  -39.8763 H         1 UNK         0.0903 
     64 H64        17.8495  -22.8936  -39.8975 H         1 UNK         0.0903 
     65 H65        16.9856  -25.5856  -41.6321 H         1 UNK         0.3096 
     66 H66        17.1961  -24.5953  -44.3357 H         1 UNK         0.1121 
     67 H67        16.0911  -26.8613  -43.3599 H         1 UNK         0.0849 
     68 H68        17.6743  -27.5317  -43.6256 H         1 UNK         0.0849 
     69 H69        15.0700  -28.5625  -46.5983 H         1 UNK         0.0865 
     70 H70        14.8457  -28.4080  -44.8748 H         1 UNK         0.0865 
     71 H71        15.8484  -30.0879  -43.4557 H         1 UNK         0.1346 
     72 H72        18.9494  -32.6365  -44.9530 H         1 UNK         0.1412 
     73 H73        17.4600  -29.4319  -47.3786 H         1 UNK         0.1426 
     74 H74        19.0804  -31.2349  -48.2894 H         1 UNK         0.0716 
     75 H75        19.8639  -32.3007  -47.1462 H         1 UNK         0.0716 
     76 H76        21.4103  -31.0011  -44.8864 H         1 UNK         0.0695 
     77 H77        19.9859  -30.0108  -44.7189 H         1 UNK         0.0695 
     78 H78        22.8012  -28.9375  -44.9827 H         1 UNK         0.0983 
     79 H79        20.3313  -27.6032  -45.5452 H         1 UNK         0.3095 
     80 H80        21.4831  -24.2897  -44.8834 H         1 UNK         0.0454 
     81 H81        20.7753  -25.7432  -47.4897 H         1 UNK         0.0851 
     82 H82        22.2713  -24.8720  -47.1856 H         1 UNK         0.0851 
     83 H83        20.7501  -23.9989  -47.2279 H         1 UNK         0.0851 
     84 H84        18.9717  -25.1403  -45.8223 H         1 UNK         0.2976 
     85 H85        20.0586  -27.8967  -42.9652 H         1 UNK         0.3116 
     86 H86        20.8199  -29.3356  -40.5904 H         1 UNK         0.0646 
     87 H87        18.4626  -28.5874  -41.0430 H         1 UNK         0.0847 
     88 H88        18.9672  -26.9070  -40.8683 H         1 UNK         0.0847 
     89 H89        19.0635  -28.0018  -39.5017 H         1 UNK         0.0847 
     90 H90        21.3663  -26.0137  -41.7928 H         1 UNK         0.3040 
     91 H91        22.8593  -25.0280  -39.5834 H         1 UNK         0.1015 
     92 H92        23.6548  -23.3246  -41.2253 H         1 UNK         0.0786 
     93 H93        21.9236  -23.5817  -41.3852 H         1 UNK         0.0786 
     94 H94        23.0324  -24.2887  -42.5577 H         1 UNK         0.0786 
     95 H95        23.8107  -27.0734  -42.3000 H         1 UNK         0.3172 
     96 H96        26.6624  -27.1008  -41.6045 H         1 UNK         0.0595 
     97 H97        25.0681  -28.7794  -43.6153 H         1 UNK         0.0839 
     98 H98        26.8170  -28.6742  -43.5035 H         1 UNK         0.0839 
     99 H99        25.8880  -27.2637  -43.9843 H         1 UNK         0.0839 
    100 H100       23.9552  -28.5190  -40.2330 H         1 UNK         0.2998 
    101 H101       23.4774  -30.1426  -38.8489 H         1 UNK         0.0822 
    102 H102       25.4842  -29.3349  -37.5807 H         1 UNK         0.0787 
    103 H103       25.1840  -31.0456  -37.3295 H         1 UNK         0.0787 
    104 H104       26.4806  -30.5378  -38.3999 H         1 UNK         0.0787 
    105 H105       23.7115  -30.7889  -41.6856 H         1 UNK         0.3055 
    106 H106       24.7413  -33.5300  -41.8470 H         1 UNK         0.1106 
    107 H107       24.0405  -33.3255  -44.2298 H         1 UNK         0.0828 
    108 H108       25.0321  -31.9607  -43.7400 H         1 UNK         0.0828 
    109 H109       23.2886  -31.7745  -43.8890 H         1 UNK         0.0828 
    110 H110       21.7284  -32.1317  -40.9259 H         1 UNK         0.2931 
    111 H111       20.0100  -34.2820  -41.7754 H         1 UNK         0.0412 
    112 H112       22.3416  -34.2979  -39.2061 H         1 UNK         0.3472 
    113 H113       21.6227  -35.6209  -38.3213 H         1 UNK         0.3472 
    114 H114       18.2716  -33.2396  -40.3449 H         1 UNK         0.0970 
    115 H115       19.4600  -32.1890  -39.6226 H         1 UNK         0.0970 
    116 H116       16.6033  -32.0169  -42.1338 H         1 UNK         0.0612 
    117 H117       17.6202  -33.2360  -42.8825 H         1 UNK         0.0612 
@<TRIPOS>BOND
     1    1    2 1    
     2    1   62 1    
     3    1   63 1    
     4    1   64 1    
     5    2    3 2    
     6    2    4 am   BACKBONE|DICT|INTERRES
     7    4    5 1    
     8    4   65 1    
     9    5    6 1    
    10    5   25 1    
    11    5   66 1    
    12    6    7 1    
    13    6   67 1    
    14    6   68 1    
    15    7    8 1    
    16    8    9 1    
    17    8   69 1    
    18    8   70 1    
    19    9   10 ar   
    20    9   14 ar   
    21   10   11 ar   
    22   10   71 1    
    23   11   12 ar   
    24   11   61 1    
    25   12   13 ar   
    26   12   72 1    
    27   13   14 ar   
    28   13   15 1    
    29   14   73 1    
    30   15   16 1    
    31   15   74 1    
    32   15   75 1    
    33   16   17 1    
    34   17   18 1    
    35   17   76 1    
    36   17   77 1    
    37   18   19 1    
    38   18   27 1    
    39   18   78 1    
    40   19   20 am   BACKBONE|DICT|INTERRES
    41   19   79 1    
    42   20   21 2    
    43   20   22 1    
    44   22   23 1    
    45   22   24 1    
    46   22   80 1    
    47   23   81 1    
    48   23   82 1    
    49   23   83 1    
    50   24   25 am   BACKBONE|DICT|INTERRES
    51   24   84 1    
    52   25   26 2    
    53   27   28 2    
    54   27   29 am   BACKBONE|DICT|INTERRES
    55   29   30 1    
    56   29   85 1    
    57   30   31 1    
    58   30   32 1    
    59   30   86 1    
    60   31   87 1    
    61   31   88 1    
    62   31   89 1    
    63   32   33 2    
    64   32   34 am   BACKBONE|DICT|INTERRES
    65   34   35 1    
    66   34   90 1    
    67   35   36 1    
    68   35   37 1    
    69   35   91 1    
    70   36   92 1    
    71   36   93 1    
    72   36   94 1    
    73   37   38 2    
    74   37   39 am   BACKBONE|DICT|INTERRES
    75   39   40 1    
    76   39   95 1    
    77   40   41 1    
    78   40   42 1    
    79   40   96 1    
    80   41   97 1    
    81   41   98 1    
    82   41   99 1    
    83   42   43 2    
    84   42   44 am   BACKBONE|DICT|INTERRES
    85   44   45 1    
    86   44  100 1    
    87   45   46 1    
    88   45   47 1    
    89   45  101 1    
    90   46  102 1    
    91   46  103 1    
    92   46  104 1    
    93   47   48 2    
    94   47   49 am   BACKBONE|DICT|INTERRES
    95   49   50 1    
    96   49  105 1    
    97   50   51 1    
    98   50   52 1    
    99   50  106 1    
   100   51  107 1    
   101   51  108 1    
   102   51  109 1    
   103   52   53 2    
   104   52   54 am   BACKBONE|DICT|INTERRES
   105   54   55 1    
   106   54  110 1    
   107   55   56 1    
   108   55   59 1    
   109   55  111 1    
   110   56   57 am   BACKBONE|DICT|INTERRES
   111   56   58 2    
   112   57  112 1    
   113   57  113 1    
   114   59   60 1    
   115   59  114 1    
   116   59  115 1    
   117   60   61 1    
   118   61  116 1    
   119   61  117 1    
@<TRIPOS>SUBSTRUCTURE
     1 UNK         1 GROUP             0       ****    0 ROOT    
