@<TRIPOS>MOLECULE
3R8
117   119    1
SMALL
USER_CHARGES


@<TRIPOS>ATOM
      1 CA         12.2259  -25.6234  -44.8083 C.3       0 UNK        -0.2013 
      2 C          13.6507  -26.0974  -44.5602 C.2       0 UNK         0.4866 
      3 O          14.0293  -26.2804  -43.4037 O.2       0 UNK        -0.5176 
      4 N          14.4213  -26.2869  -45.6428 N.am      1 UNK        -0.4884 
      5 CA         15.8243  -26.7266  -45.7050 C.3       1 UNK         0.0853 
      6 C6         15.9937  -28.2755  -45.7187 C.3       10 UNK        -0.0849 
      7 S7         15.5643  -29.1809  -44.1859 S.3       10 UNK        -0.2776 
      8 C8         16.7629  -30.5544  -44.1974 C.3       10 UNK         0.0316 
      9 C9         18.1914  -30.0831  -43.9598 C.ar      10 UNK        -0.0863 
     10 C10        18.6435  -29.8209  -42.6635 C.ar      10 UNK        -0.1009 
     11 C11        19.9667  -29.4149  -42.4322 C.ar      10 UNK        -0.0712 
     12 C12        20.8242  -29.2604  -43.5247 C.ar      10 UNK        -0.0894 
     13 C13        20.3761  -29.4911  -44.8291 C.ar      10 UNK        -0.0745 
     14 C14        19.0657  -29.9224  -45.0365 C.ar      10 UNK        -0.0972 
     15 C15        21.2922  -29.2694  -46.0233 C.3       10 UNK         0.0209 
     16 S16        21.2294  -27.5395  -46.5987 S.3       10 UNK        -0.2568 
     17 C17        22.3256  -26.7335  -45.3835 C.3       10 UNK        -0.0983 
     18 CA         21.6457  -25.6910  -44.4501 C.3       3 UNK         0.0876 
     19 N          20.3322  -26.1246  -43.9601 N.am      3 UNK        -0.4424 
     20 C          19.4842  -25.3601  -43.2605 C.2       2 UNK         0.4918 
     21 O          19.6599  -24.1583  -43.0471 O.2       2 UNK        -0.4875 
     22 CA         18.2319  -26.0724  -42.7195 C.3       2 UNK         0.0481 
     23 CB         17.4064  -25.1933  -41.7566 C.3       2 UNK        -0.1831 
     24 N          17.3826  -26.6123  -43.7858 N.am      2 UNK        -0.4498 
     25 C          16.7535  -25.9318  -44.7551 C.2       1 UNK         0.5027 
     26 O          16.8664  -24.7162  -44.9290 O.2       1 UNK        -0.4969 
     27 C          22.6042  -25.3961  -43.2758 C.2       3 UNK         0.5005 
     28 O          22.4274  -25.9418  -42.1814 O.2       3 UNK        -0.5279 
     29 N          23.6787  -24.6435  -43.5491 N.am      4 UNK        -0.4463 
     30 CA         24.8244  -24.4573  -42.6486 C.3       4 UNK         0.0283 
     31 CB         25.5779  -23.1762  -43.0528 C.3       4 UNK        -0.1875 
     32 C          25.7389  -25.7041  -42.6263 C.2       4 UNK         0.4949 
     33 O          26.9380  -25.6034  -42.8901 O.2       4 UNK        -0.5039 
     34 N          25.1411  -26.8646  -42.3414 N.am      5 UNK        -0.4663 
     35 CA         25.7555  -28.1854  -42.3396 C.3       5 UNK         0.0242 
     36 CB         25.8456  -28.7318  -43.7792 C.3       5 UNK        -0.1982 
     37 C          24.9100  -29.0790  -41.4284 C.2       5 UNK         0.5017 
     38 O          24.0330  -29.7967  -41.9115 O.2       5 UNK        -0.5012 
     39 N          25.1691  -29.0024  -40.1160 N.am      6 UNK        -0.4439 
     40 CA         24.4399  -29.7208  -39.0610 C.3       6 UNK         0.0297 
     41 CB         24.9839  -29.2939  -37.6884 C.3       6 UNK        -0.2006 
     42 C          24.4534  -31.2571  -39.1886 C.2       6 UNK         0.4892 
     43 O          23.5581  -31.9090  -38.6542 O.2       6 UNK        -0.5089 
     44 N          25.4359  -31.8087  -39.9139 N.am      7 UNK        -0.4243 
     45 CA         25.5235  -33.2295  -40.2585 C.3       7 UNK         0.0196 
     46 CB         26.9061  -33.5121  -40.8685 C.3       7 UNK        -0.2007 
     47 C          24.4096  -33.7076  -41.2113 C.2       7 UNK         0.5020 
     48 O          24.1050  -34.9004  -41.2154 O.2       7 UNK        -0.5147 
     49 N          23.8287  -32.7930  -42.0024 N.am      8 UNK        -0.4734 
     50 CA         22.7392  -33.0901  -42.9378 C.3       8 UNK         0.0238 
     51 CB         22.8559  -32.1612  -44.1566 C.3       8 UNK        -0.1912 
     52 C          21.3436  -32.9947  -42.2929 C.2       8 UNK         0.5038 
     53 O          20.3874  -33.5072  -42.8765 O.2       8 UNK        -0.5046 
     54 N          21.2448  -32.3668  -41.1127 N.am      9 UNK        -0.4200 
     55 CA         20.0243  -32.3118  -40.2937 C.3       9 UNK         0.0839 
     56 C          19.6762  -33.7019  -39.6915 C.2       9 UNK         0.5513 
     57 N          18.3954  -33.9865  -39.4988 N.am      9 UNK        -0.7519 
     58 O          20.5480  -34.5015  -39.3571 O.2       9 UNK        -0.4960 
     59 C59        20.1351  -31.2288  -39.1811 C.3       10 UNK        -0.0876 
     60 S60        19.4610  -29.5960  -39.6374 S.3       10 UNK        -0.2414 
     61 C61        20.5106  -29.0819  -41.0397 C.3       10 UNK         0.0169 
     62 H62        12.0594  -24.6643  -44.3185 H         1 UNK         0.0903 
     63 H63        12.0119  -25.5031  -45.8702 H         1 UNK         0.0903 
     64 H64        11.5160  -26.3421  -44.3996 H         1 UNK         0.0903 
     65 H65        14.0173  -26.0781  -46.5455 H         1 UNK         0.3096 
     66 H66        16.1510  -26.4011  -46.6946 H         1 UNK         0.1121 
     67 H67        17.0157  -28.5090  -46.0113 H         1 UNK         0.0849 
     68 H68        15.3767  -28.6913  -46.5167 H         1 UNK         0.0849 
     69 H69        16.4856  -31.2691  -43.4209 H         1 UNK         0.0865 
     70 H70        16.6863  -31.0943  -45.1426 H         1 UNK         0.0865 
     71 H71        17.9501  -29.9351  -41.8430 H         1 UNK         0.1346 
     72 H72        21.8426  -28.9404  -43.3516 H         1 UNK         0.1412 
     73 H73        18.7235  -30.1220  -46.0429 H         1 UNK         0.1426 
     74 H74        22.3178  -29.5513  -45.7810 H         1 UNK         0.0716 
     75 H75        20.9921  -29.9200  -46.8462 H         1 UNK         0.0716 
     76 H76        23.1233  -26.2482  -45.9487 H         1 UNK         0.0695 
     77 H77        22.8276  -27.5091  -44.8038 H         1 UNK         0.0695 
     78 H78        21.4919  -24.7659  -45.0098 H         1 UNK         0.0983 
     79 H79        20.1114  -27.1010  -44.0981 H         1 UNK         0.3095 
     80 H80        18.5842  -26.9279  -42.1439 H         1 UNK         0.0454 
     81 H81        16.5532  -25.7407  -41.3557 H         1 UNK         0.0851 
     82 H82        17.0264  -24.2962  -42.2461 H         1 UNK         0.0851 
     83 H83        18.0124  -24.8694  -40.9098 H         1 UNK         0.0851 
     84 H84        17.1959  -27.6072  -43.7355 H         1 UNK         0.2976 
     85 H85        23.7822  -24.2670  -44.4811 H         1 UNK         0.3116 
     86 H86        24.4523  -24.3139  -41.6318 H         1 UNK         0.0646 
     87 H87        24.9256  -22.3036  -43.0178 H         1 UNK         0.0847 
     88 H88        26.4098  -22.9820  -42.3744 H         1 UNK         0.0847 
     89 H89        25.9895  -23.2488  -44.0602 H         1 UNK         0.0847 
     90 H90        24.1483  -26.8341  -42.1172 H         1 UNK         0.3040 
     91 H91        26.7643  -28.1217  -41.9255 H         1 UNK         0.1015 
     92 H92        24.8666  -28.7826  -44.2567 H         1 UNK         0.0786 
     93 H93        26.2644  -29.7389  -43.7877 H         1 UNK         0.0786 
     94 H94        26.4880  -28.1087  -44.4015 H         1 UNK         0.0786 
     95 H95        25.8947  -28.3701  -39.8079 H         1 UNK         0.3172 
     96 H96        23.3955  -29.4077  -39.1228 H         1 UNK         0.0595 
     97 H97        26.0383  -29.5489  -37.5742 H         1 UNK         0.0839 
     98 H98        24.4407  -29.7888  -36.8818 H         1 UNK         0.0839 
     99 H99        24.8774  -28.2201  -37.5336 H         1 UNK         0.0839 
    100 H100       26.1364  -31.1990  -40.3088 H         1 UNK         0.2998 
    101 H101       25.4309  -33.8052  -39.3349 H         1 UNK         0.0822 
    102 H102       27.7070  -33.2545  -40.1752 H         1 UNK         0.0787 
    103 H103       27.0171  -34.5703  -41.1096 H         1 UNK         0.0787 
    104 H104       27.0634  -32.9501  -41.7901 H         1 UNK         0.0787 
    105 H105       24.1092  -31.8191  -41.9328 H         1 UNK         0.3055 
    106 H106       22.8436  -34.1163  -43.2978 H         1 UNK         0.1106 
    107 H107       23.7744  -32.3520  -44.7113 H         1 UNK         0.0828 
    108 H108       22.0233  -32.3066  -44.8464 H         1 UNK         0.0828 
    109 H109       22.8589  -31.1134  -43.8635 H         1 UNK         0.0828 
    110 H110       22.0925  -32.0351  -40.6771 H         1 UNK         0.2931 
    111 H111       19.2005  -32.0448  -40.9580 H         1 UNK         0.0412 
    112 H112       17.6723  -33.3323  -39.7558 H         1 UNK         0.3472 
    113 H113       18.1454  -34.8756  -39.0941 H         1 UNK         0.3472 
    114 H114       19.5825  -31.5258  -38.2871 H         1 UNK         0.0970 
    115 H115       21.1628  -31.1050  -38.8431 H         1 UNK         0.0970 
    116 H116       20.6409  -28.0005  -40.9811 H         1 UNK         0.0612 
    117 H117       21.5046  -29.5130  -40.9170 H         1 UNK         0.0612 
@<TRIPOS>BOND
     1    1    2 1    
     2    1   62 1    
     3    1   63 1    
     4    1   64 1    
     5    2    3 2    
     6    2    4 am   BACKBONE|DICT|INTERRES
     7    4    5 1    
     8    4   65 1    
     9    5    6 1    
    10    5   25 1    
    11    5   66 1    
    12    6    7 1    
    13    6   67 1    
    14    6   68 1    
    15    7    8 1    
    16    8    9 1    
    17    8   69 1    
    18    8   70 1    
    19    9   10 ar   
    20    9   14 ar   
    21   10   11 ar   
    22   10   71 1    
    23   11   12 ar   
    24   11   61 1    
    25   12   13 ar   
    26   12   72 1    
    27   13   14 ar   
    28   13   15 1    
    29   14   73 1    
    30   15   16 1    
    31   15   74 1    
    32   15   75 1    
    33   16   17 1    
    34   17   18 1    
    35   17   76 1    
    36   17   77 1    
    37   18   19 1    
    38   18   27 1    
    39   18   78 1    
    40   19   20 am   BACKBONE|DICT|INTERRES
    41   19   79 1    
    42   20   21 2    
    43   20   22 1    
    44   22   23 1    
    45   22   24 1    
    46   22   80 1    
    47   23   81 1    
    48   23   82 1    
    49   23   83 1    
    50   24   25 am   BACKBONE|DICT|INTERRES
    51   24   84 1    
    52   25   26 2    
    53   27   28 2    
    54   27   29 am   BACKBONE|DICT|INTERRES
    55   29   30 1    
    56   29   85 1    
    57   30   31 1    
    58   30   32 1    
    59   30   86 1    
    60   31   87 1    
    61   31   88 1    
    62   31   89 1    
    63   32   33 2    
    64   32   34 am   BACKBONE|DICT|INTERRES
    65   34   35 1    
    66   34   90 1    
    67   35   36 1    
    68   35   37 1    
    69   35   91 1    
    70   36   92 1    
    71   36   93 1    
    72   36   94 1    
    73   37   38 2    
    74   37   39 am   BACKBONE|DICT|INTERRES
    75   39   40 1    
    76   39   95 1    
    77   40   41 1    
    78   40   42 1    
    79   40   96 1    
    80   41   97 1    
    81   41   98 1    
    82   41   99 1    
    83   42   43 2    
    84   42   44 am   BACKBONE|DICT|INTERRES
    85   44   45 1    
    86   44  100 1    
    87   45   46 1    
    88   45   47 1    
    89   45  101 1    
    90   46  102 1    
    91   46  103 1    
    92   46  104 1    
    93   47   48 2    
    94   47   49 am   BACKBONE|DICT|INTERRES
    95   49   50 1    
    96   49  105 1    
    97   50   51 1    
    98   50   52 1    
    99   50  106 1    
   100   51  107 1    
   101   51  108 1    
   102   51  109 1    
   103   52   53 2    
   104   52   54 am   BACKBONE|DICT|INTERRES
   105   54   55 1    
   106   54  110 1    
   107   55   56 1    
   108   55   59 1    
   109   55  111 1    
   110   56   57 am   BACKBONE|DICT|INTERRES
   111   56   58 2    
   112   57  112 1    
   113   57  113 1    
   114   59   60 1    
   115   59  114 1    
   116   59  115 1    
   117   60   61 1    
   118   61  116 1    
   119   61  117 1    
@<TRIPOS>SUBSTRUCTURE
     1 UNK         1 GROUP             0       ****    0 ROOT    
