@<TRIPOS>MOLECULE
3R8
117   119    1
SMALL
USER_CHARGES


@<TRIPOS>ATOM
      1 CA         16.0330  -28.3444  -40.9126 C.3       0 UNK        -0.2013 
      2 C          16.2613  -27.1487  -41.8245 C.2       0 UNK         0.4866 
      3 O          16.0299  -26.0116  -41.4108 O.2       0 UNK        -0.5176 
      4 N          16.6948  -27.4006  -43.0657 N.am      1 UNK        -0.4884 
      5 CA         16.9802  -26.3763  -44.0806 C.3       1 UNK         0.0853 
      6 C6         16.6799  -26.8714  -45.5243 C.3       10 UNK        -0.0849 
      7 S7         15.0489  -27.6901  -45.6755 S.3       10 UNK        -0.2776 
      8 C8         15.4097  -29.1750  -46.6761 C.3       10 UNK         0.0316 
      9 C9         16.5880  -29.9853  -46.1492 C.ar      10 UNK        -0.0863 
     10 C10        16.5141  -30.6336  -44.9114 C.ar      10 UNK        -0.1009 
     11 C11        17.6106  -31.3533  -44.4253 C.ar      10 UNK        -0.0712 
     12 C12        18.7759  -31.4350  -45.1908 C.ar      10 UNK        -0.0894 
     13 C13        18.8659  -30.7806  -46.4217 C.ar      10 UNK        -0.0745 
     14 C14        17.7646  -30.0685  -46.9018 C.ar      10 UNK        -0.0972 
     15 C15        20.1614  -30.8212  -47.2196 C.3       10 UNK         0.0209 
     16 S16        21.1184  -29.2803  -47.0374 S.3       10 UNK        -0.2568 
     17 C17        21.5427  -29.3309  -45.2636 C.3       10 UNK        -0.0983 
     18 CA         22.1024  -27.9948  -44.7213 C.3       3 UNK         0.0876 
     19 N          21.2101  -26.8677  -45.0109 N.am      3 UNK        -0.4424 
     20 C          21.4565  -25.5774  -44.7459 C.2       2 UNK         0.4918 
     21 O          22.5203  -25.1663  -44.2812 O.2       2 UNK        -0.4875 
     22 CA         20.3045  -24.5805  -44.9945 C.3       2 UNK         0.0481 
     23 CB         20.5035  -23.8671  -46.3409 C.3       2 UNK        -0.1831 
     24 N          18.9504  -25.1586  -44.9486 N.am      2 UNK        -0.4498 
     25 C          18.4295  -25.8554  -43.9248 C.2       1 UNK         0.5027 
     26 O          19.0733  -26.1137  -42.9054 O.2       1 UNK        -0.4969 
     27 C          22.4116  -28.1545  -43.2163 C.2       3 UNK         0.5005 
     28 O          23.4679  -28.6925  -42.8860 O.2       3 UNK        -0.5279 
     29 N          21.5150  -27.6768  -42.3339 N.am      4 UNK        -0.4463 
     30 CA         21.6192  -27.7722  -40.8718 C.3       4 UNK         0.0283 
     31 CB         20.3435  -27.2099  -40.2260 C.3       4 UNK        -0.1875 
     32 C          22.8705  -27.1080  -40.2651 C.2       4 UNK         0.4949 
     33 O          23.2484  -27.4401  -39.1416 O.2       4 UNK        -0.5039 
     34 N          23.5034  -26.1975  -41.0175 N.am      5 UNK        -0.4663 
     35 CA         24.7882  -25.5818  -40.6844 C.3       5 UNK         0.0242 
     36 CB         24.9800  -24.3397  -41.5703 C.3       5 UNK        -0.1982 
     37 C          25.9913  -26.5369  -40.8292 C.2       5 UNK         0.5017 
     38 O          27.0618  -26.2158  -40.3117 O.2       5 UNK        -0.5012 
     39 N          25.8179  -27.6687  -41.5265 N.am      6 UNK        -0.4439 
     40 CA         26.8556  -28.6589  -41.8075 C.3       6 UNK         0.0297 
     41 CB         27.3156  -28.5023  -43.2697 C.3       6 UNK        -0.2006 
     42 C          26.3204  -30.0639  -41.4919 C.2       6 UNK         0.4892 
     43 O          26.2682  -30.9178  -42.3793 O.2       6 UNK        -0.5089 
     44 N          25.9315  -30.2669  -40.2236 N.am      7 UNK        -0.4243 
     45 CA         25.3072  -31.4759  -39.6715 C.3       7 UNK         0.0196 
     46 CB         26.2684  -32.6869  -39.7252 C.3       7 UNK        -0.2007 
     47 C          23.9292  -31.7147  -40.3148 C.2       7 UNK         0.5020 
     48 O          23.0827  -30.8282  -40.2106 O.2       7 UNK        -0.5147 
     49 N          23.7198  -32.8825  -40.9421 N.am      8 UNK        -0.4734 
     50 CA         22.5373  -33.3269  -41.7011 C.3       8 UNK         0.0238 
     51 CB         22.3230  -32.4490  -42.9524 C.3       8 UNK        -0.1912 
     52 C          21.2420  -33.4422  -40.8749 C.2       8 UNK         0.5038 
     53 O          20.6906  -34.5368  -40.7540 O.2       8 UNK        -0.5046 
     54 N          20.7888  -32.3125  -40.3340 N.am      9 UNK        -0.4200 
     55 CA         19.5831  -32.1334  -39.5197 C.3       9 UNK         0.0839 
     56 C          19.6827  -30.9321  -38.5352 C.2       9 UNK         0.5513 
     57 N          20.8283  -30.2739  -38.3894 N.am      9 UNK        -0.7519 
     58 O          18.7093  -30.6074  -37.8601 O.2       9 UNK        -0.4960 
     59 C59        18.2761  -32.1438  -40.3632 C.3       10 UNK        -0.0876 
     60 S60        18.2958  -30.9887  -41.7805 S.3       10 UNK        -0.2414 
     61 C61        17.5555  -32.0365  -43.0699 C.3       10 UNK         0.0169 
     62 H62        16.9016  -28.5031  -40.2737 H         1 UNK         0.0903 
     63 H63        15.1657  -28.1763  -40.2748 H         1 UNK         0.0903 
     64 H64        15.8538  -29.2543  -41.4849 H         1 UNK         0.0903 
     65 H65        16.8891  -28.3522  -43.3439 H         1 UNK         0.3096 
     66 H66        16.3295  -25.5189  -43.8939 H         1 UNK         0.1121 
     67 H67        17.4705  -27.5397  -45.8635 H         1 UNK         0.0849 
     68 H68        16.6803  -26.0336  -46.2234 H         1 UNK         0.0849 
     69 H69        14.5223  -29.8091  -46.6990 H         1 UNK         0.0865 
     70 H70        15.5852  -28.8649  -47.7074 H         1 UNK         0.0865 
     71 H71        15.6094  -30.5638  -44.3225 H         1 UNK         0.1346 
     72 H72        19.6259  -31.9839  -44.8110 H         1 UNK         0.1412 
     73 H73        17.8367  -29.5583  -47.8530 H         1 UNK         0.1426 
     74 H74        20.7786  -31.6675  -46.9137 H         1 UNK         0.0716 
     75 H75        19.9343  -30.9743  -48.2756 H         1 UNK         0.0716 
     76 H76        22.2633  -30.1377  -45.1147 H         1 UNK         0.0695 
     77 H77        20.6537  -29.6030  -44.6944 H         1 UNK         0.0695 
     78 H78        23.0513  -27.7911  -45.2221 H         1 UNK         0.0983 
     79 H79        20.3194  -27.1099  -45.4174 H         1 UNK         0.3095 
     80 H80        20.3577  -23.8306  -44.2027 H         1 UNK         0.0454 
     81 H81        19.7688  -23.0748  -46.4852 H         1 UNK         0.0851 
     82 H82        20.4236  -24.5589  -47.1804 H         1 UNK         0.0851 
     83 H83        21.4893  -23.4028  -46.3953 H         1 UNK         0.0851 
     84 H84        18.3690  -24.9820  -45.7551 H         1 UNK         0.2976 
     85 H85        20.6822  -27.2111  -42.6854 H         1 UNK         0.3116 
     86 H86        21.6660  -28.8324  -40.6338 H         1 UNK         0.0646 
     87 H87        19.4557  -27.7335  -40.5816 H         1 UNK         0.0847 
     88 H88        20.3709  -27.3242  -39.1417 H         1 UNK         0.0847 
     89 H89        20.2176  -26.1480  -40.4394 H         1 UNK         0.0847 
     90 H90        23.1189  -25.9828  -41.9282 H         1 UNK         0.3040 
     91 H91        24.7552  -25.2599  -39.6411 H         1 UNK         0.1015 
     92 H92        25.0073  -24.6007  -42.6293 H         1 UNK         0.0786 
     93 H93        25.9155  -23.8302  -41.3348 H         1 UNK         0.0786 
     94 H94        24.1749  -23.6193  -41.4239 H         1 UNK         0.0786 
     95 H95        24.8945  -27.8952  -41.8945 H         1 UNK         0.3172 
     96 H96        27.7215  -28.5034  -41.1606 H         1 UNK         0.0595 
     97 H97        26.4912  -28.6562  -43.9675 H         1 UNK         0.0839 
     98 H98        28.0937  -29.2260  -43.5154 H         1 UNK         0.0839 
     99 H99        27.7273  -27.5095  -43.4512 H         1 UNK         0.0839 
    100 H100       25.9695  -29.4763  -39.5952 H         1 UNK         0.2998 
    101 H101       25.1112  -31.2630  -38.6195 H         1 UNK         0.0822 
    102 H102       25.8402  -33.5518  -39.2169 H         1 UNK         0.0787 
    103 H103       26.5089  -32.9861  -40.7458 H         1 UNK         0.0787 
    104 H104       27.2083  -32.4588  -39.2223 H         1 UNK         0.0787 
    105 H105       24.4863  -33.5413  -40.9317 H         1 UNK         0.3055 
    106 H106       22.7690  -34.3347  -42.0505 H         1 UNK         0.1106 
    107 H107       23.2090  -32.4436  -43.5873 H         1 UNK         0.0828 
    108 H108       21.4952  -32.8258  -43.5533 H         1 UNK         0.0828 
    109 H109       22.0951  -31.4133  -42.6970 H         1 UNK         0.0828 
    110 H110       21.3699  -31.4875  -40.4498 H         1 UNK         0.2931 
    111 H111       19.5334  -32.9982  -38.8556 H         1 UNK         0.0412 
    112 H112       21.6581  -30.5114  -38.9209 H         1 UNK         0.3472 
    113 H113       20.8667  -29.5133  -37.7304 H         1 UNK         0.3472 
    114 H114       18.1128  -33.1567  -40.7332 H         1 UNK         0.0970 
    115 H115       17.4047  -31.9242  -39.7440 H         1 UNK         0.0970 
    116 H116       16.5243  -32.2692  -42.7996 H         1 UNK         0.0612 
    117 H117       18.0890  -32.9873  -43.1188 H         1 UNK         0.0612 
@<TRIPOS>BOND
     1    1    2 1    
     2    1   62 1    
     3    1   63 1    
     4    1   64 1    
     5    2    3 2    
     6    2    4 am   BACKBONE|DICT|INTERRES
     7    4    5 1    
     8    4   65 1    
     9    5    6 1    
    10    5   25 1    
    11    5   66 1    
    12    6    7 1    
    13    6   67 1    
    14    6   68 1    
    15    7    8 1    
    16    8    9 1    
    17    8   69 1    
    18    8   70 1    
    19    9   10 ar   
    20    9   14 ar   
    21   10   11 ar   
    22   10   71 1    
    23   11   12 ar   
    24   11   61 1    
    25   12   13 ar   
    26   12   72 1    
    27   13   14 ar   
    28   13   15 1    
    29   14   73 1    
    30   15   16 1    
    31   15   74 1    
    32   15   75 1    
    33   16   17 1    
    34   17   18 1    
    35   17   76 1    
    36   17   77 1    
    37   18   19 1    
    38   18   27 1    
    39   18   78 1    
    40   19   20 am   BACKBONE|DICT|INTERRES
    41   19   79 1    
    42   20   21 2    
    43   20   22 1    
    44   22   23 1    
    45   22   24 1    
    46   22   80 1    
    47   23   81 1    
    48   23   82 1    
    49   23   83 1    
    50   24   25 am   BACKBONE|DICT|INTERRES
    51   24   84 1    
    52   25   26 2    
    53   27   28 2    
    54   27   29 am   BACKBONE|DICT|INTERRES
    55   29   30 1    
    56   29   85 1    
    57   30   31 1    
    58   30   32 1    
    59   30   86 1    
    60   31   87 1    
    61   31   88 1    
    62   31   89 1    
    63   32   33 2    
    64   32   34 am   BACKBONE|DICT|INTERRES
    65   34   35 1    
    66   34   90 1    
    67   35   36 1    
    68   35   37 1    
    69   35   91 1    
    70   36   92 1    
    71   36   93 1    
    72   36   94 1    
    73   37   38 2    
    74   37   39 am   BACKBONE|DICT|INTERRES
    75   39   40 1    
    76   39   95 1    
    77   40   41 1    
    78   40   42 1    
    79   40   96 1    
    80   41   97 1    
    81   41   98 1    
    82   41   99 1    
    83   42   43 2    
    84   42   44 am   BACKBONE|DICT|INTERRES
    85   44   45 1    
    86   44  100 1    
    87   45   46 1    
    88   45   47 1    
    89   45  101 1    
    90   46  102 1    
    91   46  103 1    
    92   46  104 1    
    93   47   48 2    
    94   47   49 am   BACKBONE|DICT|INTERRES
    95   49   50 1    
    96   49  105 1    
    97   50   51 1    
    98   50   52 1    
    99   50  106 1    
   100   51  107 1    
   101   51  108 1    
   102   51  109 1    
   103   52   53 2    
   104   52   54 am   BACKBONE|DICT|INTERRES
   105   54   55 1    
   106   54  110 1    
   107   55   56 1    
   108   55   59 1    
   109   55  111 1    
   110   56   57 am   BACKBONE|DICT|INTERRES
   111   56   58 2    
   112   57  112 1    
   113   57  113 1    
   114   59   60 1    
   115   59  114 1    
   116   59  115 1    
   117   60   61 1    
   118   61  116 1    
   119   61  117 1    
@<TRIPOS>SUBSTRUCTURE
     1 UNK         1 GROUP             0       ****    0 ROOT    
