@<TRIPOS>MOLECULE
3R8
117   119    1
SMALL
USER_CHARGES


@<TRIPOS>ATOM
      1 CA         18.8755  -24.9909  -50.2498 C.3       0 UNK        -0.2013 
      2 C          19.6902  -25.2912  -49.0005 C.2       0 UNK         0.4866 
      3 O          20.7321  -24.6712  -48.7841 O.2       0 UNK        -0.5176 
      4 N          19.2298  -26.2438  -48.1809 N.am      1 UNK        -0.4884 
      5 CA         19.8339  -26.6133  -46.8976 C.3       1 UNK         0.0853 
      6 C6         19.3466  -28.0076  -46.4112 C.3       10 UNK        -0.0849 
      7 S7         17.5273  -28.1976  -46.3767 S.3       10 UNK        -0.2776 
      8 C8         17.3379  -29.9424  -45.8862 C.3       10 UNK         0.0316 
      9 C9         17.5900  -30.1458  -44.3988 C.ar      10 UNK        -0.0863 
     10 C10        18.7316  -30.8220  -43.9569 C.ar      10 UNK        -0.1009 
     11 C11        18.9653  -30.9989  -42.5897 C.ar      10 UNK        -0.0712 
     12 C12        18.0333  -30.5178  -41.6651 C.ar      10 UNK        -0.0894 
     13 C13        16.9131  -29.7975  -42.0927 C.ar      10 UNK        -0.0745 
     14 C14        16.6849  -29.6365  -43.4622 C.ar      10 UNK        -0.0972 
     15 C15        15.9995  -29.1208  -41.0784 C.3       10 UNK         0.0209 
     16 S16        16.9200  -28.0523  -39.9135 S.3       10 UNK        -0.2568 
     17 C17        17.7053  -26.8029  -41.0000 C.3       10 UNK        -0.0983 
     18 CA         19.0778  -27.2291  -41.6029 C.3       3 UNK         0.0876 
     19 N          19.5393  -26.3295  -42.6569 N.am      3 UNK        -0.4424 
     20 C          20.0427  -25.0965  -42.5201 C.2       2 UNK         0.4918 
     21 O          20.1506  -24.5198  -41.4372 O.2       2 UNK        -0.4875 
     22 CA         20.5371  -24.4029  -43.8078 C.3       2 UNK         0.0481 
     23 CB         21.9231  -23.7669  -43.6019 C.3       2 UNK        -0.1831 
     24 N          20.5964  -25.3219  -44.9543 N.am      2 UNK        -0.4498 
     25 C          19.6036  -25.5158  -45.8343 C.2       1 UNK         0.5027 
     26 O          18.5345  -24.9009  -45.8035 O.2       1 UNK        -0.4969 
     27 C          20.2150  -27.5398  -40.6065 C.2       3 UNK         0.5005 
     28 O          21.2726  -28.0007  -41.0425 O.2       3 UNK        -0.5279 
     29 N          20.0093  -27.2780  -39.3092 N.am      4 UNK        -0.4463 
     30 CA         20.9556  -27.5533  -38.2218 C.3       4 UNK         0.0283 
     31 CB         20.2992  -27.1926  -36.8799 C.3       4 UNK        -0.1875 
     32 C          22.3191  -26.8499  -38.3588 C.2       4 UNK         0.4949 
     33 O          23.3047  -27.3471  -37.8146 O.2       4 UNK        -0.5039 
     34 N          22.3634  -25.7285  -39.0926 N.am      5 UNK        -0.4663 
     35 CA         23.5991  -25.0171  -39.4278 C.3       5 UNK         0.0242 
     36 CB         23.2584  -23.5768  -39.8400 C.3       5 UNK        -0.1982 
     37 C          24.4263  -25.7202  -40.5213 C.2       5 UNK         0.5017 
     38 O          25.6313  -25.4780  -40.5969 O.2       5 UNK        -0.5012 
     39 N          23.7838  -26.5677  -41.3388 N.am      6 UNK        -0.4439 
     40 CA         24.4389  -27.4073  -42.3431 C.3       6 UNK         0.0297 
     41 CB         23.5559  -27.5157  -43.5993 C.3       6 UNK        -0.2006 
     42 C          24.7472  -28.7987  -41.7711 C.2       6 UNK         0.4892 
     43 O          25.8735  -29.2731  -41.9266 O.2       6 UNK        -0.5089 
     44 N          23.7460  -29.4084  -41.1151 N.am      7 UNK        -0.4243 
     45 CA         23.7476  -30.7634  -40.5470 C.3       7 UNK         0.0196 
     46 CB         24.7567  -30.8634  -39.3809 C.3       7 UNK        -0.2007 
     47 C          23.9347  -31.8602  -41.6207 C.2       7 UNK         0.5020 
     48 O          23.7023  -31.6025  -42.8038 O.2       7 UNK        -0.5147 
     49 N          24.3118  -33.0740  -41.1837 N.am      8 UNK        -0.4734 
     50 CA         24.5443  -34.2807  -41.9980 C.3       8 UNK         0.0238 
     51 CB         25.8216  -34.1161  -42.8496 C.3       8 UNK        -0.1912 
     52 C          23.3128  -34.6837  -42.8365 C.2       8 UNK         0.5038 
     53 O          23.4277  -34.9201  -44.0410 O.2       8 UNK        -0.5046 
     54 N          22.1485  -34.7083  -42.1767 N.am      9 UNK        -0.4200 
     55 CA         20.8197  -34.8441  -42.7968 C.3       9 UNK         0.0839 
     56 C          20.4894  -36.2469  -43.3843 C.2       9 UNK         0.5513 
     57 N          21.2719  -37.2843  -43.1129 N.am      9 UNK        -0.7519 
     58 O          19.5023  -36.3942  -44.1002 O.2       9 UNK        -0.4960 
     59 C59        19.6790  -34.3551  -41.8563 C.3       10 UNK        -0.0876 
     60 S60        20.0859  -32.8863  -40.8467 S.3       10 UNK        -0.2414 
     61 C61        20.2823  -31.5914  -42.1111 C.3       10 UNK         0.0169 
     62 H62        18.5548  -23.9495  -50.2467 H         1 UNK         0.0903 
     63 H63        19.4792  -25.1593  -51.1413 H         1 UNK         0.0903 
     64 H64        17.9873  -25.6190  -50.3181 H         1 UNK         0.0903 
     65 H65        18.3487  -26.6974  -48.3805 H         1 UNK         0.3096 
     66 H66        20.9120  -26.6848  -47.0614 H         1 UNK         0.1121 
     67 H67        19.7499  -28.2417  -45.4241 H         1 UNK         0.0849 
     68 H68        19.7467  -28.7738  -47.0773 H         1 UNK         0.0849 
     69 H69        16.3218  -30.2639  -46.1194 H         1 UNK         0.0865 
     70 H70        17.9988  -30.5681  -46.4882 H         1 UNK         0.0865 
     71 H71        19.4537  -31.1834  -44.6765 H         1 UNK         0.1346 
     72 H72        18.2261  -30.6251  -40.6062 H         1 UNK         0.1412 
     73 H73        15.8217  -29.0816  -43.8046 H         1 UNK         0.1426 
     74 H74        15.4710  -29.8886  -40.5120 H         1 UNK         0.0716 
     75 H75        15.2358  -28.5217  -41.5769 H         1 UNK         0.0716 
     76 H76        17.0069  -26.5806  -41.8084 H         1 UNK         0.0695 
     77 H77        17.8080  -25.8719  -40.4400 H         1 UNK         0.0695 
     78 H78        18.9324  -28.1571  -42.1428 H         1 UNK         0.0983 
     79 H79        19.5077  -26.7108  -43.5892 H         1 UNK         0.3095 
     80 H80        19.8350  -23.5958  -44.0259 H         1 UNK         0.0454 
     81 H81        22.6524  -24.4844  -43.2263 H         1 UNK         0.0851 
     82 H82        22.3108  -23.3449  -44.5292 H         1 UNK         0.0851 
     83 H83        21.8691  -22.9503  -42.8815 H         1 UNK         0.0851 
     84 H84        21.4479  -25.8563  -45.0528 H         1 UNK         0.2976 
     85 H85        19.1026  -26.9191  -39.0425 H         1 UNK         0.3116 
     86 H86        21.1494  -28.6280  -38.2288 H         1 UNK         0.0646 
     87 H87        20.9666  -27.4154  -36.0461 H         1 UNK         0.0847 
     88 H88        19.3834  -27.7618  -36.7187 H         1 UNK         0.0847 
     89 H89        20.0515  -26.1318  -36.8240 H         1 UNK         0.0847 
     90 H90        21.5072  -25.3846  -39.5086 H         1 UNK         0.3040 
     91 H91        24.2249  -24.9714  -38.5334 H         1 UNK         0.1015 
     92 H92        22.7624  -23.0403  -39.0310 H         1 UNK         0.0786 
     93 H93        22.6023  -23.5512  -40.7086 H         1 UNK         0.0786 
     94 H94        24.1600  -23.0174  -40.0940 H         1 UNK         0.0786 
     95 H95        22.8059  -26.7690  -41.1558 H         1 UNK         0.3172 
     96 H96        25.3853  -26.9542  -42.6466 H         1 UNK         0.0595 
     97 H97        23.4520  -26.5499  -44.0910 H         1 UNK         0.0839 
     98 H98        22.5582  -27.8919  -43.3718 H         1 UNK         0.0839 
     99 H99        23.9997  -28.1977  -44.3261 H         1 UNK         0.0839 
    100 H100       22.8469  -28.9310  -41.0874 H         1 UNK         0.2998 
    101 H101       22.7496  -30.9099  -40.1319 H         1 UNK         0.0822 
    102 H102       24.6477  -30.0223  -38.6955 H         1 UNK         0.0787 
    103 H103       24.6034  -31.7691  -38.7938 H         1 UNK         0.0787 
    104 H104       25.7880  -30.8702  -39.7358 H         1 UNK         0.0787 
    105 H105       24.4599  -33.1864  -40.1900 H         1 UNK         0.3055 
    106 H106       24.7187  -35.1032  -41.3022 H         1 UNK         0.1106 
    107 H107       26.0586  -35.0377  -43.3825 H         1 UNK         0.0828 
    108 H108       25.7120  -33.3282  -43.5957 H         1 UNK         0.0828 
    109 H109       26.6835  -33.8712  -42.2291 H         1 UNK         0.0828 
    110 H110       22.1464  -34.4900  -41.1914 H         1 UNK         0.2931 
    111 H111       20.8241  -34.1750  -43.6590 H         1 UNK         0.0412 
    112 H112       21.0496  -38.1879  -43.5008 H         1 UNK         0.3472 
    113 H113       22.0869  -37.1698  -42.5319 H         1 UNK         0.3472 
    114 H114       19.4021  -35.1472  -41.1578 H         1 UNK         0.0970 
    115 H115       18.7786  -34.1406  -42.4354 H         1 UNK         0.0970 
    116 H116       20.8681  -30.7801  -41.6785 H         1 UNK         0.0612 
    117 H117       20.8724  -31.9721  -42.9449 H         1 UNK         0.0612 
@<TRIPOS>BOND
     1    1    2 1    
     2    1   62 1    
     3    1   63 1    
     4    1   64 1    
     5    2    3 2    
     6    2    4 am   BACKBONE|DICT|INTERRES
     7    4    5 1    
     8    4   65 1    
     9    5    6 1    
    10    5   25 1    
    11    5   66 1    
    12    6    7 1    
    13    6   67 1    
    14    6   68 1    
    15    7    8 1    
    16    8    9 1    
    17    8   69 1    
    18    8   70 1    
    19    9   10 ar   
    20    9   14 ar   
    21   10   11 ar   
    22   10   71 1    
    23   11   12 ar   
    24   11   61 1    
    25   12   13 ar   
    26   12   72 1    
    27   13   14 ar   
    28   13   15 1    
    29   14   73 1    
    30   15   16 1    
    31   15   74 1    
    32   15   75 1    
    33   16   17 1    
    34   17   18 1    
    35   17   76 1    
    36   17   77 1    
    37   18   19 1    
    38   18   27 1    
    39   18   78 1    
    40   19   20 am   BACKBONE|DICT|INTERRES
    41   19   79 1    
    42   20   21 2    
    43   20   22 1    
    44   22   23 1    
    45   22   24 1    
    46   22   80 1    
    47   23   81 1    
    48   23   82 1    
    49   23   83 1    
    50   24   25 am   BACKBONE|DICT|INTERRES
    51   24   84 1    
    52   25   26 2    
    53   27   28 2    
    54   27   29 am   BACKBONE|DICT|INTERRES
    55   29   30 1    
    56   29   85 1    
    57   30   31 1    
    58   30   32 1    
    59   30   86 1    
    60   31   87 1    
    61   31   88 1    
    62   31   89 1    
    63   32   33 2    
    64   32   34 am   BACKBONE|DICT|INTERRES
    65   34   35 1    
    66   34   90 1    
    67   35   36 1    
    68   35   37 1    
    69   35   91 1    
    70   36   92 1    
    71   36   93 1    
    72   36   94 1    
    73   37   38 2    
    74   37   39 am   BACKBONE|DICT|INTERRES
    75   39   40 1    
    76   39   95 1    
    77   40   41 1    
    78   40   42 1    
    79   40   96 1    
    80   41   97 1    
    81   41   98 1    
    82   41   99 1    
    83   42   43 2    
    84   42   44 am   BACKBONE|DICT|INTERRES
    85   44   45 1    
    86   44  100 1    
    87   45   46 1    
    88   45   47 1    
    89   45  101 1    
    90   46  102 1    
    91   46  103 1    
    92   46  104 1    
    93   47   48 2    
    94   47   49 am   BACKBONE|DICT|INTERRES
    95   49   50 1    
    96   49  105 1    
    97   50   51 1    
    98   50   52 1    
    99   50  106 1    
   100   51  107 1    
   101   51  108 1    
   102   51  109 1    
   103   52   53 2    
   104   52   54 am   BACKBONE|DICT|INTERRES
   105   54   55 1    
   106   54  110 1    
   107   55   56 1    
   108   55   59 1    
   109   55  111 1    
   110   56   57 am   BACKBONE|DICT|INTERRES
   111   56   58 2    
   112   57  112 1    
   113   57  113 1    
   114   59   60 1    
   115   59  114 1    
   116   59  115 1    
   117   60   61 1    
   118   61  116 1    
   119   61  117 1    
@<TRIPOS>SUBSTRUCTURE
     1 UNK         1 GROUP             0       ****    0 ROOT    
