@<TRIPOS>MOLECULE
3R8
117   119    1
SMALL
USER_CHARGES


@<TRIPOS>ATOM
      1 CA         18.2725  -27.0201  -39.1359 C.3       0 UNK        -0.2013 
      2 C          18.0355  -26.2746  -40.4402 C.2       0 UNK         0.4866 
      3 O          17.8359  -25.0592  -40.4222 O.2       0 UNK        -0.5176 
      4 N          18.0469  -26.9917  -41.5701 N.am      1 UNK        -0.4884 
      5 CA         17.9208  -26.4220  -42.9177 C.3       1 UNK         0.0853 
      6 C6         17.6031  -27.5135  -43.9657 C.3       10 UNK        -0.0849 
      7 S7         15.9647  -28.2971  -43.7562 S.3       10 UNK        -0.2776 
      8 C8         16.3519  -30.0732  -43.5106 C.3       10 UNK         0.0316 
      9 C9         17.4158  -30.6530  -44.4452 C.ar      10 UNK        -0.0863 
     10 C10        18.2524  -31.6671  -43.9737 C.ar      10 UNK        -0.1009 
     11 C11        19.3212  -32.1356  -44.7410 C.ar      10 UNK        -0.0712 
     12 C12        19.5382  -31.5897  -46.0126 C.ar      10 UNK        -0.0894 
     13 C13        18.6827  -30.6055  -46.5218 C.ar      10 UNK        -0.0745 
     14 C14        17.6043  -30.1718  -45.7448 C.ar      10 UNK        -0.0972 
     15 C15        18.9077  -30.0218  -47.9140 C.3       10 UNK         0.0209 
     16 S16        18.8252  -28.1935  -47.9364 S.3       10 UNK        -0.2568 
     17 C17        20.5485  -27.6924  -48.2863 C.3       10 UNK        -0.0983 
     18 CA         21.3495  -27.2010  -47.0509 C.3       3 UNK         0.0876 
     19 N          20.6272  -26.1561  -46.3162 N.am      3 UNK        -0.4424 
     20 C          21.1864  -25.0888  -45.7307 C.2       2 UNK         0.4918 
     21 O          22.3930  -24.8473  -45.7524 O.2       2 UNK        -0.4875 
     22 CA         20.2362  -24.1311  -44.9834 C.3       2 UNK         0.0481 
     23 CB         19.7211  -23.0387  -45.9339 C.3       2 UNK        -0.1831 
     24 N          19.0965  -24.8137  -44.3576 N.am      2 UNK        -0.4498 
     25 C          19.2077  -25.6763  -43.3368 C.2       1 UNK         0.5027 
     26 O          20.2836  -25.9400  -42.7963 O.2       1 UNK        -0.4969 
     27 C          21.7968  -28.3768  -46.1550 C.2       3 UNK         0.5005 
     28 O          22.4524  -29.2902  -46.6611 O.2       3 UNK        -0.5279 
     29 N          21.4427  -28.3600  -44.8615 N.am      4 UNK        -0.4463 
     30 CA         21.7950  -29.4113  -43.9091 C.3       4 UNK         0.0283 
     31 CB         20.9015  -29.3106  -42.6659 C.3       4 UNK        -0.1875 
     32 C          23.2770  -29.3588  -43.5203 C.2       4 UNK         0.4949 
     33 O          23.8098  -28.2717  -43.2842 O.2       4 UNK        -0.5039 
     34 N          23.8997  -30.5409  -43.4235 N.am      5 UNK        -0.4663 
     35 CA         25.2953  -30.7423  -43.0279 C.3       5 UNK         0.0242 
     36 CB         25.6331  -32.2397  -43.1221 C.3       5 UNK        -0.1982 
     37 C          25.5461  -30.2071  -41.6106 C.2       5 UNK         0.5017 
     38 O          25.0058  -30.7647  -40.6541 O.2       5 UNK        -0.5012 
     39 N          26.2838  -29.0902  -41.5168 N.am      6 UNK        -0.4439 
     40 CA         26.5540  -28.3078  -40.3001 C.3       6 UNK         0.0297 
     41 CB         27.4955  -29.0903  -39.3595 C.3       6 UNK        -0.2006 
     42 C          25.2796  -27.8169  -39.5745 C.2       6 UNK         0.4892 
     43 O          25.3254  -27.5796  -38.3665 O.2       6 UNK        -0.5089 
     44 N          24.1646  -27.7058  -40.3169 N.am      7 UNK        -0.4243 
     45 CA         22.7988  -27.4479  -39.8439 C.3       7 UNK         0.0196 
     46 CB         22.6737  -26.0210  -39.2690 C.3       7 UNK        -0.2007 
     47 C          22.2516  -28.5280  -38.8812 C.2       7 UNK         0.5020 
     48 O          21.3336  -28.2354  -38.1143 O.2       7 UNK        -0.5147 
     49 N          22.8207  -29.7445  -38.9067 N.am      8 UNK        -0.4734 
     50 CA         22.4807  -30.8218  -37.9737 C.3       8 UNK         0.0238 
     51 CB         23.6366  -31.8332  -37.8960 C.3       8 UNK        -0.1912 
     52 C          21.1618  -31.5224  -38.3277 C.2       8 UNK         0.5038 
     53 O          20.3140  -31.6840  -37.4483 O.2       8 UNK        -0.5046 
     54 N          21.0204  -31.9420  -39.5921 N.am      9 UNK        -0.4200 
     55 CA         19.8073  -32.5870  -40.1146 C.3       9 UNK         0.0839 
     56 C          18.6290  -31.5954  -40.3204 C.2       9 UNK         0.5513 
     57 N          17.3993  -32.0922  -40.2937 N.am      9 UNK        -0.7519 
     58 O          18.8078  -30.3973  -40.5242 O.2       9 UNK        -0.4960 
     59 C59        20.0894  -33.4901  -41.3516 C.3       10 UNK        -0.0876 
     60 S60        21.1144  -32.7489  -42.6743 S.3       10 UNK        -0.2414 
     61 C61        20.2335  -33.2333  -44.2009 C.3       10 UNK         0.0169 
     62 H62        19.0563  -26.5290  -38.5597 H         1 UNK         0.0903 
     63 H63        17.3629  -27.0310  -38.5365 H         1 UNK         0.0903 
     64 H64        18.5827  -28.0507  -39.3057 H         1 UNK         0.0903 
     65 H65        18.2226  -27.9865  -41.5231 H         1 UNK         0.3096 
     66 H66        17.1043  -25.6962  -42.9060 H         1 UNK         0.1121 
     67 H67        18.3913  -28.2647  -43.9553 H         1 UNK         0.0849 
     68 H68        17.6081  -27.0981  -44.9753 H         1 UNK         0.0849 
     69 H69        16.6717  -30.1948  -42.4750 H         1 UNK         0.0865 
     70 H70        15.4343  -30.6524  -43.6196 H         1 UNK         0.0865 
     71 H71        18.0898  -32.0760  -42.9896 H         1 UNK         0.1346 
     72 H72        20.3707  -31.9354  -46.6101 H         1 UNK         0.1412 
     73 H73        16.9411  -29.4140  -46.1376 H         1 UNK         0.1426 
     74 H74        18.1344  -30.4101  -48.5778 H         1 UNK         0.0716 
     75 H75        19.8594  -30.3613  -48.3245 H         1 UNK         0.0716 
     76 H76        20.4940  -26.8767  -49.0088 H         1 UNK         0.0695 
     77 H77        21.0765  -28.4913  -48.8100 H         1 UNK         0.0695 
     78 H78        22.2771  -26.7695  -47.4341 H         1 UNK         0.0983 
     79 H79        19.6250  -26.2681  -46.2774 H         1 UNK         0.3095 
     80 H80        20.8122  -23.6457  -44.1925 H         1 UNK         0.0454 
     81 H81        20.5507  -22.4992  -46.3931 H         1 UNK         0.0851 
     82 H82        19.1151  -22.3039  -45.4038 H         1 UNK         0.0851 
     83 H83        19.1171  -23.4540  -46.7416 H         1 UNK         0.0851 
     84 H84        18.1852  -24.6328  -44.7553 H         1 UNK         0.2976 
     85 H85        20.9935  -27.5366  -44.4874 H         1 UNK         0.3116 
     86 H86        21.6033  -30.3737  -44.3855 H         1 UNK         0.0646 
     87 H87        20.8394  -28.2979  -42.2821 H         1 UNK         0.0847 
     88 H88        19.8901  -29.6451  -42.8865 H         1 UNK         0.0847 
     89 H89        21.2711  -29.9362  -41.8535 H         1 UNK         0.0847 
     90 H90        23.3603  -31.3789  -43.5910 H         1 UNK         0.3040 
     91 H91        25.9292  -30.2025  -43.7346 H         1 UNK         0.1015 
     92 H92        26.6673  -32.4252  -42.8288 H         1 UNK         0.0786 
     93 H93        25.5142  -32.6107  -44.1404 H         1 UNK         0.0786 
     94 H94        24.9969  -32.8403  -42.4701 H         1 UNK         0.0786 
     95 H95        26.6337  -28.6840  -42.3745 H         1 UNK         0.3172 
     96 H96        27.0804  -27.4093  -40.6251 H         1 UNK         0.0595 
     97 H97        27.0068  -29.9709  -38.9409 H         1 UNK         0.0839 
     98 H98        27.8196  -28.4706  -38.5225 H         1 UNK         0.0839 
     99 H99        28.3938  -29.4209  -39.8806 H         1 UNK         0.0839 
    100 H100       24.2401  -27.9092  -41.3095 H         1 UNK         0.2998 
    101 H101       22.1686  -27.4855  -40.7297 H         1 UNK         0.0822 
    102 H102       21.6304  -25.7683  -39.0752 H         1 UNK         0.0787 
    103 H103       23.0584  -25.2776  -39.9671 H         1 UNK         0.0787 
    104 H104       23.2145  -25.9131  -38.3285 H         1 UNK         0.0787 
    105 H105       23.5821  -29.9282  -39.5545 H         1 UNK         0.3055 
    106 H106       22.3611  -30.3837  -36.9797 H         1 UNK         0.1106 
    107 H107       24.5695  -31.3474  -37.6091 H         1 UNK         0.0828 
    108 H108       23.4297  -32.6040  -37.1525 H         1 UNK         0.0828 
    109 H109       23.8033  -32.3377  -38.8484 H         1 UNK         0.0828 
    110 H110       21.7496  -31.7512  -40.2626 H         1 UNK         0.2931 
    111 H111       19.4711  -33.2700  -39.3312 H         1 UNK         0.0412 
    112 H112       17.2337  -33.0705  -40.1156 H         1 UNK         0.3472 
    113 H113       16.6178  -31.4672  -40.4079 H         1 UNK         0.3472 
    114 H114       20.6217  -34.3807  -41.0144 H         1 UNK         0.0970 
    115 H115       19.1544  -33.8672  -41.7685 H         1 UNK         0.0970 
    116 H116       19.6535  -34.1414  -44.0331 H         1 UNK         0.0612 
    117 H117       20.9851  -33.4937  -44.9474 H         1 UNK         0.0612 
@<TRIPOS>BOND
     1    1    2 1    
     2    1   62 1    
     3    1   63 1    
     4    1   64 1    
     5    2    3 2    
     6    2    4 am   BACKBONE|DICT|INTERRES
     7    4    5 1    
     8    4   65 1    
     9    5    6 1    
    10    5   25 1    
    11    5   66 1    
    12    6    7 1    
    13    6   67 1    
    14    6   68 1    
    15    7    8 1    
    16    8    9 1    
    17    8   69 1    
    18    8   70 1    
    19    9   10 ar   
    20    9   14 ar   
    21   10   11 ar   
    22   10   71 1    
    23   11   12 ar   
    24   11   61 1    
    25   12   13 ar   
    26   12   72 1    
    27   13   14 ar   
    28   13   15 1    
    29   14   73 1    
    30   15   16 1    
    31   15   74 1    
    32   15   75 1    
    33   16   17 1    
    34   17   18 1    
    35   17   76 1    
    36   17   77 1    
    37   18   19 1    
    38   18   27 1    
    39   18   78 1    
    40   19   20 am   BACKBONE|DICT|INTERRES
    41   19   79 1    
    42   20   21 2    
    43   20   22 1    
    44   22   23 1    
    45   22   24 1    
    46   22   80 1    
    47   23   81 1    
    48   23   82 1    
    49   23   83 1    
    50   24   25 am   BACKBONE|DICT|INTERRES
    51   24   84 1    
    52   25   26 2    
    53   27   28 2    
    54   27   29 am   BACKBONE|DICT|INTERRES
    55   29   30 1    
    56   29   85 1    
    57   30   31 1    
    58   30   32 1    
    59   30   86 1    
    60   31   87 1    
    61   31   88 1    
    62   31   89 1    
    63   32   33 2    
    64   32   34 am   BACKBONE|DICT|INTERRES
    65   34   35 1    
    66   34   90 1    
    67   35   36 1    
    68   35   37 1    
    69   35   91 1    
    70   36   92 1    
    71   36   93 1    
    72   36   94 1    
    73   37   38 2    
    74   37   39 am   BACKBONE|DICT|INTERRES
    75   39   40 1    
    76   39   95 1    
    77   40   41 1    
    78   40   42 1    
    79   40   96 1    
    80   41   97 1    
    81   41   98 1    
    82   41   99 1    
    83   42   43 2    
    84   42   44 am   BACKBONE|DICT|INTERRES
    85   44   45 1    
    86   44  100 1    
    87   45   46 1    
    88   45   47 1    
    89   45  101 1    
    90   46  102 1    
    91   46  103 1    
    92   46  104 1    
    93   47   48 2    
    94   47   49 am   BACKBONE|DICT|INTERRES
    95   49   50 1    
    96   49  105 1    
    97   50   51 1    
    98   50   52 1    
    99   50  106 1    
   100   51  107 1    
   101   51  108 1    
   102   51  109 1    
   103   52   53 2    
   104   52   54 am   BACKBONE|DICT|INTERRES
   105   54   55 1    
   106   54  110 1    
   107   55   56 1    
   108   55   59 1    
   109   55  111 1    
   110   56   57 am   BACKBONE|DICT|INTERRES
   111   56   58 2    
   112   57  112 1    
   113   57  113 1    
   114   59   60 1    
   115   59  114 1    
   116   59  115 1    
   117   60   61 1    
   118   61  116 1    
   119   61  117 1    
@<TRIPOS>SUBSTRUCTURE
     1 UNK         1 GROUP             0       ****    0 ROOT    
