@<TRIPOS>MOLECULE
3R8
117   119    1
SMALL
USER_CHARGES


@<TRIPOS>ATOM
      1 CA         15.7538  -26.7047  -48.1706 C.3       0 UNK        -0.2013 
      2 C          15.2253  -25.3807  -47.6259 C.2       0 UNK         0.4866 
      3 O          14.9120  -24.4897  -48.4134 O.2       0 UNK        -0.5176 
      4 N          15.1103  -25.1895  -46.3061 N.am      1 UNK        -0.4884 
      5 CA         15.4884  -26.1071  -45.2267 C.3       1 UNK         0.0853 
      6 C6         14.2451  -26.7389  -44.5372 C.3       10 UNK        -0.0849 
      7 S7         13.6920  -28.2403  -45.4086 S.3       10 UNK        -0.2776 
      8 C8         14.3800  -29.5668  -44.3537 C.3       10 UNK         0.0316 
      9 C9         15.8984  -29.5012  -44.1985 C.ar      10 UNK        -0.0863 
     10 C10        16.4774  -29.5414  -42.9246 C.ar      10 UNK        -0.1009 
     11 C11        17.8675  -29.5075  -42.7733 C.ar      10 UNK        -0.0712 
     12 C12        18.6792  -29.4133  -43.9070 C.ar      10 UNK        -0.0894 
     13 C13        18.1158  -29.3453  -45.1834 C.ar      10 UNK        -0.0745 
     14 C14        16.7273  -29.4215  -45.3231 C.ar      10 UNK        -0.0972 
     15 C15        19.0017  -29.1959  -46.4127 C.3       10 UNK         0.0209 
     16 S16        19.5546  -27.4712  -46.6477 S.3       10 UNK        -0.2568 
     17 C17        21.0321  -27.3955  -45.5726 C.3       10 UNK        -0.0983 
     18 CA         20.9550  -26.3431  -44.4317 C.3       3 UNK         0.0876 
     19 N          19.6592  -26.3482  -43.7401 N.am      3 UNK        -0.4424 
     20 C          19.2569  -25.4607  -42.8178 C.2       2 UNK         0.4918 
     21 O          19.9326  -24.5011  -42.4449 O.2       2 UNK        -0.4875 
     22 CA         17.8650  -25.7161  -42.2107 C.3       2 UNK         0.0481 
     23 CB         17.3463  -24.5492  -41.3431 C.3       2 UNK        -0.1831 
     24 N          16.8893  -26.1215  -43.2295 N.am      2 UNK        -0.4498 
     25 C          16.3928  -25.3684  -44.2237 C.2       1 UNK         0.5027 
     26 O          16.6334  -24.1673  -44.3727 O.2       1 UNK        -0.4969 
     27 C          22.1372  -26.5588  -43.4613 C.2       3 UNK         0.5005 
     28 O          23.2254  -26.0294  -43.6943 O.2       3 UNK        -0.5279 
     29 N          21.8913  -27.3517  -42.4051 N.am      4 UNK        -0.4463 
     30 CA         22.7867  -27.7818  -41.3247 C.3       4 UNK         0.0283 
     31 CB         23.2961  -26.5857  -40.4975 C.3       4 UNK        -0.1875 
     32 C          23.9472  -28.6778  -41.7854 C.2       4 UNK         0.4949 
     33 O          24.1011  -29.7747  -41.2533 O.2       4 UNK        -0.5039 
     34 N          24.7551  -28.1909  -42.7376 N.am      5 UNK        -0.4663 
     35 CA         25.9455  -28.8351  -43.3168 C.3       5 UNK         0.0242 
     36 CB         25.5277  -30.0476  -44.1752 C.3       5 UNK        -0.1982 
     37 C          27.0302  -29.1990  -42.2773 C.2       5 UNK         0.5017 
     38 O          27.8137  -30.1210  -42.5093 O.2       5 UNK        -0.5012 
     39 N          27.0389  -28.4739  -41.1467 N.am      6 UNK        -0.4439 
     40 CA         27.8543  -28.6903  -39.9444 C.3       6 UNK         0.0297 
     41 CB         29.3452  -28.4148  -40.2360 C.3       6 UNK        -0.2006 
     42 C          27.6187  -30.0632  -39.2744 C.2       6 UNK         0.4892 
     43 O          28.5368  -30.6001  -38.6509 O.2       6 UNK        -0.5089 
     44 N          26.4015  -30.6073  -39.4035 N.am      7 UNK        -0.4243 
     45 CA         25.9946  -31.9055  -38.8705 C.3       7 UNK         0.0196 
     46 CB         26.4050  -33.0155  -39.8631 C.3       7 UNK        -0.2007 
     47 C          24.4862  -31.8872  -38.5728 C.2       7 UNK         0.5020 
     48 O          23.8947  -30.8149  -38.4285 O.2       7 UNK        -0.5147 
     49 N          23.8725  -33.0735  -38.4920 N.am      8 UNK        -0.4734 
     50 CA         22.4265  -33.2588  -38.3519 C.3       8 UNK         0.0238 
     51 CB         22.1618  -34.5823  -37.6090 C.3       8 UNK        -0.1912 
     52 C          21.7545  -33.2102  -39.7365 C.2       8 UNK         0.5038 
     53 O          21.2981  -34.2419  -40.2322 O.2       8 UNK        -0.5046 
     54 N          21.7595  -32.0189  -40.3492 N.am      9 UNK        -0.4200 
     55 CA         21.2600  -31.7212  -41.7055 C.3       9 UNK         0.0839 
     56 C          22.1400  -32.2814  -42.8644 C.2       9 UNK         0.5513 
     57 N          23.3056  -32.8588  -42.6018 N.am      9 UNK        -0.7519 
     58 O          21.7722  -32.1612  -44.0300 O.2       9 UNK        -0.4960 
     59 C59        19.7514  -32.0553  -41.9112 C.3       10 UNK        -0.0876 
     60 S60        18.6366  -31.2380  -40.7173 S.3       10 UNK        -0.2414 
     61 C61        18.4962  -29.5498  -41.3863 C.3       10 UNK         0.0169 
     62 H62        16.7939  -26.8544  -47.8835 H         1 UNK         0.0903 
     63 H63        15.1615  -27.5439  -47.8108 H         1 UNK         0.0903 
     64 H64        15.7077  -26.7147  -49.2594 H         1 UNK         0.0903 
     65 H65        14.8371  -24.2721  -45.9792 H         1 UNK         0.3096 
     66 H66        16.1280  -26.8917  -45.6237 H         1 UNK         0.1121 
     67 H67        14.4262  -27.0083  -43.4953 H         1 UNK         0.0849 
     68 H68        13.4186  -26.0266  -44.5061 H         1 UNK         0.0849 
     69 H69        13.8887  -29.5283  -43.3801 H         1 UNK         0.0865 
     70 H70        14.1162  -30.5318  -44.7885 H         1 UNK         0.0865 
     71 H71        15.8496  -29.6159  -42.0466 H         1 UNK         0.1346 
     72 H72        19.7534  -29.3999  -43.7939 H         1 UNK         0.1412 
     73 H73        16.2852  -29.3957  -46.3101 H         1 UNK         0.1426 
     74 H74        18.4544  -29.5034  -47.3051 H         1 UNK         0.0716 
     75 H75        19.8599  -29.8665  -46.3456 H         1 UNK         0.0716 
     76 H76        21.8867  -27.1708  -46.2136 H         1 UNK         0.0695 
     77 H77        21.2321  -28.3914  -45.1750 H         1 UNK         0.0695 
     78 H78        21.0752  -25.3517  -44.8742 H         1 UNK         0.0983 
     79 H79        19.0128  -27.0669  -44.0321 H         1 UNK         0.3095 
     80 H80        17.9808  -26.5751  -41.5494 H         1 UNK         0.0454 
     81 H81        18.0102  -24.3717  -40.4963 H         1 UNK         0.0851 
     82 H82        16.3574  -24.7634  -40.9385 H         1 UNK         0.0851 
     83 H83        17.2862  -23.6156  -41.9027 H         1 UNK         0.0851 
     84 H84        16.6251  -27.0979  -43.2012 H         1 UNK         0.2976 
     85 H85        20.9538  -27.7164  -42.3405 H         1 UNK         0.3116 
     86 H86        22.1718  -28.3910  -40.6597 H         1 UNK         0.0646 
     87 H87        23.8913  -26.9255  -39.6488 H         1 UNK         0.0847 
     88 H88        23.9215  -25.9128  -41.0846 H         1 UNK         0.0847 
     89 H89        22.4669  -26.0026  -40.0969 H         1 UNK         0.0847 
     90 H90        24.4981  -27.2851  -43.1270 H         1 UNK         0.3040 
     91 H91        26.4011  -28.0990  -43.9809 H         1 UNK         0.1015 
     92 H92        26.3753  -30.4452  -44.7345 H         1 UNK         0.0786 
     93 H93        24.7606  -29.7764  -44.9005 H         1 UNK         0.0786 
     94 H94        25.1353  -30.8578  -43.5603 H         1 UNK         0.0786 
     95 H95        26.3475  -27.7406  -41.0775 H         1 UNK         0.3172 
     96 H96        27.5211  -27.9466  -39.2192 H         1 UNK         0.0595 
     97 H97        29.7724  -29.1640  -40.9032 H         1 UNK         0.0839 
     98 H98        29.9331  -28.4269  -39.3174 H         1 UNK         0.0839 
     99 H99        29.4867  -27.4364  -40.6950 H         1 UNK         0.0839 
    100 H100       25.6718  -30.1087  -39.9054 H         1 UNK         0.2998 
    101 H101       26.4989  -32.0753  -37.9169 H         1 UNK         0.0822 
    102 H102       26.2139  -34.0112  -39.4624 H         1 UNK         0.0787 
    103 H103       27.4712  -32.9697  -40.0866 H         1 UNK         0.0787 
    104 H104       25.8691  -32.9246  -40.8087 H         1 UNK         0.0787 
    105 H105       24.4201  -33.9104  -38.6345 H         1 UNK         0.3055 
    106 H106       22.0042  -32.4499  -37.7505 H         1 UNK         0.1106 
    107 H107       22.6028  -34.5717  -36.6121 H         1 UNK         0.0828 
    108 H108       21.0913  -34.7523  -37.4862 H         1 UNK         0.0828 
    109 H109       22.5685  -35.4402  -38.1461 H         1 UNK         0.0828 
    110 H110       22.2415  -31.2565  -39.8874 H         1 UNK         0.2931 
    111 H111       21.3595  -30.6402  -41.8009 H         1 UNK         0.0412 
    112 H112       23.8663  -33.2084  -43.3621 H         1 UNK         0.3472 
    113 H113       23.6290  -32.9335  -41.6523 H         1 UNK         0.3472 
    114 H114       19.4273  -31.8033  -42.9204 H         1 UNK         0.0970 
    115 H115       19.5902  -33.1310  -41.8326 H         1 UNK         0.0970 
    116 H116       17.8928  -28.9573  -40.6972 H         1 UNK         0.0612 
    117 H117       19.4829  -29.0864  -41.3953 H         1 UNK         0.0612 
@<TRIPOS>BOND
     1    1    2 1    
     2    1   62 1    
     3    1   63 1    
     4    1   64 1    
     5    2    3 2    
     6    2    4 am   BACKBONE|DICT|INTERRES
     7    4    5 1    
     8    4   65 1    
     9    5    6 1    
    10    5   25 1    
    11    5   66 1    
    12    6    7 1    
    13    6   67 1    
    14    6   68 1    
    15    7    8 1    
    16    8    9 1    
    17    8   69 1    
    18    8   70 1    
    19    9   10 ar   
    20    9   14 ar   
    21   10   11 ar   
    22   10   71 1    
    23   11   12 ar   
    24   11   61 1    
    25   12   13 ar   
    26   12   72 1    
    27   13   14 ar   
    28   13   15 1    
    29   14   73 1    
    30   15   16 1    
    31   15   74 1    
    32   15   75 1    
    33   16   17 1    
    34   17   18 1    
    35   17   76 1    
    36   17   77 1    
    37   18   19 1    
    38   18   27 1    
    39   18   78 1    
    40   19   20 am   BACKBONE|DICT|INTERRES
    41   19   79 1    
    42   20   21 2    
    43   20   22 1    
    44   22   23 1    
    45   22   24 1    
    46   22   80 1    
    47   23   81 1    
    48   23   82 1    
    49   23   83 1    
    50   24   25 am   BACKBONE|DICT|INTERRES
    51   24   84 1    
    52   25   26 2    
    53   27   28 2    
    54   27   29 am   BACKBONE|DICT|INTERRES
    55   29   30 1    
    56   29   85 1    
    57   30   31 1    
    58   30   32 1    
    59   30   86 1    
    60   31   87 1    
    61   31   88 1    
    62   31   89 1    
    63   32   33 2    
    64   32   34 am   BACKBONE|DICT|INTERRES
    65   34   35 1    
    66   34   90 1    
    67   35   36 1    
    68   35   37 1    
    69   35   91 1    
    70   36   92 1    
    71   36   93 1    
    72   36   94 1    
    73   37   38 2    
    74   37   39 am   BACKBONE|DICT|INTERRES
    75   39   40 1    
    76   39   95 1    
    77   40   41 1    
    78   40   42 1    
    79   40   96 1    
    80   41   97 1    
    81   41   98 1    
    82   41   99 1    
    83   42   43 2    
    84   42   44 am   BACKBONE|DICT|INTERRES
    85   44   45 1    
    86   44  100 1    
    87   45   46 1    
    88   45   47 1    
    89   45  101 1    
    90   46  102 1    
    91   46  103 1    
    92   46  104 1    
    93   47   48 2    
    94   47   49 am   BACKBONE|DICT|INTERRES
    95   49   50 1    
    96   49  105 1    
    97   50   51 1    
    98   50   52 1    
    99   50  106 1    
   100   51  107 1    
   101   51  108 1    
   102   51  109 1    
   103   52   53 2    
   104   52   54 am   BACKBONE|DICT|INTERRES
   105   54   55 1    
   106   54  110 1    
   107   55   56 1    
   108   55   59 1    
   109   55  111 1    
   110   56   57 am   BACKBONE|DICT|INTERRES
   111   56   58 2    
   112   57  112 1    
   113   57  113 1    
   114   59   60 1    
   115   59  114 1    
   116   59  115 1    
   117   60   61 1    
   118   61  116 1    
   119   61  117 1    
@<TRIPOS>SUBSTRUCTURE
     1 UNK         1 GROUP             0       ****    0 ROOT    
