@<TRIPOS>MOLECULE
3R8
117   119    1
SMALL
USER_CHARGES


@<TRIPOS>ATOM
      1 CA         20.6449  -26.7517  -48.8579 C.3       0 UNK        -0.2013 
      2 C          19.1423  -26.5690  -48.6570 C.2       0 UNK         0.4866 
      3 O          18.5074  -25.8806  -49.4532 O.2       0 UNK        -0.5176 
      4 N          18.5238  -27.1590  -47.6234 N.am      1 UNK        -0.4884 
      5 CA         19.1398  -27.9800  -46.5719 C.3       1 UNK         0.0853 
      6 C6         18.0789  -28.7683  -45.7715 C.3       10 UNK        -0.0849 
      7 S7         17.3950  -30.2043  -46.6684 S.3       10 UNK        -0.2776 
      8 C8         16.1666  -30.8860  -45.4877 C.3       10 UNK         0.0316 
      9 C9         16.5313  -30.6167  -44.0327 C.ar      10 UNK        -0.0863 
     10 C10        17.5596  -31.3343  -43.4139 C.ar      10 UNK        -0.1009 
     11 C11        17.9940  -30.9836  -42.1306 C.ar      10 UNK        -0.0712 
     12 C12        17.3731  -29.9293  -41.4557 C.ar      10 UNK        -0.0894 
     13 C13        16.3542  -29.1999  -42.0706 C.ar      10 UNK        -0.0745 
     14 C14        15.9189  -29.5633  -43.3473 C.ar      10 UNK        -0.0972 
     15 C15        15.7810  -27.9639  -41.4000 C.3       10 UNK         0.0209 
     16 S16        16.6657  -26.4711  -41.9602 S.3       10 UNK        -0.2568 
     17 C17        18.0460  -26.3396  -40.7691 C.3       10 UNK        -0.0983 
     18 CA         19.4184  -26.8693  -41.2785 C.3       3 UNK         0.0876 
     19 N          19.8227  -26.3686  -42.6015 N.am      3 UNK        -0.4424 
     20 C          19.9803  -25.1073  -43.0212 C.2       2 UNK         0.4918 
     21 O          19.8660  -24.1251  -42.2870 O.2       2 UNK        -0.4875 
     22 CA         20.3156  -24.8846  -44.5120 C.3       2 UNK         0.0481 
     23 CB         21.8373  -24.7570  -44.7178 C.3       2 UNK        -0.1831 
     24 N          19.7205  -25.8598  -45.4437 N.am      2 UNK        -0.4498 
     25 C          19.9929  -27.1671  -45.5772 C.2       1 UNK         0.5027 
     26 O          20.8419  -27.7594  -44.9119 O.2       1 UNK        -0.4969 
     27 C          20.4959  -26.6779  -40.1881 C.2       3 UNK         0.5005 
     28 O          20.7808  -27.6204  -39.4467 O.2       3 UNK        -0.5279 
     29 N          21.0457  -25.4609  -40.0826 N.am      4 UNK        -0.4463 
     30 CA         22.0472  -25.0502  -39.0976 C.3       4 UNK         0.0283 
     31 CB         22.2731  -23.5343  -39.2130 C.3       4 UNK        -0.1875 
     32 C          23.3751  -25.8043  -39.2673 C.2       4 UNK         0.4949 
     33 O          23.8266  -25.9896  -40.3981 O.2       4 UNK        -0.5039 
     34 N          23.9744  -26.2006  -38.1338 N.am      5 UNK        -0.4663 
     35 CA         25.2175  -26.9801  -38.0167 C.3       5 UNK         0.0242 
     36 CB         26.4309  -26.1531  -38.4945 C.3       5 UNK        -0.1982 
     37 C          25.1261  -28.3615  -38.6985 C.2       5 UNK         0.5017 
     38 O          26.0958  -28.8154  -39.3093 O.2       5 UNK        -0.5012 
     39 N          23.9427  -28.9867  -38.6034 N.am      6 UNK        -0.4439 
     40 CA         23.5054  -30.2476  -39.2188 C.3       6 UNK         0.0297 
     41 CB         24.3858  -31.4420  -38.8022 C.3       6 UNK        -0.2006 
     42 C          23.3490  -30.1718  -40.7466 C.2       6 UNK         0.4892 
     43 O          22.3167  -30.6082  -41.2525 O.2       6 UNK        -0.5089 
     44 N          24.3519  -29.6188  -41.4444 N.am      7 UNK        -0.4243 
     45 CA         24.4093  -29.3650  -42.8879 C.3       7 UNK         0.0196 
     46 CB         23.5504  -28.1308  -43.2347 C.3       7 UNK        -0.2007 
     47 C          24.0667  -30.6203  -43.7121 C.2       7 UNK         0.5020 
     48 O          24.8588  -31.5636  -43.7208 O.2       7 UNK        -0.5147 
     49 N          22.8875  -30.6348  -44.3501 N.am      8 UNK        -0.4734 
     50 CA         22.3528  -31.7609  -45.1245 C.3       8 UNK         0.0238 
     51 CB         21.0313  -31.3306  -45.7801 C.3       8 UNK        -0.1912 
     52 C          22.1533  -33.0622  -44.3221 C.2       8 UNK         0.5038 
     53 O          22.1682  -34.1372  -44.9235 O.2       8 UNK        -0.5046 
     54 N          21.9829  -32.9493  -42.9991 N.am      9 UNK        -0.4200 
     55 CA         21.8818  -34.0780  -42.0619 C.3       9 UNK         0.0839 
     56 C          23.2624  -34.5377  -41.5077 C.2       9 UNK         0.5513 
     57 N          24.3800  -33.9177  -41.8721 N.am      9 UNK        -0.7519 
     58 O          23.3237  -35.4903  -40.7350 O.2       9 UNK        -0.4960 
     59 C59        20.8781  -33.7867  -40.9125 C.3       10 UNK        -0.0876 
     60 S60        19.1838  -33.4467  -41.5077 S.3       10 UNK        -0.2414 
     61 C61        19.2297  -31.6293  -41.5276 C.3       10 UNK         0.0169 
     62 H62        20.9224  -27.8050  -48.8564 H         1 UNK         0.0903 
     63 H63        20.9512  -26.3372  -49.8183 H         1 UNK         0.0903 
     64 H64        21.2086  -26.2345  -48.0823 H         1 UNK         0.0903 
     65 H65        17.5228  -27.0460  -47.5437 H         1 UNK         0.3096 
     66 H66        19.8100  -28.6999  -47.0427 H         1 UNK         0.1121 
     67 H67        17.2642  -28.1133  -45.4563 H         1 UNK         0.0849 
     68 H68        18.5255  -29.1592  -44.8552 H         1 UNK         0.0849 
     69 H69        15.1884  -30.4603  -45.7163 H         1 UNK         0.0865 
     70 H70        16.0729  -31.9606  -45.6505 H         1 UNK         0.0865 
     71 H71        18.0687  -32.1182  -43.9582 H         1 UNK         0.1346 
     72 H72        17.7277  -29.6306  -40.4786 H         1 UNK         0.1412 
     73 H73        15.1517  -28.9773  -43.8352 H         1 UNK         0.1426 
     74 H74        15.8194  -28.0524  -40.3134 H         1 UNK         0.0716 
     75 H75        14.7257  -27.8639  -41.6585 H         1 UNK         0.0716 
     76 H76        17.7660  -26.8523  -39.8472 H         1 UNK         0.0695 
     77 H77        18.1275  -25.2846  -40.5009 H         1 UNK         0.0695 
     78 H78        19.3231  -27.9467  -41.4140 H         1 UNK         0.0983 
     79 H79        20.0367  -27.0873  -43.2850 H         1 UNK         0.3095 
     80 H80        19.8724  -23.9251  -44.7828 H         1 UNK         0.0454 
     81 H81        22.3680  -25.6647  -44.4319 H         1 UNK         0.0851 
     82 H82        22.2433  -23.9457  -44.1123 H         1 UNK         0.0851 
     83 H83        22.0811  -24.5383  -45.7572 H         1 UNK         0.0851 
     84 H84        18.9724  -25.4953  -46.0180 H         1 UNK         0.2976 
     85 H85        20.7492  -24.7639  -40.7608 H         1 UNK         0.3116 
     86 H86        21.6408  -25.2656  -38.1073 H         1 UNK         0.0646 
     87 H87        21.3503  -22.9797  -39.0418 H         1 UNK         0.0847 
     88 H88        22.9994  -23.1894  -38.4757 H         1 UNK         0.0847 
     89 H89        22.6527  -23.2585  -40.1979 H         1 UNK         0.0847 
     90 H90        23.5191  -25.9805  -37.2576 H         1 UNK         0.3040 
     91 H91        25.3584  -27.1822  -36.9535 H         1 UNK         0.1015 
     92 H92        26.3972  -25.9656  -39.5682 H         1 UNK         0.0786 
     93 H93        27.3660  -26.6746  -38.2862 H         1 UNK         0.0786 
     94 H94        26.4793  -25.1897  -37.9871 H         1 UNK         0.0786 
     95 H95        23.2052  -28.4773  -38.1348 H         1 UNK         0.3172 
     96 H96        22.5072  -30.4288  -38.8165 H         1 UNK         0.0595 
     97 H97        25.4000  -31.3635  -39.1941 H         1 UNK         0.0839 
     98 H98        23.9694  -32.3774  -39.1784 H         1 UNK         0.0839 
     99 H99        24.4501  -31.5290  -37.7177 H         1 UNK         0.0839 
    100 H100       25.1607  -29.3193  -40.9066 H         1 UNK         0.2998 
    101 H101       25.4467  -29.1221  -43.1223 H         1 UNK         0.0822 
    102 H102       23.5434  -27.9382  -44.3084 H         1 UNK         0.0787 
    103 H103       22.5178  -28.2427  -42.9028 H         1 UNK         0.0787 
    104 H104       23.9477  -27.2359  -42.7568 H         1 UNK         0.0787 
    105 H105       22.2963  -29.8175  -44.2700 H         1 UNK         0.3055 
    106 H106       23.0722  -31.9856  -45.9148 H         1 UNK         0.1106 
    107 H107       20.5907  -32.1462  -46.3554 H         1 UNK         0.0828 
    108 H108       20.2944  -31.0200  -45.0383 H         1 UNK         0.0828 
    109 H109       21.1898  -30.5020  -46.4688 H         1 UNK         0.0828 
    110 H110       22.0300  -32.0285  -42.5724 H         1 UNK         0.2931 
    111 H111       21.4903  -34.9396  -42.6059 H         1 UNK         0.0412 
    112 H112       25.2603  -34.2429  -41.5055 H         1 UNK         0.3472 
    113 H113       24.3656  -33.1426  -42.5254 H         1 UNK         0.3472 
    114 H114       21.2288  -32.9565  -40.2966 H         1 UNK         0.0970 
    115 H115       20.8127  -34.6456  -40.2420 H         1 UNK         0.0970 
    116 H116       20.0729  -31.3006  -42.1307 H         1 UNK         0.0612 
    117 H117       19.4086  -31.2675  -40.5137 H         1 UNK         0.0612 
@<TRIPOS>BOND
     1    1    2 1    
     2    1   62 1    
     3    1   63 1    
     4    1   64 1    
     5    2    3 2    
     6    2    4 am   BACKBONE|DICT|INTERRES
     7    4    5 1    
     8    4   65 1    
     9    5    6 1    
    10    5   25 1    
    11    5   66 1    
    12    6    7 1    
    13    6   67 1    
    14    6   68 1    
    15    7    8 1    
    16    8    9 1    
    17    8   69 1    
    18    8   70 1    
    19    9   10 ar   
    20    9   14 ar   
    21   10   11 ar   
    22   10   71 1    
    23   11   12 ar   
    24   11   61 1    
    25   12   13 ar   
    26   12   72 1    
    27   13   14 ar   
    28   13   15 1    
    29   14   73 1    
    30   15   16 1    
    31   15   74 1    
    32   15   75 1    
    33   16   17 1    
    34   17   18 1    
    35   17   76 1    
    36   17   77 1    
    37   18   19 1    
    38   18   27 1    
    39   18   78 1    
    40   19   20 am   BACKBONE|DICT|INTERRES
    41   19   79 1    
    42   20   21 2    
    43   20   22 1    
    44   22   23 1    
    45   22   24 1    
    46   22   80 1    
    47   23   81 1    
    48   23   82 1    
    49   23   83 1    
    50   24   25 am   BACKBONE|DICT|INTERRES
    51   24   84 1    
    52   25   26 2    
    53   27   28 2    
    54   27   29 am   BACKBONE|DICT|INTERRES
    55   29   30 1    
    56   29   85 1    
    57   30   31 1    
    58   30   32 1    
    59   30   86 1    
    60   31   87 1    
    61   31   88 1    
    62   31   89 1    
    63   32   33 2    
    64   32   34 am   BACKBONE|DICT|INTERRES
    65   34   35 1    
    66   34   90 1    
    67   35   36 1    
    68   35   37 1    
    69   35   91 1    
    70   36   92 1    
    71   36   93 1    
    72   36   94 1    
    73   37   38 2    
    74   37   39 am   BACKBONE|DICT|INTERRES
    75   39   40 1    
    76   39   95 1    
    77   40   41 1    
    78   40   42 1    
    79   40   96 1    
    80   41   97 1    
    81   41   98 1    
    82   41   99 1    
    83   42   43 2    
    84   42   44 am   BACKBONE|DICT|INTERRES
    85   44   45 1    
    86   44  100 1    
    87   45   46 1    
    88   45   47 1    
    89   45  101 1    
    90   46  102 1    
    91   46  103 1    
    92   46  104 1    
    93   47   48 2    
    94   47   49 am   BACKBONE|DICT|INTERRES
    95   49   50 1    
    96   49  105 1    
    97   50   51 1    
    98   50   52 1    
    99   50  106 1    
   100   51  107 1    
   101   51  108 1    
   102   51  109 1    
   103   52   53 2    
   104   52   54 am   BACKBONE|DICT|INTERRES
   105   54   55 1    
   106   54  110 1    
   107   55   56 1    
   108   55   59 1    
   109   55  111 1    
   110   56   57 am   BACKBONE|DICT|INTERRES
   111   56   58 2    
   112   57  112 1    
   113   57  113 1    
   114   59   60 1    
   115   59  114 1    
   116   59  115 1    
   117   60   61 1    
   118   61  116 1    
   119   61  117 1    
@<TRIPOS>SUBSTRUCTURE
     1 UNK         1 GROUP             0       ****    0 ROOT    
