@<TRIPOS>MOLECULE
3R8
117   119    1
SMALL
USER_CHARGES


@<TRIPOS>ATOM
      1 CA         16.2299  -29.0430  -41.4521 C.3       0 UNK        -0.2013 
      2 C          16.2185  -27.7823  -42.3012 C.2       0 UNK         0.4866 
      3 O          15.7330  -26.7453  -41.8468 O.2       0 UNK        -0.5176 
      4 N          16.7307  -27.8707  -43.5347 N.am      1 UNK        -0.4884 
      5 CA         16.7946  -26.7622  -44.4961 C.3       1 UNK         0.0853 
      6 C6         16.5849  -27.2291  -45.9660 C.3       10 UNK        -0.0849 
      7 S7         15.1741  -28.3772  -46.1644 S.3       10 UNK        -0.2776 
      8 C8         15.9120  -29.7802  -47.0704 C.3       10 UNK         0.0316 
      9 C9         17.1951  -30.3019  -46.4337 C.ar      10 UNK        -0.0863 
     10 C10        17.1711  -30.9078  -45.1726 C.ar      10 UNK        -0.1009 
     11 C11        18.3527  -31.3827  -44.5939 C.ar      10 UNK        -0.0712 
     12 C12        19.5557  -31.2616  -45.2930 C.ar      10 UNK        -0.0894 
     13 C13        19.5970  -30.6441  -46.5445 C.ar      10 UNK        -0.0745 
     14 C14        18.4114  -30.1743  -47.1141 C.ar      10 UNK        -0.0972 
     15 C15        20.9205  -30.4904  -47.2817 C.3       10 UNK         0.0209 
     16 S16        21.5651  -28.7880  -47.1934 S.3       10 UNK        -0.2568 
     17 C17        22.0056  -28.6474  -45.4281 C.3       10 UNK        -0.0983 
     18 CA         22.2175  -27.1850  -44.9693 C.3       3 UNK         0.0876 
     19 N          21.0725  -26.3278  -45.2973 N.am      3 UNK        -0.4424 
     20 C          21.0243  -24.9975  -45.1371 C.2       2 UNK         0.4918 
     21 O          21.9934  -24.3152  -44.8034 O.2       2 UNK        -0.4875 
     22 CA         19.6667  -24.2997  -45.3645 C.3       2 UNK         0.0481 
     23 CB         19.6801  -23.5366  -46.6990 C.3       2 UNK        -0.1831 
     24 N          18.4827  -25.1712  -45.3263 N.am      2 UNK        -0.4498 
     25 C          18.1069  -25.9639  -44.3095 C.2       1 UNK         0.5027 
     26 O          18.7720  -26.0918  -43.2777 O.2       1 UNK        -0.4969 
     27 C          22.5579  -27.1479  -43.4623 C.2       3 UNK         0.5005 
     28 O          23.7370  -27.2182  -43.1123 O.2       3 UNK        -0.5279 
     29 N          21.5232  -27.0113  -42.6148 N.am      4 UNK        -0.4463 
     30 CA         21.5558  -26.7586  -41.1717 C.3       4 UNK         0.0283 
     31 CB         21.6985  -25.2394  -40.9326 C.3       4 UNK        -0.1875 
     32 C          22.5863  -27.6114  -40.4052 C.2       4 UNK         0.4949 
     33 O          22.4057  -28.8250  -40.2939 O.2       4 UNK        -0.5039 
     34 N          23.6393  -26.9658  -39.8882 N.am      5 UNK        -0.4663 
     35 CA         24.7027  -27.5773  -39.0921 C.3       5 UNK         0.0242 
     36 CB         25.4712  -26.4688  -38.3545 C.3       5 UNK        -0.1982 
     37 C          25.6749  -28.4556  -39.8984 C.2       5 UNK         0.5017 
     38 O          26.3368  -29.2979  -39.2921 O.2       5 UNK        -0.5012 
     39 N          25.7548  -28.2679  -41.2259 N.am      6 UNK        -0.4439 
     40 CA         26.6108  -29.0738  -42.1051 C.3       6 UNK         0.0297 
     41 CB         26.8407  -28.3501  -43.4418 C.3       6 UNK        -0.2006 
     42 C          26.0288  -30.4773  -42.3336 C.2       6 UNK         0.4892 
     43 O          26.7826  -31.4506  -42.3546 O.2       6 UNK        -0.5089 
     44 N          24.6975  -30.5541  -42.4648 N.am      7 UNK        -0.4243 
     45 CA         23.9440  -31.8104  -42.5011 C.3       7 UNK         0.0196 
     46 CB         22.6427  -31.5886  -43.2818 C.3       7 UNK        -0.2007 
     47 C          23.6365  -32.3558  -41.0954 C.2       7 UNK         0.5020 
     48 O          23.3332  -33.5411  -40.9652 O.2       7 UNK        -0.5147 
     49 N          23.6972  -31.4768  -40.0848 N.am      8 UNK        -0.4734 
     50 CA         23.3879  -31.6873  -38.6652 C.3       8 UNK         0.0238 
     51 CB         24.2533  -32.8082  -38.0510 C.3       8 UNK        -0.1912 
     52 C          21.8852  -31.8641  -38.3714 C.2       8 UNK         0.5038 
     53 O          21.5363  -32.2361  -37.2495 O.2       8 UNK        -0.5046 
     54 N          21.0241  -31.5688  -39.3544 N.am      9 UNK        -0.4200 
     55 CA         19.5632  -31.5230  -39.2022 C.3       9 UNK         0.0839 
     56 C          19.0302  -30.1596  -38.6774 C.2       9 UNK         0.5513 
     57 N          19.8254  -29.0958  -38.6668 N.am      9 UNK        -0.7519 
     58 O          17.8811  -30.0738  -38.2528 O.2       9 UNK        -0.4960 
     59 C59        18.8286  -31.9978  -40.4828 C.3       10 UNK        -0.0876 
     60 S60        19.1783  -31.0093  -41.9768 S.3       10 UNK        -0.2414 
     61 C61        18.3399  -32.0392  -43.2221 C.3       10 UNK         0.0169 
     62 H62        15.3014  -29.1314  -40.8888 H         1 UNK         0.0903 
     63 H63        16.3367  -29.9385  -42.0630 H         1 UNK         0.0903 
     64 H64        17.0565  -29.0064  -40.7437 H         1 UNK         0.0903 
     65 H65        17.1364  -28.7410  -43.8494 H         1 UNK         0.3096 
     66 H66        15.9859  -26.0637  -44.2689 H         1 UNK         0.1121 
     67 H67        17.4953  -27.6833  -46.3564 H         1 UNK         0.0849 
     68 H68        16.3847  -26.3719  -46.6109 H         1 UNK         0.0849 
     69 H69        15.1832  -30.5904  -47.1200 H         1 UNK         0.0865 
     70 H70        16.0908  -29.4723  -48.1018 H         1 UNK         0.0865 
     71 H71        16.2317  -31.0053  -44.6452 H         1 UNK         0.1346 
     72 H72        20.4647  -31.6387  -44.8517 H         1 UNK         0.1412 
     73 H73        18.4418  -29.6998  -48.0858 H         1 UNK         0.1426 
     74 H74        21.6684  -31.1797  -46.8861 H         1 UNK         0.0716 
     75 H75        20.7825  -30.7601  -48.3297 H         1 UNK         0.0716 
     76 H76        21.2240  -29.1159  -44.8285 H         1 UNK         0.0695 
     77 H77        22.9158  -29.2267  -45.2647 H         1 UNK         0.0695 
     78 H78        23.0829  -26.7839  -45.5014 H         1 UNK         0.0983 
     79 H79        20.2423  -26.8031  -45.6163 H         1 UNK         0.3095 
     80 H80        19.5502  -23.5712  -44.5597 H         1 UNK         0.0454 
     81 H81        19.7598  -24.2139  -47.5503 H         1 UNK         0.0851 
     82 H82        18.7776  -22.9387  -46.8264 H         1 UNK         0.0851 
     83 H83        20.5270  -22.8505  -46.7498 H         1 UNK         0.0851 
     84 H84        17.8858  -25.1279  -46.1396 H         1 UNK         0.2976 
     85 H85        20.5943  -26.9489  -43.0203 H         1 UNK         0.3116 
     86 H86        20.5783  -27.0587  -40.7915 H         1 UNK         0.0646 
     87 H87        22.6153  -24.8387  -41.3670 H         1 UNK         0.0847 
     88 H88        20.8652  -24.6993  -41.3830 H         1 UNK         0.0847 
     89 H89        21.6917  -24.9986  -39.8686 H         1 UNK         0.0847 
     90 H90        23.7128  -25.9721  -40.0520 H         1 UNK         0.3040 
     91 H91        24.2345  -28.2210  -38.3440 H         1 UNK         0.1015 
     92 H92        25.9527  -25.7796  -39.0495 H         1 UNK         0.0786 
     93 H93        26.2526  -26.8900  -37.7200 H         1 UNK         0.0786 
     94 H94        24.8110  -25.8897  -37.7084 H         1 UNK         0.0786 
     95 H95        25.1325  -27.6010  -41.6747 H         1 UNK         0.3172 
     96 H96        27.5835  -29.1895  -41.6216 H         1 UNK         0.0595 
     97 H97        27.5622  -28.8925  -44.0542 H         1 UNK         0.0839 
     98 H98        27.2363  -27.3460  -43.2887 H         1 UNK         0.0839 
     99 H99        25.9247  -28.2652  -44.0264 H         1 UNK         0.0839 
    100 H100       24.1652  -29.6946  -42.4485 H         1 UNK         0.2998 
    101 H101       24.5290  -32.5706  -43.0236 H         1 UNK         0.0822 
    102 H102       22.0061  -32.4739  -43.2403 H         1 UNK         0.0787 
    103 H103       22.0680  -30.7517  -42.8829 H         1 UNK         0.0787 
    104 H104       22.8494  -31.3912  -44.3329 H         1 UNK         0.0787 
    105 H105       23.8785  -30.5128  -40.3325 H         1 UNK         0.3055 
    106 H106       23.6679  -30.7579  -38.1672 H         1 UNK         0.1106 
    107 H107       25.3107  -32.6557  -38.2675 H         1 UNK         0.0828 
    108 H108       24.1473  -32.8331  -36.9658 H         1 UNK         0.0828 
    109 H109       23.9707  -33.7929  -38.4236 H         1 UNK         0.0828 
    110 H110       21.3906  -31.2212  -40.2288 H         1 UNK         0.2931 
    111 H111       19.2930  -32.2443  -38.4284 H         1 UNK         0.0412 
    112 H112       19.4740  -28.2227  -38.3081 H         1 UNK         0.3472 
    113 H113       20.7565  -29.1514  -39.0591 H         1 UNK         0.3472 
    114 H114       19.1057  -33.0332  -40.6873 H         1 UNK         0.0970 
    115 H115       17.7495  -32.0098  -40.3175 H         1 UNK         0.0970 
    116 H116       18.8359  -33.0092  -43.2803 H         1 UNK         0.0612 
    117 H117       17.3155  -32.2316  -42.8996 H         1 UNK         0.0612 
@<TRIPOS>BOND
     1    1    2 1    
     2    1   62 1    
     3    1   63 1    
     4    1   64 1    
     5    2    3 2    
     6    2    4 am   BACKBONE|DICT|INTERRES
     7    4    5 1    
     8    4   65 1    
     9    5    6 1    
    10    5   25 1    
    11    5   66 1    
    12    6    7 1    
    13    6   67 1    
    14    6   68 1    
    15    7    8 1    
    16    8    9 1    
    17    8   69 1    
    18    8   70 1    
    19    9   10 ar   
    20    9   14 ar   
    21   10   11 ar   
    22   10   71 1    
    23   11   12 ar   
    24   11   61 1    
    25   12   13 ar   
    26   12   72 1    
    27   13   14 ar   
    28   13   15 1    
    29   14   73 1    
    30   15   16 1    
    31   15   74 1    
    32   15   75 1    
    33   16   17 1    
    34   17   18 1    
    35   17   76 1    
    36   17   77 1    
    37   18   19 1    
    38   18   27 1    
    39   18   78 1    
    40   19   20 am   BACKBONE|DICT|INTERRES
    41   19   79 1    
    42   20   21 2    
    43   20   22 1    
    44   22   23 1    
    45   22   24 1    
    46   22   80 1    
    47   23   81 1    
    48   23   82 1    
    49   23   83 1    
    50   24   25 am   BACKBONE|DICT|INTERRES
    51   24   84 1    
    52   25   26 2    
    53   27   28 2    
    54   27   29 am   BACKBONE|DICT|INTERRES
    55   29   30 1    
    56   29   85 1    
    57   30   31 1    
    58   30   32 1    
    59   30   86 1    
    60   31   87 1    
    61   31   88 1    
    62   31   89 1    
    63   32   33 2    
    64   32   34 am   BACKBONE|DICT|INTERRES
    65   34   35 1    
    66   34   90 1    
    67   35   36 1    
    68   35   37 1    
    69   35   91 1    
    70   36   92 1    
    71   36   93 1    
    72   36   94 1    
    73   37   38 2    
    74   37   39 am   BACKBONE|DICT|INTERRES
    75   39   40 1    
    76   39   95 1    
    77   40   41 1    
    78   40   42 1    
    79   40   96 1    
    80   41   97 1    
    81   41   98 1    
    82   41   99 1    
    83   42   43 2    
    84   42   44 am   BACKBONE|DICT|INTERRES
    85   44   45 1    
    86   44  100 1    
    87   45   46 1    
    88   45   47 1    
    89   45  101 1    
    90   46  102 1    
    91   46  103 1    
    92   46  104 1    
    93   47   48 2    
    94   47   49 am   BACKBONE|DICT|INTERRES
    95   49   50 1    
    96   49  105 1    
    97   50   51 1    
    98   50   52 1    
    99   50  106 1    
   100   51  107 1    
   101   51  108 1    
   102   51  109 1    
   103   52   53 2    
   104   52   54 am   BACKBONE|DICT|INTERRES
   105   54   55 1    
   106   54  110 1    
   107   55   56 1    
   108   55   59 1    
   109   55  111 1    
   110   56   57 am   BACKBONE|DICT|INTERRES
   111   56   58 2    
   112   57  112 1    
   113   57  113 1    
   114   59   60 1    
   115   59  114 1    
   116   59  115 1    
   117   60   61 1    
   118   61  116 1    
   119   61  117 1    
@<TRIPOS>SUBSTRUCTURE
     1 UNK         1 GROUP             0       ****    0 ROOT    
