@<TRIPOS>MOLECULE
3R8
117   119    1
SMALL
USER_CHARGES


@<TRIPOS>ATOM
      1 CA         19.9714  -25.1090  -49.4340 C.3       0 UNK        -0.2013 
      2 C          20.2581  -26.3194  -48.5582 C.2       0 UNK         0.4866 
      3 O          21.3692  -26.8482  -48.5909 O.2       0 UNK        -0.5176 
      4 N          19.2647  -26.7613  -47.7740 N.am      1 UNK        -0.4884 
      5 CA         19.3676  -27.9101  -46.8598 C.3       1 UNK         0.0853 
      6 C6         17.9637  -28.4824  -46.5200 C.3       10 UNK        -0.0849 
      7 S7         17.9341  -30.3049  -46.5978 S.3       10 UNK        -0.2776 
      8 C8         16.6594  -30.7258  -45.3678 C.3       10 UNK         0.0316 
      9 C9         17.0874  -30.3664  -43.9531 C.ar      10 UNK        -0.0863 
     10 C10        18.1243  -31.0658  -43.3325 C.ar      10 UNK        -0.1009 
     11 C11        18.5258  -30.7427  -42.0329 C.ar      10 UNK        -0.0712 
     12 C12        17.8808  -29.7022  -41.3531 C.ar      10 UNK        -0.0894 
     13 C13        16.8401  -28.9940  -41.9657 C.ar      10 UNK        -0.0745 
     14 C14        16.4443  -29.3377  -43.2615 C.ar      10 UNK        -0.0972 
     15 C15        16.1197  -27.8661  -41.2401 C.3       10 UNK         0.0209 
     16 S16        16.4535  -26.2530  -42.0220 S.3       10 UNK        -0.2568 
     17 C17        17.6098  -25.4824  -40.8431 C.3       10 UNK        -0.0983 
     18 CA         19.0741  -25.9577  -41.0052 C.3       3 UNK         0.0876 
     19 N          19.5794  -25.7563  -42.3691 N.am      3 UNK        -0.4424 
     20 C          20.7712  -26.1768  -42.8117 C.2       2 UNK         0.4918 
     21 O          21.5383  -26.8792  -42.1503 O.2       2 UNK        -0.4875 
     22 CA         21.1685  -25.7073  -44.2212 C.3       2 UNK         0.0481 
     23 CB         22.6640  -25.9369  -44.5229 C.3       2 UNK        -0.1831 
     24 N          20.3338  -26.2943  -45.2739 N.am      2 UNK        -0.4498 
     25 C          20.2035  -27.5932  -45.5946 C.2       1 UNK         0.5027 
     26 O          20.7392  -28.5120  -44.9741 O.2       1 UNK        -0.4969 
     27 C          19.9742  -25.2591  -39.9603 C.2       3 UNK         0.5005 
     28 O          20.6727  -24.2968  -40.2922 O.2       3 UNK        -0.5279 
     29 N          19.9581  -25.7680  -38.7196 N.am      4 UNK        -0.4463 
     30 CA         20.7811  -25.3774  -37.5609 C.3       4 UNK         0.0283 
     31 CB         20.6196  -23.8880  -37.1967 C.3       4 UNK        -0.1875 
     32 C          22.2643  -25.7701  -37.6967 C.2       4 UNK         0.4949 
     33 O          22.8281  -26.3105  -36.7453 O.2       4 UNK        -0.5039 
     34 N          22.8559  -25.5469  -38.8783 N.am      5 UNK        -0.4663 
     35 CA         24.1510  -26.1041  -39.2825 C.3       5 UNK         0.0242 
     36 CB         24.6258  -25.4180  -40.5735 C.3       5 UNK        -0.1982 
     37 C          24.0731  -27.6298  -39.4722 C.2       5 UNK         0.5017 
     38 O          25.0030  -28.3390  -39.0884 O.2       5 UNK        -0.5012 
     39 N          22.9427  -28.0887  -40.0310 N.am      6 UNK        -0.4439 
     40 CA         22.5255  -29.4767  -40.2371 C.3       6 UNK         0.0297 
     41 CB         22.3537  -30.2018  -38.8850 C.3       6 UNK        -0.2006 
     42 C          23.4166  -30.2458  -41.2290 C.2       6 UNK         0.4892 
     43 O          23.5788  -31.4580  -41.0859 O.2       6 UNK        -0.5089 
     44 N          23.9642  -29.5360  -42.2271 N.am      7 UNK        -0.4243 
     45 CA         24.9335  -30.0593  -43.1967 C.3       7 UNK         0.0196 
     46 CB         25.4327  -28.9195  -44.0986 C.3       7 UNK        -0.2007 
     47 C          24.4040  -31.2284  -44.0440 C.2       7 UNK         0.5020 
     48 O          25.1421  -32.1843  -44.2827 O.2       7 UNK        -0.5147 
     49 N          23.1296  -31.1561  -44.4520 N.am      8 UNK        -0.4734 
     50 CA         22.4518  -32.2123  -45.2123 C.3       8 UNK         0.0238 
     51 CB         21.1972  -31.6261  -45.8746 C.3       8 UNK        -0.1912 
     52 C          22.0912  -33.4542  -44.3744 C.2       8 UNK         0.5038 
     53 O          21.7930  -34.4967  -44.9587 O.2       8 UNK        -0.5046 
     54 N          22.1210  -33.3292  -43.0417 N.am      9 UNK        -0.4200 
     55 CA         21.8585  -34.4123  -42.0823 C.3       9 UNK         0.0839 
     56 C          23.1479  -35.1681  -41.6465 C.2       9 UNK         0.5513 
     57 N          24.3351  -34.8024  -42.1179 N.am      9 UNK        -0.7519 
     58 O          23.0677  -36.1231  -40.8780 O.2       9 UNK        -0.4960 
     59 C59        21.0482  -33.9051  -40.8582 C.3       10 UNK        -0.0876 
     60 S60        19.3904  -33.2914  -41.3179 S.3       10 UNK        -0.2414 
     61 C61        19.6813  -31.4952  -41.3879 C.3       10 UNK         0.0169 
     62 H62        18.9523  -24.7442  -49.3071 H         1 UNK         0.0903 
     63 H63        20.6554  -24.2973  -49.1875 H         1 UNK         0.0903 
     64 H64        20.1110  -25.3648  -50.4840 H         1 UNK         0.0903 
     65 H65        18.3696  -26.2923  -47.7981 H         1 UNK         0.3096 
     66 H66        19.9318  -28.6765  -47.3972 H         1 UNK         0.1121 
     67 H67        17.6115  -28.1302  -45.5490 H         1 UNK         0.0849 
     68 H68        17.2180  -28.1378  -47.2383 H         1 UNK         0.0849 
     69 H69        15.7248  -30.2296  -45.6342 H         1 UNK         0.0865 
     70 H70        16.4604  -31.7973  -45.4183 H         1 UNK         0.0865 
     71 H71        18.6230  -31.8643  -43.8645 H         1 UNK         0.1346 
     72 H72        18.1891  -29.4439  -40.3496 H         1 UNK         0.1412 
     73 H73        15.6393  -28.7911  -43.7339 H         1 UNK         0.1426 
     74 H74        16.3883  -27.8448  -40.1832 H         1 UNK         0.0716 
     75 H75        15.0456  -28.0538  -41.2746 H         1 UNK         0.0716 
     76 H76        17.2469  -25.6685  -39.8304 H         1 UNK         0.0695 
     77 H77        17.5477  -24.4017  -40.9863 H         1 UNK         0.0695 
     78 H78        19.1143  -27.0312  -40.8106 H         1 UNK         0.0983 
     79 H79        19.0051  -25.1886  -42.9735 H         1 UNK         0.3095 
     80 H80        20.9945  -24.6307  -44.2537 H         1 UNK         0.0454 
     81 H81        22.9237  -26.9938  -44.4838 H         1 UNK         0.0851 
     82 H82        23.2927  -25.4202  -43.7975 H         1 UNK         0.0851 
     83 H83        22.9325  -25.5628  -45.5107 H         1 UNK         0.0851 
     84 H84        19.8418  -25.6333  -45.8580 H         1 UNK         0.2976 
     85 H85        19.3570  -26.5631  -38.5490 H         1 UNK         0.3116 
     86 H86        20.3856  -25.9540  -36.7228 H         1 UNK         0.0646 
     87 H87        21.0456  -23.2282  -37.9526 H         1 UNK         0.0847 
     88 H88        21.1260  -23.6645  -36.2568 H         1 UNK         0.0847 
     89 H89        19.5705  -23.6212  -37.0704 H         1 UNK         0.0847 
     90 H90        22.3085  -25.0631  -39.5854 H         1 UNK         0.3040 
     91 H91        24.8773  -25.9012  -38.4921 H         1 UNK         0.1015 
     92 H92        24.7534  -24.3454  -40.4271 H         1 UNK         0.0786 
     93 H93        23.9196  -25.5617  -41.3918 H         1 UNK         0.0786 
     94 H94        25.5878  -25.8178  -40.8973 H         1 UNK         0.0786 
     95 H95        22.3148  -27.4013  -40.4374 H         1 UNK         0.3172 
     96 H96        21.5438  -29.4114  -40.7058 H         1 UNK         0.0595 
     97 H97        23.3098  -30.3486  -38.3820 H         1 UNK         0.0839 
     98 H98        21.9064  -31.1865  -39.0155 H         1 UNK         0.0839 
     99 H99        21.7047  -29.6400  -38.2133 H         1 UNK         0.0839 
    100 H100       23.7389  -28.5528  -42.2846 H         1 UNK         0.2998 
    101 H101       25.7846  -30.4338  -42.6238 H         1 UNK         0.0822 
    102 H102       26.2308  -29.2682  -44.7555 H         1 UNK         0.0787 
    103 H103       24.6388  -28.5310  -44.7362 H         1 UNK         0.0787 
    104 H104       25.8346  -28.0918  -43.5138 H         1 UNK         0.0787 
    105 H105       22.5873  -30.3315  -44.2281 H         1 UNK         0.3055 
    106 H106       23.1244  -32.5505  -46.0040 H         1 UNK         0.1106 
    107 H107       20.6598  -32.3823  -46.4484 H         1 UNK         0.0828 
    108 H108       21.4508  -30.8194  -46.5623 H         1 UNK         0.0828 
    109 H109       20.5055  -31.2256  -45.1339 H         1 UNK         0.0828 
    110 H110       22.4571  -32.4641  -42.6385 H         1 UNK         0.2931 
    111 H111       21.2420  -35.1669  -42.5744 H         1 UNK         0.0412 
    112 H112       24.4209  -34.0153  -42.7441 H         1 UNK         0.3472 
    113 H113       25.1576  -35.3080  -41.8286 H         1 UNK         0.3472 
    114 H114       20.8976  -34.7140  -40.1409 H         1 UNK         0.0970 
    115 H115       21.5998  -33.1325  -40.3223 H         1 UNK         0.0970 
    116 H116       19.8596  -31.1342  -40.3748 H         1 UNK         0.0612 
    117 H117       20.5838  -31.2938  -41.9645 H         1 UNK         0.0612 
@<TRIPOS>BOND
     1    1    2 1    
     2    1   62 1    
     3    1   63 1    
     4    1   64 1    
     5    2    3 2    
     6    2    4 am   BACKBONE|DICT|INTERRES
     7    4    5 1    
     8    4   65 1    
     9    5    6 1    
    10    5   25 1    
    11    5   66 1    
    12    6    7 1    
    13    6   67 1    
    14    6   68 1    
    15    7    8 1    
    16    8    9 1    
    17    8   69 1    
    18    8   70 1    
    19    9   10 ar   
    20    9   14 ar   
    21   10   11 ar   
    22   10   71 1    
    23   11   12 ar   
    24   11   61 1    
    25   12   13 ar   
    26   12   72 1    
    27   13   14 ar   
    28   13   15 1    
    29   14   73 1    
    30   15   16 1    
    31   15   74 1    
    32   15   75 1    
    33   16   17 1    
    34   17   18 1    
    35   17   76 1    
    36   17   77 1    
    37   18   19 1    
    38   18   27 1    
    39   18   78 1    
    40   19   20 am   BACKBONE|DICT|INTERRES
    41   19   79 1    
    42   20   21 2    
    43   20   22 1    
    44   22   23 1    
    45   22   24 1    
    46   22   80 1    
    47   23   81 1    
    48   23   82 1    
    49   23   83 1    
    50   24   25 am   BACKBONE|DICT|INTERRES
    51   24   84 1    
    52   25   26 2    
    53   27   28 2    
    54   27   29 am   BACKBONE|DICT|INTERRES
    55   29   30 1    
    56   29   85 1    
    57   30   31 1    
    58   30   32 1    
    59   30   86 1    
    60   31   87 1    
    61   31   88 1    
    62   31   89 1    
    63   32   33 2    
    64   32   34 am   BACKBONE|DICT|INTERRES
    65   34   35 1    
    66   34   90 1    
    67   35   36 1    
    68   35   37 1    
    69   35   91 1    
    70   36   92 1    
    71   36   93 1    
    72   36   94 1    
    73   37   38 2    
    74   37   39 am   BACKBONE|DICT|INTERRES
    75   39   40 1    
    76   39   95 1    
    77   40   41 1    
    78   40   42 1    
    79   40   96 1    
    80   41   97 1    
    81   41   98 1    
    82   41   99 1    
    83   42   43 2    
    84   42   44 am   BACKBONE|DICT|INTERRES
    85   44   45 1    
    86   44  100 1    
    87   45   46 1    
    88   45   47 1    
    89   45  101 1    
    90   46  102 1    
    91   46  103 1    
    92   46  104 1    
    93   47   48 2    
    94   47   49 am   BACKBONE|DICT|INTERRES
    95   49   50 1    
    96   49  105 1    
    97   50   51 1    
    98   50   52 1    
    99   50  106 1    
   100   51  107 1    
   101   51  108 1    
   102   51  109 1    
   103   52   53 2    
   104   52   54 am   BACKBONE|DICT|INTERRES
   105   54   55 1    
   106   54  110 1    
   107   55   56 1    
   108   55   59 1    
   109   55  111 1    
   110   56   57 am   BACKBONE|DICT|INTERRES
   111   56   58 2    
   112   57  112 1    
   113   57  113 1    
   114   59   60 1    
   115   59  114 1    
   116   59  115 1    
   117   60   61 1    
   118   61  116 1    
   119   61  117 1    
@<TRIPOS>SUBSTRUCTURE
     1 UNK         1 GROUP             0       ****    0 ROOT    
