@<TRIPOS>MOLECULE
3R8
117   119    1
SMALL
USER_CHARGES


@<TRIPOS>ATOM
      1 CA         12.4073  -25.7790  -45.1896 C.3       0 UNK        -0.2013 
      2 C          13.7304  -26.5191  -45.3175 C.2       0 UNK         0.4866 
      3 O          14.1717  -26.7912  -46.4345 O.2       0 UNK        -0.5176 
      4 N          14.3621  -26.8407  -44.1841 N.am      1 UNK        -0.4884 
      5 CA         15.6622  -27.5087  -44.0980 C.3       1 UNK         0.0853 
      6 C6         15.5511  -28.9221  -43.4773 C.3       10 UNK        -0.0849 
      7 S7         14.5672  -30.1144  -44.4477 S.3       10 UNK        -0.2776 
      8 C8         15.5295  -30.2987  -45.9927 C.3       10 UNK         0.0316 
      9 C9         17.0295  -30.5104  -45.7930 C.ar      10 UNK        -0.0863 
     10 C10        17.5192  -31.3905  -44.8196 C.ar      10 UNK        -0.1009 
     11 C11        18.8966  -31.5460  -44.6227 C.ar      10 UNK        -0.0712 
     12 C12        19.7821  -30.8652  -45.4632 C.ar      10 UNK        -0.0894 
     13 C13        19.3111  -30.0101  -46.4612 C.ar      10 UNK        -0.0745 
     14 C14        17.9342  -29.8261  -46.6115 C.ar      10 UNK        -0.0972 
     15 C15        20.2866  -29.3157  -47.4021 C.3       10 UNK         0.0209 
     16 S16        20.6954  -27.6300  -46.8555 S.3       10 UNK        -0.2568 
     17 C17        21.9772  -27.9470  -45.5934 C.3       10 UNK        -0.0983 
     18 CA         22.2562  -26.6889  -44.7245 C.3       3 UNK         0.0876 
     19 N          21.0521  -26.1686  -44.0596 N.am      3 UNK        -0.4424 
     20 C          20.2959  -26.8119  -43.1598 C.2       2 UNK         0.4918 
     21 O          20.5677  -27.9160  -42.6902 O.2       2 UNK        -0.4875 
     22 CA         18.9890  -26.1235  -42.7447 C.3       2 UNK         0.0481 
     23 CB         18.9859  -24.5924  -42.9690 C.3       2 UNK        -0.1831 
     24 N          17.9101  -26.7712  -43.4856 N.am      2 UNK        -0.4498 
     25 C          16.6014  -26.6466  -43.2373 C.2       1 UNK         0.5027 
     26 O          16.1299  -25.9237  -42.3546 O.2       1 UNK        -0.4969 
     27 C          23.4670  -26.8443  -43.7711 C.2       3 UNK         0.5005 
     28 O          24.3851  -27.6138  -44.0632 O.2       3 UNK        -0.5279 
     29 N          23.4690  -26.0573  -42.6820 N.am      4 UNK        -0.4463 
     30 CA         24.5127  -25.9145  -41.6582 C.3       4 UNK         0.0283 
     31 CB         25.8284  -25.4109  -42.2945 C.3       4 UNK        -0.1875 
     32 C          24.7359  -27.1765  -40.8020 C.2       4 UNK         0.4949 
     33 O          24.0911  -28.2081  -41.0011 O.2       4 UNK        -0.5039 
     34 N          25.6689  -27.0688  -39.8455 N.am      5 UNK        -0.4663 
     35 CA         26.0653  -28.1353  -38.9167 C.3       5 UNK         0.0242 
     36 CB         27.0083  -27.5491  -37.8535 C.3       5 UNK        -0.1982 
     37 C          26.7127  -29.3580  -39.5942 C.2       5 UNK         0.5017 
     38 O          26.7382  -30.4308  -38.9920 O.2       5 UNK        -0.5012 
     39 N          27.2056  -29.1815  -40.8289 N.am      6 UNK        -0.4439 
     40 CA         27.7109  -30.2492  -41.6933 C.3       6 UNK         0.0297 
     41 CB         28.3826  -29.6323  -42.9308 C.3       6 UNK        -0.2006 
     42 C          26.6107  -31.2413  -42.1110 C.2       6 UNK         0.4892 
     43 O          26.8704  -32.4447  -42.1447 O.2       6 UNK        -0.5089 
     44 N          25.4085  -30.7242  -42.4035 N.am      7 UNK        -0.4243 
     45 CA         24.2187  -31.5278  -42.6889 C.3       7 UNK         0.0196 
     46 CB         23.3258  -30.7731  -43.6785 C.3       7 UNK        -0.2007 
     47 C          23.4388  -31.8544  -41.4057 C.2       7 UNK         0.5020 
     48 O          22.8644  -32.9382  -41.3103 O.2       7 UNK        -0.5147 
     49 N          23.4466  -30.9150  -40.4484 N.am      8 UNK        -0.4734 
     50 CA         22.8787  -30.9913  -39.0971 C.3       8 UNK         0.0238 
     51 CB         23.4789  -32.1680  -38.2976 C.3       8 UNK        -0.1912 
     52 C          21.3398  -30.9546  -39.0350 C.2       8 UNK         0.5038 
     53 O          20.7835  -31.2278  -37.9696 O.2       8 UNK        -0.5046 
     54 N          20.6771  -30.5735  -40.1358 N.am      9 UNK        -0.4200 
     55 CA         19.2330  -30.2843  -40.1642 C.3       9 UNK         0.0839 
     56 C          18.8732  -28.8489  -39.6763 C.2       9 UNK         0.5513 
     57 N          19.8305  -27.9662  -39.4139 N.am      9 UNK        -0.7519 
     58 O          17.6969  -28.5370  -39.5115 O.2       9 UNK        -0.4960 
     59 C59        18.5964  -30.5857  -41.5441 C.3       10 UNK        -0.0876 
     60 S60        18.5512  -32.3668  -41.9393 S.3       10 UNK        -0.2414 
     61 C61        19.4529  -32.4527  -43.5243 C.3       10 UNK         0.0169 
     62 H62        12.4679  -24.8125  -45.6893 H         1 UNK         0.0903 
     63 H63        11.6094  -26.3552  -45.6572 H         1 UNK         0.0903 
     64 H64        12.1348  -25.6063  -44.1486 H         1 UNK         0.0903 
     65 H65        13.9928  -26.5301  -43.2950 H         1 UNK         0.3096 
     66 H66        16.1128  -27.5877  -45.0896 H         1 UNK         0.1121 
     67 H67        15.1098  -28.8651  -42.4801 H         1 UNK         0.0849 
     68 H68        16.5434  -29.3462  -43.3347 H         1 UNK         0.0849 
     69 H69        15.1304  -31.1457  -46.5520 H         1 UNK         0.0865 
     70 H70        15.3475  -29.4173  -46.6099 H         1 UNK         0.0865 
     71 H71        16.8246  -31.9321  -44.1925 H         1 UNK         0.1346 
     72 H72        20.8457  -31.0051  -45.3527 H         1 UNK         0.1412 
     73 H73        17.5693  -29.1591  -47.3811 H         1 UNK         0.1426 
     74 H74        19.8492  -29.2603  -48.4001 H         1 UNK         0.0716 
     75 H75        21.2027  -29.8992  -47.5081 H         1 UNK         0.0716 
     76 H76        22.8810  -28.2723  -46.1116 H         1 UNK         0.0695 
     77 H77        21.6631  -28.7794  -44.9657 H         1 UNK         0.0695 
     78 H78        22.5652  -25.9004  -45.4127 H         1 UNK         0.0983 
     79 H79        20.7297  -25.2716  -44.3931 H         1 UNK         0.3095 
     80 H80        18.8469  -26.3185  -41.6801 H         1 UNK         0.0454 
     81 H81        18.9740  -24.3295  -44.0272 H         1 UNK         0.0851 
     82 H82        19.8590  -24.1234  -42.5134 H         1 UNK         0.0851 
     83 H83        18.1124  -24.1287  -42.5109 H         1 UNK         0.0851 
     84 H84        18.2183  -27.4161  -44.2023 H         1 UNK         0.2976 
     85 H85        22.6435  -25.4956  -42.5320 H         1 UNK         0.3116 
     86 H86        24.1530  -25.1417  -40.9772 H         1 UNK         0.0646 
     87 H87        26.3073  -26.1787  -42.9031 H         1 UNK         0.0847 
     88 H88        26.5497  -25.1003  -41.5384 H         1 UNK         0.0847 
     89 H89        25.6519  -24.5453  -42.9331 H         1 UNK         0.0847 
     90 H90        26.1424  -26.1833  -39.7333 H         1 UNK         0.3040 
     91 H91        25.1630  -28.4907  -38.4147 H         1 UNK         0.1015 
     92 H92        27.9243  -27.1571  -38.2975 H         1 UNK         0.0786 
     93 H93        27.2985  -28.3092  -37.1265 H         1 UNK         0.0786 
     94 H94        26.5298  -26.7416  -37.2988 H         1 UNK         0.0786 
     95 H95        27.1536  -28.2553  -41.2261 H         1 UNK         0.3172 
     96 H96        28.4673  -30.8039  -41.1339 H         1 UNK         0.0595 
     97 H97        28.7840  -30.4093  -43.5830 H         1 UNK         0.0839 
     98 H98        29.2145  -28.9856  -42.6513 H         1 UNK         0.0839 
     99 H99        27.6809  -29.0421  -43.5223 H         1 UNK         0.0839 
    100 H100       25.2735  -29.7227  -42.3434 H         1 UNK         0.2998 
    101 H101       24.5181  -32.4693  -43.1549 H         1 UNK         0.0822 
    102 H102       22.5237  -31.4220  -44.0200 H         1 UNK         0.0787 
    103 H103       22.8747  -29.8893  -43.2246 H         1 UNK         0.0787 
    104 H104       23.8824  -30.4534  -44.5598 H         1 UNK         0.0787 
    105 H105       23.8631  -30.0148  -40.6807 H         1 UNK         0.3055 
    106 H106       23.2006  -30.0747  -38.6010 H         1 UNK         0.1106 
    107 H107       23.1980  -32.1113  -37.2453 H         1 UNK         0.0828 
    108 H108       23.1334  -33.1320  -38.6716 H         1 UNK         0.0828 
    109 H109       24.5682  -32.1611  -38.3398 H         1 UNK         0.0828 
    110 H110       21.2013  -30.3450  -40.9673 H         1 UNK         0.2931 
    111 H111       18.7442  -30.9498  -39.4499 H         1 UNK         0.0412 
    112 H112       19.5771  -27.0499  -39.0812 H         1 UNK         0.3472 
    113 H113       20.7969  -28.1969  -39.5763 H         1 UNK         0.3472 
    114 H114       17.5590  -30.2515  -41.5557 H         1 UNK         0.0970 
    115 H115       19.1046  -30.0299  -42.3323 H         1 UNK         0.0970 
    116 H116       20.4961  -32.2129  -43.3200 H         1 UNK         0.0612 
    117 H117       19.4360  -33.4833  -43.8802 H         1 UNK         0.0612 
@<TRIPOS>BOND
     1    1    2 1    
     2    1   62 1    
     3    1   63 1    
     4    1   64 1    
     5    2    3 2    
     6    2    4 am   BACKBONE|DICT|INTERRES
     7    4    5 1    
     8    4   65 1    
     9    5    6 1    
    10    5   25 1    
    11    5   66 1    
    12    6    7 1    
    13    6   67 1    
    14    6   68 1    
    15    7    8 1    
    16    8    9 1    
    17    8   69 1    
    18    8   70 1    
    19    9   10 ar   
    20    9   14 ar   
    21   10   11 ar   
    22   10   71 1    
    23   11   12 ar   
    24   11   61 1    
    25   12   13 ar   
    26   12   72 1    
    27   13   14 ar   
    28   13   15 1    
    29   14   73 1    
    30   15   16 1    
    31   15   74 1    
    32   15   75 1    
    33   16   17 1    
    34   17   18 1    
    35   17   76 1    
    36   17   77 1    
    37   18   19 1    
    38   18   27 1    
    39   18   78 1    
    40   19   20 am   BACKBONE|DICT|INTERRES
    41   19   79 1    
    42   20   21 2    
    43   20   22 1    
    44   22   23 1    
    45   22   24 1    
    46   22   80 1    
    47   23   81 1    
    48   23   82 1    
    49   23   83 1    
    50   24   25 am   BACKBONE|DICT|INTERRES
    51   24   84 1    
    52   25   26 2    
    53   27   28 2    
    54   27   29 am   BACKBONE|DICT|INTERRES
    55   29   30 1    
    56   29   85 1    
    57   30   31 1    
    58   30   32 1    
    59   30   86 1    
    60   31   87 1    
    61   31   88 1    
    62   31   89 1    
    63   32   33 2    
    64   32   34 am   BACKBONE|DICT|INTERRES
    65   34   35 1    
    66   34   90 1    
    67   35   36 1    
    68   35   37 1    
    69   35   91 1    
    70   36   92 1    
    71   36   93 1    
    72   36   94 1    
    73   37   38 2    
    74   37   39 am   BACKBONE|DICT|INTERRES
    75   39   40 1    
    76   39   95 1    
    77   40   41 1    
    78   40   42 1    
    79   40   96 1    
    80   41   97 1    
    81   41   98 1    
    82   41   99 1    
    83   42   43 2    
    84   42   44 am   BACKBONE|DICT|INTERRES
    85   44   45 1    
    86   44  100 1    
    87   45   46 1    
    88   45   47 1    
    89   45  101 1    
    90   46  102 1    
    91   46  103 1    
    92   46  104 1    
    93   47   48 2    
    94   47   49 am   BACKBONE|DICT|INTERRES
    95   49   50 1    
    96   49  105 1    
    97   50   51 1    
    98   50   52 1    
    99   50  106 1    
   100   51  107 1    
   101   51  108 1    
   102   51  109 1    
   103   52   53 2    
   104   52   54 am   BACKBONE|DICT|INTERRES
   105   54   55 1    
   106   54  110 1    
   107   55   56 1    
   108   55   59 1    
   109   55  111 1    
   110   56   57 am   BACKBONE|DICT|INTERRES
   111   56   58 2    
   112   57  112 1    
   113   57  113 1    
   114   59   60 1    
   115   59  114 1    
   116   59  115 1    
   117   60   61 1    
   118   61  116 1    
   119   61  117 1    
@<TRIPOS>SUBSTRUCTURE
     1 UNK         1 GROUP             0       ****    0 ROOT    
