@<TRIPOS>MOLECULE
3R8
117   119    1
SMALL
USER_CHARGES


@<TRIPOS>ATOM
      1 CA         14.9690  -23.4193  -43.1153 C.3       0 UNK        -0.2013 
      2 C          15.7194  -24.6854  -43.5018 C.2       0 UNK         0.4866 
      3 O          16.2135  -24.7815  -44.6248 O.2       0 UNK        -0.5176 
      4 N          15.7975  -25.6544  -42.5820 N.am      1 UNK        -0.4884 
      5 CA         16.5223  -26.9206  -42.7469 C.3       1 UNK         0.0853 
      6 C6         15.8203  -28.0714  -41.9761 C.3       10 UNK        -0.0849 
      7 S7         14.3084  -28.5959  -42.8488 S.3       10 UNK        -0.2776 
      8 C8         14.8149  -30.2151  -43.5312 C.3       10 UNK         0.0316 
      9 C9         16.0581  -30.1602  -44.4191 C.ar      10 UNK        -0.0863 
     10 C10        17.0898  -31.0862  -44.2270 C.ar      10 UNK        -0.1009 
     11 C11        18.2180  -31.0781  -45.0526 C.ar      10 UNK        -0.0712 
     12 C12        18.3178  -30.1263  -46.0681 C.ar      10 UNK        -0.0894 
     13 C13        17.3072  -29.1819  -46.2625 C.ar      10 UNK        -0.0745 
     14 C14        16.1698  -29.2190  -45.4494 C.ar      10 UNK        -0.0972 
     15 C15        17.4300  -28.1405  -47.3662 C.3       10 UNK         0.0209 
     16 S16        18.4320  -26.7070  -46.8500 S.3       10 UNK        -0.2568 
     17 C17        20.1374  -27.3035  -47.1240 C.3       10 UNK        -0.0983 
     18 CA         21.0656  -27.1428  -45.8923 C.3       3 UNK         0.0876 
     19 N          20.4652  -27.6362  -44.6420 N.am      3 UNK        -0.4424 
     20 C          20.9764  -27.4350  -43.4170 C.2       2 UNK         0.4918 
     21 O          22.0367  -26.8419  -43.2155 O.2       2 UNK        -0.4875 
     22 CA         20.1934  -28.0243  -42.2312 C.3       2 UNK         0.0481 
     23 CB         20.6691  -27.4760  -40.8679 C.3       2 UNK        -0.1831 
     24 N          18.7424  -27.9000  -42.4074 N.am      2 UNK        -0.4498 
     25 C          18.0159  -26.7711  -42.3844 C.2       1 UNK         0.5027 
     26 O          18.4824  -25.6610  -42.1149 O.2       1 UNK        -0.4969 
     27 C          22.4530  -27.7625  -46.1826 C.2       3 UNK         0.5005 
     28 O          23.2503  -27.1565  -46.8996 O.2       3 UNK        -0.5279 
     29 N          22.7266  -28.9392  -45.5977 N.am      4 UNK        -0.4463 
     30 CA         24.0266  -29.6162  -45.6034 C.3       4 UNK         0.0283 
     31 CB         23.8169  -31.0818  -45.1861 C.3       4 UNK        -0.1875 
     32 C          25.0865  -28.9480  -44.6998 C.2       4 UNK         0.4949 
     33 O          26.2514  -29.3407  -44.7741 O.2       4 UNK        -0.5039 
     34 N          24.6730  -27.9714  -43.8751 N.am      5 UNK        -0.4663 
     35 CA         25.4466  -27.2398  -42.8647 C.3       5 UNK         0.0242 
     36 CB         26.6723  -26.5377  -43.4919 C.3       5 UNK        -0.1982 
     37 C          25.8146  -28.1118  -41.6488 C.2       5 UNK         0.5017 
     38 O          25.3861  -29.2645  -41.5516 O.2       5 UNK        -0.5012 
     39 N          26.5536  -27.5127  -40.7010 N.am      6 UNK        -0.4439 
     40 CA         27.0846  -28.1108  -39.4634 C.3       6 UNK         0.0297 
     41 CB         28.1862  -29.1367  -39.8061 C.3       6 UNK        -0.2006 
     42 C          26.0209  -28.7082  -38.5142 C.2       6 UNK         0.4892 
     43 O          26.3645  -29.5353  -37.6681 O.2       6 UNK        -0.5089 
     44 N          24.7538  -28.2961  -38.6843 N.am      7 UNK        -0.4243 
     45 CA         23.5460  -28.8333  -38.0431 C.3       7 UNK         0.0196 
     46 CB         23.5329  -28.5074  -36.5343 C.3       7 UNK        -0.2007 
     47 C          23.3130  -30.3335  -38.3325 C.2       7 UNK         0.5020 
     48 O          22.6944  -31.0197  -37.5180 O.2       7 UNK        -0.5147 
     49 N          23.7987  -30.8227  -39.4853 N.am      8 UNK        -0.4734 
     50 CA         23.7692  -32.2392  -39.8735 C.3       8 UNK         0.0238 
     51 CB         24.6794  -32.4420  -41.0959 C.3       8 UNK        -0.1912 
     52 C          22.3639  -32.8010  -40.1558 C.2       8 UNK         0.5038 
     53 O          22.1837  -34.0184  -40.0991 O.2       8 UNK        -0.5046 
     54 N          21.4059  -31.9192  -40.4541 N.am      9 UNK        -0.4200 
     55 CA         20.0071  -32.2478  -40.7545 C.3       9 UNK         0.0839 
     56 C          19.0296  -31.1189  -40.3289 C.2       9 UNK         0.5513 
     57 N          19.3354  -30.3728  -39.2741 N.am      9 UNK        -0.7519 
     58 O          17.9868  -30.9151  -40.9433 O.2       9 UNK        -0.4960 
     59 C59        19.8124  -32.7829  -42.1997 C.3       10 UNK        -0.0876 
     60 S60        20.4388  -31.6764  -43.5123 S.3       10 UNK        -0.2414 
     61 C61        19.3226  -32.1092  -44.8800 C.3       10 UNK         0.0169 
     62 H62        14.1460  -23.2447  -43.8078 H         1 UNK         0.0903 
     63 H63        14.5568  -23.4796  -42.1082 H         1 UNK         0.0903 
     64 H64        15.6379  -22.5602  -43.1570 H         1 UNK         0.0903 
     65 H65        15.3919  -25.5016  -41.6699 H         1 UNK         0.3096 
     66 H66        16.5266  -27.1692  -43.8084 H         1 UNK         0.1121 
     67 H67        16.4551  -28.9487  -41.8536 H         1 UNK         0.0849 
     68 H68        15.5590  -27.7587  -40.9638 H         1 UNK         0.0849 
     69 H69        14.9692  -30.9038  -42.6987 H         1 UNK         0.0865 
     70 H70        13.9885  -30.6230  -44.1146 H         1 UNK         0.0865 
     71 H71        17.0103  -31.8242  -43.4409 H         1 UNK         0.1346 
     72 H72        19.1821  -30.1366  -46.7149 H         1 UNK         0.1412 
     73 H73        15.3727  -28.5054  -45.6103 H         1 UNK         0.1426 
     74 H74        16.4389  -27.7821  -47.6484 H         1 UNK         0.0716 
     75 H75        17.8530  -28.5882  -48.2668 H         1 UNK         0.0716 
     76 H76        20.5438  -26.7353  -47.9630 H         1 UNK         0.0695 
     77 H77        20.1193  -28.3375  -47.4645 H         1 UNK         0.0695 
     78 H78        21.2330  -26.0727  -45.7499 H         1 UNK         0.0983 
     79 H79        19.5779  -28.1098  -44.7326 H         1 UNK         0.3095 
     80 H80        20.4024  -29.0927  -42.2319 H         1 UNK         0.0454 
     81 H81        21.7008  -27.7703  -40.6752 H         1 UNK         0.0851 
     82 H82        20.0621  -27.8532  -40.0468 H         1 UNK         0.0851 
     83 H83        20.6365  -26.3869  -40.8312 H         1 UNK         0.0851 
     84 H84        18.2645  -28.7687  -42.6113 H         1 UNK         0.2976 
     85 H85        22.0026  -29.3664  -45.0381 H         1 UNK         0.3116 
     86 H86        24.4142  -29.6024  -46.6242 H         1 UNK         0.0646 
     87 H87        23.4426  -31.1588  -44.1648 H         1 UNK         0.0847 
     88 H88        23.1091  -31.5880  -45.8428 H         1 UNK         0.0847 
     89 H89        24.7533  -31.6395  -45.2302 H         1 UNK         0.0847 
     90 H90        23.6847  -27.7416  -43.8768 H         1 UNK         0.3040 
     91 H91        24.7735  -26.4653  -42.4927 H         1 UNK         0.1015 
     92 H92        27.0993  -25.7979  -42.8145 H         1 UNK         0.0786 
     93 H93        26.4002  -26.0093  -44.4058 H         1 UNK         0.0786 
     94 H94        27.4650  -27.2447  -43.7390 H         1 UNK         0.0786 
     95 H95        26.8167  -26.5485  -40.8543 H         1 UNK         0.3172 
     96 H96        27.5530  -27.2958  -38.9099 H         1 UNK         0.0595 
     97 H97        27.7767  -30.0133  -40.3097 H         1 UNK         0.0839 
     98 H98        28.6948  -29.4865  -38.9069 H         1 UNK         0.0839 
     99 H99        28.9464  -28.7022  -40.4552 H         1 UNK         0.0839 
    100 H100       24.5940  -27.6073  -39.4053 H         1 UNK         0.2998 
    101 H101       22.7031  -28.3093  -38.4947 H         1 UNK         0.0822 
    102 H102       22.5744  -28.7698  -36.0847 H         1 UNK         0.0787 
    103 H103       23.6910  -27.4437  -36.3565 H         1 UNK         0.0787 
    104 H104       24.3048  -29.0565  -35.9942 H         1 UNK         0.0787 
    105 H105       24.3072  -30.1998  -40.1075 H         1 UNK         0.3055 
    106 H106       24.1798  -32.8177  -39.0429 H         1 UNK         0.1106 
    107 H107       25.7034  -32.1334  -40.8839 H         1 UNK         0.0828 
    108 H108       24.7120  -33.4911  -41.3931 H         1 UNK         0.0828 
    109 H109       24.3307  -31.8691  -41.9557 H         1 UNK         0.0828 
    110 H110       21.6412  -30.9385  -40.4777 H         1 UNK         0.2931 
    111 H111       19.7267  -33.0691  -40.0922 H         1 UNK         0.0412 
    112 H112       20.1476  -30.5789  -38.7135 H         1 UNK         0.3472 
    113 H113       18.6929  -29.6527  -38.9853 H         1 UNK         0.3472 
    114 H114       20.3323  -33.7363  -42.3030 H         1 UNK         0.0970 
    115 H115       18.7602  -33.0119  -42.3725 H         1 UNK         0.0970 
    116 H116       19.9162  -32.1821  -45.7925 H         1 UNK         0.0612 
    117 H117       18.8913  -33.0996  -44.7284 H         1 UNK         0.0612 
@<TRIPOS>BOND
     1    1    2 1    
     2    1   62 1    
     3    1   63 1    
     4    1   64 1    
     5    2    3 2    
     6    2    4 am   BACKBONE|DICT|INTERRES
     7    4    5 1    
     8    4   65 1    
     9    5    6 1    
    10    5   25 1    
    11    5   66 1    
    12    6    7 1    
    13    6   67 1    
    14    6   68 1    
    15    7    8 1    
    16    8    9 1    
    17    8   69 1    
    18    8   70 1    
    19    9   10 ar   
    20    9   14 ar   
    21   10   11 ar   
    22   10   71 1    
    23   11   12 ar   
    24   11   61 1    
    25   12   13 ar   
    26   12   72 1    
    27   13   14 ar   
    28   13   15 1    
    29   14   73 1    
    30   15   16 1    
    31   15   74 1    
    32   15   75 1    
    33   16   17 1    
    34   17   18 1    
    35   17   76 1    
    36   17   77 1    
    37   18   19 1    
    38   18   27 1    
    39   18   78 1    
    40   19   20 am   BACKBONE|DICT|INTERRES
    41   19   79 1    
    42   20   21 2    
    43   20   22 1    
    44   22   23 1    
    45   22   24 1    
    46   22   80 1    
    47   23   81 1    
    48   23   82 1    
    49   23   83 1    
    50   24   25 am   BACKBONE|DICT|INTERRES
    51   24   84 1    
    52   25   26 2    
    53   27   28 2    
    54   27   29 am   BACKBONE|DICT|INTERRES
    55   29   30 1    
    56   29   85 1    
    57   30   31 1    
    58   30   32 1    
    59   30   86 1    
    60   31   87 1    
    61   31   88 1    
    62   31   89 1    
    63   32   33 2    
    64   32   34 am   BACKBONE|DICT|INTERRES
    65   34   35 1    
    66   34   90 1    
    67   35   36 1    
    68   35   37 1    
    69   35   91 1    
    70   36   92 1    
    71   36   93 1    
    72   36   94 1    
    73   37   38 2    
    74   37   39 am   BACKBONE|DICT|INTERRES
    75   39   40 1    
    76   39   95 1    
    77   40   41 1    
    78   40   42 1    
    79   40   96 1    
    80   41   97 1    
    81   41   98 1    
    82   41   99 1    
    83   42   43 2    
    84   42   44 am   BACKBONE|DICT|INTERRES
    85   44   45 1    
    86   44  100 1    
    87   45   46 1    
    88   45   47 1    
    89   45  101 1    
    90   46  102 1    
    91   46  103 1    
    92   46  104 1    
    93   47   48 2    
    94   47   49 am   BACKBONE|DICT|INTERRES
    95   49   50 1    
    96   49  105 1    
    97   50   51 1    
    98   50   52 1    
    99   50  106 1    
   100   51  107 1    
   101   51  108 1    
   102   51  109 1    
   103   52   53 2    
   104   52   54 am   BACKBONE|DICT|INTERRES
   105   54   55 1    
   106   54  110 1    
   107   55   56 1    
   108   55   59 1    
   109   55  111 1    
   110   56   57 am   BACKBONE|DICT|INTERRES
   111   56   58 2    
   112   57  112 1    
   113   57  113 1    
   114   59   60 1    
   115   59  114 1    
   116   59  115 1    
   117   60   61 1    
   118   61  116 1    
   119   61  117 1    
@<TRIPOS>SUBSTRUCTURE
     1 UNK         1 GROUP             0       ****    0 ROOT    
