@<TRIPOS>MOLECULE
3R8
117   119    1
SMALL
USER_CHARGES


@<TRIPOS>ATOM
      1 CA         13.0835  -26.0854  -48.8410 C.3       0 UNK        -0.2013 
      2 C          14.2275  -26.1657  -47.8402 C.2       0 UNK         0.4866 
      3 O          14.4245  -25.2225  -47.0736 O.2       0 UNK        -0.5176 
      4 N          14.9635  -27.2874  -47.8506 N.am      1 UNK        -0.4884 
      5 CA         16.1359  -27.6114  -47.0203 C.3       1 UNK         0.0853 
      6 C6         15.8803  -27.5103  -45.4884 C.3       10 UNK        -0.0849 
      7 S7         14.5503  -28.5872  -44.8522 S.3       10 UNK        -0.2776 
      8 C8         15.4652  -29.7469  -43.7639 C.3       10 UNK         0.0316 
      9 C9         16.3335  -29.1236  -42.6619 C.ar      10 UNK        -0.0863 
     10 C10        17.2715  -29.9365  -42.0167 C.ar      10 UNK        -0.1009 
     11 C11        18.1236  -29.4163  -41.0367 C.ar      10 UNK        -0.0712 
     12 C12        18.0458  -28.0606  -40.7059 C.ar      10 UNK        -0.0894 
     13 C13        17.1159  -27.2331  -41.3403 C.ar      10 UNK        -0.0745 
     14 C14        16.2429  -27.7763  -42.2867 C.ar      10 UNK        -0.0972 
     15 C15        17.0530  -25.7461  -41.0270 C.3       10 UNK         0.0209 
     16 S16        17.7661  -24.7539  -42.3814 S.3       10 UNK        -0.2568 
     17 C17        19.5572  -24.8557  -42.0419 C.3       10 UNK        -0.0983 
     18 CA         20.2938  -25.9441  -42.8685 C.3       3 UNK         0.0876 
     19 N          20.0886  -25.7839  -44.3149 N.am      3 UNK        -0.4424 
     20 C          20.1919  -26.7656  -45.2183 C.2       2 UNK         0.4918 
     21 O          20.5527  -27.9123  -44.9444 O.2       2 UNK        -0.4875 
     22 CA         19.7471  -26.4527  -46.6490 C.3       2 UNK         0.0481 
     23 CB         20.7991  -26.8764  -47.6881 C.3       2 UNK        -0.1831 
     24 N          18.5255  -27.2234  -46.8243 N.am      2 UNK        -0.4498 
     25 C          17.3940  -26.7889  -47.3874 C.2       1 UNK         0.5027 
     26 O          17.3296  -25.7898  -48.1081 O.2       1 UNK        -0.4969 
     27 C          21.7938  -26.0334  -42.5021 C.2       3 UNK         0.5005 
     28 O          22.2941  -25.2260  -41.7146 O.2       3 UNK        -0.5279 
     29 N          22.4951  -27.0184  -43.0766 N.am      4 UNK        -0.4463 
     30 CA         23.8802  -27.3835  -42.7764 C.3       4 UNK         0.0283 
     31 CB         24.4360  -28.2167  -43.9443 C.3       4 UNK        -0.1875 
     32 C          23.9547  -28.1225  -41.4268 C.2       4 UNK         0.4949 
     33 O          24.1442  -29.3392  -41.3920 O.2       4 UNK        -0.5039 
     34 N          23.7457  -27.3590  -40.3456 N.am      5 UNK        -0.4663 
     35 CA         23.5148  -27.8124  -38.9687 C.3       5 UNK         0.0242 
     36 CB         23.2113  -26.5870  -38.0917 C.3       5 UNK        -0.1982 
     37 C          24.6291  -28.6628  -38.3363 C.2       5 UNK         0.5017 
     38 O          24.3622  -29.3587  -37.3549 O.2       5 UNK        -0.5012 
     39 N          25.8418  -28.6273  -38.9030 N.am      6 UNK        -0.4439 
     40 CA         26.9809  -29.4727  -38.5357 C.3       6 UNK         0.0297 
     41 CB         28.2740  -28.8172  -39.0557 C.3       6 UNK        -0.2006 
     42 C          26.8018  -30.9189  -39.0455 C.2       6 UNK         0.4892 
     43 O          27.6070  -31.3940  -39.8474 O.2       6 UNK        -0.5089 
     44 N          25.7183  -31.5718  -38.6003 N.am      7 UNK        -0.4243 
     45 CA         25.2456  -32.9352  -38.8890 C.3       7 UNK         0.0196 
     46 CB         26.2709  -33.9830  -38.4138 C.3       7 UNK        -0.2007 
     47 C          24.8217  -33.2132  -40.3456 C.2       7 UNK         0.5020 
     48 O          23.9887  -34.0944  -40.5598 O.2       7 UNK        -0.5147 
     49 N          25.3883  -32.4863  -41.3154 N.am      8 UNK        -0.4734 
     50 CA         25.2292  -32.6841  -42.7587 C.3       8 UNK         0.0238 
     51 CB         26.1235  -31.6818  -43.5032 C.3       8 UNK        -0.1912 
     52 C          23.7825  -32.6217  -43.2784 C.2       8 UNK         0.5038 
     53 O          23.4660  -33.3478  -44.2224 O.2       8 UNK        -0.5046 
     54 N          22.9315  -31.7898  -42.6620 N.am      9 UNK        -0.4200 
     55 CA         21.4898  -31.7344  -42.9572 C.3       9 UNK         0.0839 
     56 C          20.6547  -32.9402  -42.4318 C.2       9 UNK         0.5513 
     57 N          21.2082  -33.8505  -41.6384 N.am      9 UNK        -0.7519 
     58 O          19.4785  -33.0589  -42.7656 O.2       9 UNK        -0.4960 
     59 C59        20.8630  -30.3665  -42.5883 C.3       10 UNK        -0.0876 
     60 S60        20.8470  -29.9746  -40.8039 S.3       10 UNK        -0.2414 
     61 C61        19.1230  -30.3238  -40.3320 C.3       10 UNK         0.0169 
     62 H62        13.0087  -26.9850  -49.4517 H         1 UNK         0.0903 
     63 H63        12.1368  -25.9521  -48.3179 H         1 UNK         0.0903 
     64 H64        13.2274  -25.2350  -49.5070 H         1 UNK         0.0903 
     65 H65        14.7305  -27.9991  -48.5294 H         1 UNK         0.3096 
     66 H66        16.3756  -28.6511  -47.2507 H         1 UNK         0.1121 
     67 H67        16.7925  -27.7523  -44.9433 H         1 UNK         0.0849 
     68 H68        15.6467  -26.4839  -45.2014 H         1 UNK         0.0849 
     69 H69        16.0931  -30.3746  -44.3983 H         1 UNK         0.0865 
     70 H70        14.7421  -30.4152  -43.2945 H         1 UNK         0.0865 
     71 H71        17.3470  -30.9822  -42.2853 H         1 UNK         0.1346 
     72 H72        18.7177  -27.6517  -39.9635 H         1 UNK         0.1412 
     73 H73        15.5200  -27.1236  -42.7544 H         1 UNK         0.1426 
     74 H74        17.5558  -25.5176  -40.0862 H         1 UNK         0.0716 
     75 H75        16.0106  -25.4540  -40.8917 H         1 UNK         0.0716 
     76 H76        19.7017  -25.0253  -40.9732 H         1 UNK         0.0695 
     77 H77        19.9847  -23.8728  -42.2486 H         1 UNK         0.0695 
     78 H78        19.8613  -26.9050  -42.5804 H         1 UNK         0.0983 
     79 H79        19.7745  -24.8722  -44.6144 H         1 UNK         0.3095 
     80 H80        19.5496  -25.3827  -46.7453 H         1 UNK         0.0454 
     81 H81        20.4564  -26.6685  -48.7017 H         1 UNK         0.0851 
     82 H82        21.0283  -27.9410  -47.6259 H         1 UNK         0.0851 
     83 H83        21.7322  -26.3314  -47.5413 H         1 UNK         0.0851 
     84 H84        18.4998  -28.0687  -46.2685 H         1 UNK         0.2976 
     85 H85        21.9952  -27.6122  -43.7327 H         1 UNK         0.3116 
     86 H86        24.4776  -26.4726  -42.6992 H         1 UNK         0.0646 
     87 H87        25.4915  -28.4399  -43.7886 H         1 UNK         0.0847 
     88 H88        24.3596  -27.6770  -44.8883 H         1 UNK         0.0847 
     89 H89        23.9084  -29.1647  -44.0586 H         1 UNK         0.0847 
     90 H90        23.5361  -26.3827  -40.5276 H         1 UNK         0.3040 
     91 H91        22.6241  -28.4426  -38.9871 H         1 UNK         0.1015 
     92 H92        22.3425  -26.0408  -38.4602 H         1 UNK         0.0786 
     93 H93        24.0548  -25.8962  -38.0605 H         1 UNK         0.0786 
     94 H94        22.9927  -26.8828  -37.0644 H         1 UNK         0.0786 
     95 H95        25.9453  -28.0607  -39.7321 H         1 UNK         0.3172 
     96 H96        27.0465  -29.5185  -37.4466 H         1 UNK         0.0595 
     97 H97        28.2765  -28.7330  -40.1433 H         1 UNK         0.0839 
     98 H98        29.1496  -29.4031  -38.7724 H         1 UNK         0.0839 
     99 H99        28.4080  -27.8181  -38.6407 H         1 UNK         0.0839 
    100 H100       25.1067  -31.0296  -37.9953 H         1 UNK         0.2998 
    101 H101       24.3448  -33.0613  -38.2861 H         1 UNK         0.0822 
    102 H102       26.5129  -33.8519  -37.3591 H         1 UNK         0.0787 
    103 H103       25.8783  -34.9939  -38.5325 H         1 UNK         0.0787 
    104 H104       27.2005  -33.9290  -38.9813 H         1 UNK         0.0787 
    105 H105       26.0963  -31.8202  -41.0245 H         1 UNK         0.3055 
    106 H106       25.5935  -33.6894  -42.9812 H         1 UNK         0.1106 
    107 H107       25.9974  -31.7626  -44.5839 H         1 UNK         0.0828 
    108 H108       25.8906  -30.6570  -43.2184 H         1 UNK         0.0828 
    109 H109       27.1776  -31.8554  -43.2860 H         1 UNK         0.0828 
    110 H110       23.2743  -31.1845  -41.9235 H         1 UNK         0.2931 
    111 H111       21.4033  -31.8000  -44.0437 H         1 UNK         0.0412 
    112 H112       20.6497  -34.6247  -41.3169 H         1 UNK         0.3472 
    113 H113       22.1816  -33.7849  -41.3598 H         1 UNK         0.3472 
    114 H114       21.4292  -29.5813  -43.0854 H         1 UNK         0.0970 
    115 H115       19.8569  -30.2893  -43.0009 H         1 UNK         0.0970 
    116 H116       18.9016  -31.3736  -40.5282 H         1 UNK         0.0612 
    117 H117       19.0248  -30.1907  -39.2538 H         1 UNK         0.0612 
@<TRIPOS>BOND
     1    1    2 1    
     2    1   62 1    
     3    1   63 1    
     4    1   64 1    
     5    2    3 2    
     6    2    4 am   BACKBONE|DICT|INTERRES
     7    4    5 1    
     8    4   65 1    
     9    5    6 1    
    10    5   25 1    
    11    5   66 1    
    12    6    7 1    
    13    6   67 1    
    14    6   68 1    
    15    7    8 1    
    16    8    9 1    
    17    8   69 1    
    18    8   70 1    
    19    9   10 ar   
    20    9   14 ar   
    21   10   11 ar   
    22   10   71 1    
    23   11   12 ar   
    24   11   61 1    
    25   12   13 ar   
    26   12   72 1    
    27   13   14 ar   
    28   13   15 1    
    29   14   73 1    
    30   15   16 1    
    31   15   74 1    
    32   15   75 1    
    33   16   17 1    
    34   17   18 1    
    35   17   76 1    
    36   17   77 1    
    37   18   19 1    
    38   18   27 1    
    39   18   78 1    
    40   19   20 am   BACKBONE|DICT|INTERRES
    41   19   79 1    
    42   20   21 2    
    43   20   22 1    
    44   22   23 1    
    45   22   24 1    
    46   22   80 1    
    47   23   81 1    
    48   23   82 1    
    49   23   83 1    
    50   24   25 am   BACKBONE|DICT|INTERRES
    51   24   84 1    
    52   25   26 2    
    53   27   28 2    
    54   27   29 am   BACKBONE|DICT|INTERRES
    55   29   30 1    
    56   29   85 1    
    57   30   31 1    
    58   30   32 1    
    59   30   86 1    
    60   31   87 1    
    61   31   88 1    
    62   31   89 1    
    63   32   33 2    
    64   32   34 am   BACKBONE|DICT|INTERRES
    65   34   35 1    
    66   34   90 1    
    67   35   36 1    
    68   35   37 1    
    69   35   91 1    
    70   36   92 1    
    71   36   93 1    
    72   36   94 1    
    73   37   38 2    
    74   37   39 am   BACKBONE|DICT|INTERRES
    75   39   40 1    
    76   39   95 1    
    77   40   41 1    
    78   40   42 1    
    79   40   96 1    
    80   41   97 1    
    81   41   98 1    
    82   41   99 1    
    83   42   43 2    
    84   42   44 am   BACKBONE|DICT|INTERRES
    85   44   45 1    
    86   44  100 1    
    87   45   46 1    
    88   45   47 1    
    89   45  101 1    
    90   46  102 1    
    91   46  103 1    
    92   46  104 1    
    93   47   48 2    
    94   47   49 am   BACKBONE|DICT|INTERRES
    95   49   50 1    
    96   49  105 1    
    97   50   51 1    
    98   50   52 1    
    99   50  106 1    
   100   51  107 1    
   101   51  108 1    
   102   51  109 1    
   103   52   53 2    
   104   52   54 am   BACKBONE|DICT|INTERRES
   105   54   55 1    
   106   54  110 1    
   107   55   56 1    
   108   55   59 1    
   109   55  111 1    
   110   56   57 am   BACKBONE|DICT|INTERRES
   111   56   58 2    
   112   57  112 1    
   113   57  113 1    
   114   59   60 1    
   115   59  114 1    
   116   59  115 1    
   117   60   61 1    
   118   61  116 1    
   119   61  117 1    
@<TRIPOS>SUBSTRUCTURE
     1 UNK         1 GROUP             0       ****    0 ROOT    
