@<TRIPOS>MOLECULE
3R8
117   119    1
SMALL
USER_CHARGES


@<TRIPOS>ATOM
      1 CA         17.3872  -25.0117  -48.6157 C.3       0 UNK        -0.2013 
      2 C          18.7095  -25.5792  -48.1220 C.2       0 UNK         0.4866 
      3 O          19.7659  -25.2002  -48.6278 O.2       0 UNK        -0.5176 
      4 N          18.6600  -26.4857  -47.1369 N.am      1 UNK        -0.4884 
      5 CA         19.8337  -27.1564  -46.5590 C.3       1 UNK         0.0853 
      6 C6         19.4394  -28.3863  -45.7013 C.3       10 UNK        -0.0849 
      7 S7         18.4620  -29.6439  -46.5871 S.3       10 UNK        -0.2776 
      8 C8         16.8889  -29.6298  -45.6545 C.3       10 UNK         0.0316 
      9 C9         17.0570  -29.8897  -44.1577 C.ar      10 UNK        -0.0863 
     10 C10        17.7825  -30.9959  -43.7012 C.ar      10 UNK        -0.1009 
     11 C11        17.9183  -31.2458  -42.3310 C.ar      10 UNK        -0.0712 
     12 C12        17.3157  -30.3798  -41.4158 C.ar      10 UNK        -0.0894 
     13 C13        16.6057  -29.2581  -41.8532 C.ar      10 UNK        -0.0745 
     14 C14        16.4747  -29.0218  -43.2258 C.ar      10 UNK        -0.0972 
     15 C15        15.9872  -28.3050  -40.8369 C.3       10 UNK         0.0209 
     16 S16        17.2230  -27.6323  -39.6729 S.3       10 UNK        -0.2568 
     17 C17        18.1457  -26.4550  -40.7187 C.3       10 UNK        -0.0983 
     18 CA         19.3496  -27.0841  -41.4791 C.3       3 UNK         0.0876 
     19 N          19.7348  -26.2666  -42.6301 N.am      3 UNK        -0.4424 
     20 C          20.3458  -25.0728  -42.6165 C.2       2 UNK         0.4918 
     21 O          20.7253  -24.5125  -41.5877 O.2       2 UNK        -0.4875 
     22 CA         20.5144  -24.3581  -43.9762 C.3       2 UNK         0.0481 
     23 CB         21.9362  -23.7871  -44.1608 C.3       2 UNK        -0.1831 
     24 N          20.0697  -25.1748  -45.1202 N.am      2 UNK        -0.4498 
     25 C          20.6941  -26.2249  -45.6798 C.2       1 UNK         0.5027 
     26 O          21.8631  -26.5325  -45.4611 O.2       1 UNK        -0.4969 
     27 C          20.5741  -27.4631  -40.6155 C.2       3 UNK         0.5005 
     28 O          21.6067  -27.8492  -41.1712 O.2       3 UNK        -0.5279 
     29 N          20.4535  -27.3507  -39.2863 N.am      4 UNK        -0.4463 
     30 CA         21.4608  -27.7183  -38.2850 C.3       4 UNK         0.0283 
     31 CB         20.8635  -27.5213  -36.8825 C.3       4 UNK        -0.1875 
     32 C          22.8087  -26.9812  -38.4018 C.2       4 UNK         0.4949 
     33 O          23.7999  -27.4731  -37.8628 O.2       4 UNK        -0.5039 
     34 N          22.8414  -25.8412  -39.1087 N.am      5 UNK        -0.4663 
     35 CA         24.0730  -25.1188  -39.4410 C.3       5 UNK         0.0242 
     36 CB         23.7226  -23.7199  -39.9724 C.3       5 UNK        -0.1982 
     37 C          24.9537  -25.8751  -40.4533 C.2       5 UNK         0.5017 
     38 O          26.1734  -25.7077  -40.4237 O.2       5 UNK        -0.5012 
     39 N          24.3285  -26.6908  -41.3139 N.am      6 UNK        -0.4439 
     40 CA         25.0019  -27.5729  -42.2675 C.3       6 UNK         0.0297 
     41 CB         24.2972  -27.4830  -43.6282 C.3       6 UNK        -0.2006 
     42 C          25.0068  -29.0278  -41.7775 C.2       6 UNK         0.4892 
     43 O          26.0057  -29.7188  -41.9786 O.2       6 UNK        -0.5089 
     44 N          23.8933  -29.4623  -41.1629 N.am      7 UNK        -0.4243 
     45 CA         23.6078  -30.8253  -40.6966 C.3       7 UNK         0.0196 
     46 CB         24.5366  -31.2196  -39.5293 C.3       7 UNK        -0.2007 
     47 C          23.6107  -31.8449  -41.8532 C.2       7 UNK         0.5020 
     48 O          24.1773  -32.9321  -41.7288 O.2       7 UNK        -0.5147 
     49 N          22.9646  -31.4642  -42.9663 N.am      8 UNK        -0.4734 
     50 CA         22.9225  -32.1951  -44.2419 C.3       8 UNK         0.0238 
     51 CB         22.1379  -31.3557  -45.2645 C.3       8 UNK        -0.1912 
     52 C          22.3387  -33.6193  -44.1683 C.2       8 UNK         0.5038 
     53 O          22.6391  -34.4396  -45.0365 O.2       8 UNK        -0.5046 
     54 N          21.5251  -33.8809  -43.1403 N.am      9 UNK        -0.4200 
     55 CA         20.9417  -35.1911  -42.8218 C.3       9 UNK         0.0839 
     56 C          21.9559  -36.2032  -42.2117 C.2       9 UNK         0.5513 
     57 N          23.1520  -35.7932  -41.8026 N.am      9 UNK        -0.7519 
     58 O          21.6492  -37.3883  -42.1116 O.2       9 UNK        -0.4960 
     59 C59        19.6885  -35.0519  -41.9158 C.3       10 UNK        -0.0876 
     60 S60        18.3932  -33.9890  -42.6429 S.3       10 UNK        -0.2414 
     61 C61        18.7644  -32.4051  -41.8214 C.3       10 UNK         0.0169 
     62 H62        17.2614  -25.2243  -49.6770 H         1 UNK         0.0903 
     63 H63        16.5360  -25.4347  -48.0826 H         1 UNK         0.0903 
     64 H64        17.3689  -23.9306  -48.4806 H         1 UNK         0.0903 
     65 H65        17.7627  -26.7877  -46.7852 H         1 UNK         0.3096 
     66 H66        20.4675  -27.4983  -47.3808 H         1 UNK         0.1121 
     67 H67        20.3337  -28.8879  -45.3264 H         1 UNK         0.0849 
     68 H68        18.8894  -28.0665  -44.8162 H         1 UNK         0.0849 
     69 H69        16.2310  -30.3949  -46.0685 H         1 UNK         0.0865 
     70 H70        16.3902  -28.6751  -45.8275 H         1 UNK         0.0865 
     71 H71        18.2495  -31.6601  -44.4157 H         1 UNK         0.1346 
     72 H72        17.4219  -30.5593  -40.3544 H         1 UNK         0.1412 
     73 H73        15.9169  -28.1606  -43.5682 H         1 UNK         0.1426 
     74 H74        15.2311  -28.8472  -40.2675 H         1 UNK         0.0716 
     75 H75        15.4673  -27.4823  -41.3300 H         1 UNK         0.0716 
     76 H76        18.4674  -25.6093  -40.1080 H         1 UNK         0.0695 
     77 H77        17.4382  -26.0343  -41.4352 H         1 UNK         0.0695 
     78 H78        19.0195  -28.0284  -41.9105 H         1 UNK         0.0983 
     79 H79        19.4909  -26.6444  -43.5300 H         1 UNK         0.3095 
     80 H80        19.8307  -23.5085  -43.9489 H         1 UNK         0.0454 
     81 H81        22.7034  -24.5522  -44.0428 H         1 UNK         0.0851 
     82 H82        22.1420  -23.0160  -43.4176 H         1 UNK         0.0851 
     83 H83        22.0597  -23.3316  -45.1431 H         1 UNK         0.0851 
     84 H84        19.1186  -25.0059  -45.4192 H         1 UNK         0.2976 
     85 H85        19.5567  -27.0467  -38.9301 H         1 UNK         0.3116 
     86 H86        21.6715  -28.7814  -38.4185 H         1 UNK         0.0646 
     87 H87        19.9652  -28.1232  -36.7435 H         1 UNK         0.0847 
     88 H88        20.6026  -26.4784  -36.6983 H         1 UNK         0.0847 
     89 H89        21.5725  -27.8206  -36.1091 H         1 UNK         0.0847 
     90 H90        21.9840  -25.5017  -39.5245 H         1 UNK         0.3040 
     91 H91        24.6547  -25.0003  -38.5239 H         1 UNK         0.1015 
     92 H92        24.6261  -23.1347  -40.1489 H         1 UNK         0.0786 
     93 H93        23.1108  -23.1642  -39.2616 H         1 UNK         0.0786 
     94 H94        23.1807  -23.7696  -40.9171 H         1 UNK         0.0786 
     95 H95        23.3215  -26.7917  -41.2375 H         1 UNK         0.3172 
     96 H96        26.0395  -27.2617  -42.4061 H         1 UNK         0.0595 
     97 H97        23.2485  -27.7750  -43.5594 H         1 UNK         0.0839 
     98 H98        24.7704  -28.1382  -44.3608 H         1 UNK         0.0839 
     99 H99        24.3359  -26.4702  -44.0286 H         1 UNK         0.0839 
    100 H100       23.1073  -28.8168  -41.0999 H         1 UNK         0.2998 
    101 H101       22.5876  -30.8065  -40.3099 H         1 UNK         0.0822 
    102 H102       24.4981  -30.4817  -38.7277 H         1 UNK         0.0787 
    103 H103       24.2409  -32.1788  -39.1027 H         1 UNK         0.0787 
    104 H104       25.5747  -31.3137  -39.8493 H         1 UNK         0.0787 
    105 H105       22.5325  -30.5514  -42.9636 H         1 UNK         0.3055 
    106 H106       23.9523  -32.2939  -44.5921 H         1 UNK         0.1106 
    107 H107       22.1274  -31.8396  -46.2423 H         1 UNK         0.0828 
    108 H108       22.5831  -30.3697  -45.3999 H         1 UNK         0.0828 
    109 H109       21.0990  -31.2202  -44.9603 H         1 UNK         0.0828 
    110 H110       21.3598  -33.1445  -42.4738 H         1 UNK         0.2931 
    111 H111       20.6108  -35.6320  -43.7642 H         1 UNK         0.0412 
    112 H112       23.4257  -34.8187  -41.8705 H         1 UNK         0.3472 
    113 H113       23.7946  -36.4651  -41.4137 H         1 UNK         0.3472 
    114 H114       19.2404  -36.0324  -41.7430 H         1 UNK         0.0970 
    115 H115       19.9641  -34.6741  -40.9294 H         1 UNK         0.0970 
    116 H116       19.8114  -32.1448  -41.9711 H         1 UNK         0.0612 
    117 H117       18.6278  -32.5364  -40.7468 H         1 UNK         0.0612 
@<TRIPOS>BOND
     1    1    2 1    
     2    1   62 1    
     3    1   63 1    
     4    1   64 1    
     5    2    3 2    
     6    2    4 am   BACKBONE|DICT|INTERRES
     7    4    5 1    
     8    4   65 1    
     9    5    6 1    
    10    5   25 1    
    11    5   66 1    
    12    6    7 1    
    13    6   67 1    
    14    6   68 1    
    15    7    8 1    
    16    8    9 1    
    17    8   69 1    
    18    8   70 1    
    19    9   10 ar   
    20    9   14 ar   
    21   10   11 ar   
    22   10   71 1    
    23   11   12 ar   
    24   11   61 1    
    25   12   13 ar   
    26   12   72 1    
    27   13   14 ar   
    28   13   15 1    
    29   14   73 1    
    30   15   16 1    
    31   15   74 1    
    32   15   75 1    
    33   16   17 1    
    34   17   18 1    
    35   17   76 1    
    36   17   77 1    
    37   18   19 1    
    38   18   27 1    
    39   18   78 1    
    40   19   20 am   BACKBONE|DICT|INTERRES
    41   19   79 1    
    42   20   21 2    
    43   20   22 1    
    44   22   23 1    
    45   22   24 1    
    46   22   80 1    
    47   23   81 1    
    48   23   82 1    
    49   23   83 1    
    50   24   25 am   BACKBONE|DICT|INTERRES
    51   24   84 1    
    52   25   26 2    
    53   27   28 2    
    54   27   29 am   BACKBONE|DICT|INTERRES
    55   29   30 1    
    56   29   85 1    
    57   30   31 1    
    58   30   32 1    
    59   30   86 1    
    60   31   87 1    
    61   31   88 1    
    62   31   89 1    
    63   32   33 2    
    64   32   34 am   BACKBONE|DICT|INTERRES
    65   34   35 1    
    66   34   90 1    
    67   35   36 1    
    68   35   37 1    
    69   35   91 1    
    70   36   92 1    
    71   36   93 1    
    72   36   94 1    
    73   37   38 2    
    74   37   39 am   BACKBONE|DICT|INTERRES
    75   39   40 1    
    76   39   95 1    
    77   40   41 1    
    78   40   42 1    
    79   40   96 1    
    80   41   97 1    
    81   41   98 1    
    82   41   99 1    
    83   42   43 2    
    84   42   44 am   BACKBONE|DICT|INTERRES
    85   44   45 1    
    86   44  100 1    
    87   45   46 1    
    88   45   47 1    
    89   45  101 1    
    90   46  102 1    
    91   46  103 1    
    92   46  104 1    
    93   47   48 2    
    94   47   49 am   BACKBONE|DICT|INTERRES
    95   49   50 1    
    96   49  105 1    
    97   50   51 1    
    98   50   52 1    
    99   50  106 1    
   100   51  107 1    
   101   51  108 1    
   102   51  109 1    
   103   52   53 2    
   104   52   54 am   BACKBONE|DICT|INTERRES
   105   54   55 1    
   106   54  110 1    
   107   55   56 1    
   108   55   59 1    
   109   55  111 1    
   110   56   57 am   BACKBONE|DICT|INTERRES
   111   56   58 2    
   112   57  112 1    
   113   57  113 1    
   114   59   60 1    
   115   59  114 1    
   116   59  115 1    
   117   60   61 1    
   118   61  116 1    
   119   61  117 1    
@<TRIPOS>SUBSTRUCTURE
     1 UNK         1 GROUP             0       ****    0 ROOT    
