@<TRIPOS>MOLECULE
3R8
117   119    1
SMALL
USER_CHARGES


@<TRIPOS>ATOM
      1 CA         20.4214  -23.5964  -41.1188 C.3       0 UNK        -0.2013 
      2 C          19.0972  -23.4997  -41.8625 C.2       0 UNK         0.4866 
      3 O          18.1636  -22.8596  -41.3774 O.2       0 UNK        -0.5176 
      4 N          19.0126  -24.1319  -43.0342 N.am      1 UNK        -0.4884 
      5 CA         17.8252  -24.1971  -43.8876 C.3       1 UNK         0.0853 
      6 C6         16.8515  -25.3389  -43.4622 C.3       10 UNK        -0.0849 
      7 S7         17.6734  -26.9631  -43.2907 S.3       10 UNK        -0.2776 
      8 C8         16.6062  -28.0944  -44.2291 C.3       10 UNK         0.0316 
      9 C9         17.2942  -29.4447  -44.3320 C.ar      10 UNK        -0.0863 
     10 C10        17.1116  -30.4072  -43.3362 C.ar      10 UNK        -0.1009 
     11 C11        17.8013  -31.6215  -43.3892 C.ar      10 UNK        -0.0712 
     12 C12        18.6898  -31.8614  -44.4427 C.ar      10 UNK        -0.0894 
     13 C13        18.8942  -30.9019  -45.4408 C.ar      10 UNK        -0.0745 
     14 C14        18.1650  -29.7075  -45.3923 C.ar      10 UNK        -0.0972 
     15 C15        19.9190  -31.1835  -46.5424 C.3       10 UNK         0.0209 
     16 S16        20.7091  -29.7095  -47.2896 S.3       10 UNK        -0.2568 
     17 C17        21.4131  -28.8507  -45.8376 C.3       10 UNK        -0.0983 
     18 CA         21.4046  -27.3007  -45.9614 C.3       3 UNK         0.0876 
     19 N          20.0843  -26.7609  -46.2780 N.am      3 UNK        -0.4424 
     20 C          19.7229  -26.1852  -47.4312 C.2       2 UNK         0.4918 
     21 O          20.4374  -26.1386  -48.4330 O.2       2 UNK        -0.4875 
     22 CA         18.3268  -25.5297  -47.4751 C.3       2 UNK         0.0481 
     23 CB         17.3242  -26.4467  -48.1942 C.3       2 UNK        -0.1831 
     24 N          17.8105  -25.1950  -46.1437 N.am      2 UNK        -0.4498 
     25 C          18.3155  -24.2419  -45.3476 C.2       1 UNK         0.5027 
     26 O          19.1698  -23.4342  -45.7210 O.2       1 UNK        -0.4969 
     27 C          21.8612  -26.6516  -44.6400 C.2       3 UNK         0.5005 
     28 O          21.0637  -25.9987  -43.9549 O.2       3 UNK        -0.5279 
     29 N          23.1304  -26.8702  -44.2751 N.am      4 UNK        -0.4463 
     30 CA         23.6951  -26.5013  -42.9762 C.3       4 UNK         0.0283 
     31 CB         25.2291  -26.4348  -43.0945 C.3       4 UNK        -0.1875 
     32 C          23.2400  -27.5056  -41.9031 C.2       4 UNK         0.4949 
     33 O          23.9973  -28.4102  -41.5518 O.2       4 UNK        -0.5039 
     34 N          21.9885  -27.3678  -41.4486 N.am      5 UNK        -0.4663 
     35 CA         21.3333  -28.2454  -40.4735 C.3       5 UNK         0.0242 
     36 CB         19.9376  -27.6907  -40.1519 C.3       5 UNK        -0.1982 
     37 C          22.1444  -28.4307  -39.1779 C.2       5 UNK         0.5017 
     38 O          22.6704  -27.4509  -38.6465 O.2       5 UNK        -0.5012 
     39 N          22.2225  -29.6867  -38.7215 N.am      6 UNK        -0.4439 
     40 CA         22.9943  -30.2284  -37.5949 C.3       6 UNK         0.0297 
     41 CB         22.9763  -29.3406  -36.3338 C.3       6 UNK        -0.2006 
     42 C          24.4177  -30.6538  -37.9909 C.2       6 UNK         0.4892 
     43 O          24.9532  -31.5612  -37.3529 O.2       6 UNK        -0.5089 
     44 N          24.9861  -30.0619  -39.0525 N.am      7 UNK        -0.4243 
     45 CA         26.1214  -30.6379  -39.7784 C.3       7 UNK         0.0196 
     46 CB         26.9886  -29.5323  -40.4048 C.3       7 UNK        -0.2007 
     47 C          25.5722  -31.6112  -40.8316 C.2       7 UNK         0.5020 
     48 O          25.9482  -32.7834  -40.8392 O.2       7 UNK        -0.5147 
     49 N          24.6260  -31.1253  -41.6455 N.am      8 UNK        -0.4734 
     50 CA         23.7239  -31.9430  -42.4519 C.3       8 UNK         0.0238 
     51 CB         23.1362  -31.0845  -43.5831 C.3       8 UNK        -0.1912 
     52 C          22.5986  -32.4903  -41.5600 C.2       8 UNK         0.5038 
     53 O          22.0821  -31.7479  -40.7208 O.2       8 UNK        -0.5046 
     54 N          22.2550  -33.7671  -41.7677 N.am      9 UNK        -0.4200 
     55 CA         21.2102  -34.5462  -41.0771 C.3       9 UNK         0.0839 
     56 C          21.2974  -34.6397  -39.5210 C.2       9 UNK         0.5513 
     57 N          22.4127  -34.2815  -38.8966 N.am      9 UNK        -0.7519 
     58 O          20.3607  -35.0979  -38.8713 O.2       9 UNK        -0.4960 
     59 C59        19.7800  -34.2887  -41.6374 C.3       10 UNK        -0.0876 
     60 S60        18.9767  -32.7273  -41.1330 S.3       10 UNK        -0.2414 
     61 C61        17.5839  -32.6665  -42.3043 C.3       10 UNK         0.0169 
     62 H62        20.8155  -22.5998  -40.9220 H         1 UNK         0.0903 
     63 H63        20.2801  -24.1027  -40.1644 H         1 UNK         0.0903 
     64 H64        21.1682  -24.1486  -41.6893 H         1 UNK         0.0903 
     65 H65        19.8125  -24.6528  -43.3909 H         1 UNK         0.3096 
     66 H66        17.2849  -23.2515  -43.8022 H         1 UNK         0.1121 
     67 H67        16.4255  -25.0927  -42.4883 H         1 UNK         0.0849 
     68 H68        15.9952  -25.4054  -44.1354 H         1 UNK         0.0849 
     69 H69        15.6418  -28.1914  -43.7277 H         1 UNK         0.0865 
     70 H70        16.4041  -27.6967  -45.2238 H         1 UNK         0.0865 
     71 H71        16.4450  -30.2019  -42.5096 H         1 UNK         0.1346 
     72 H72        19.2361  -32.7935  -44.4758 H         1 UNK         0.1412 
     73 H73        18.3074  -28.9583  -46.1567 H         1 UNK         0.1426 
     74 H74        20.7121  -31.8233  -46.1522 H         1 UNK         0.0716 
     75 H75        19.4275  -31.7501  -47.3341 H         1 UNK         0.0716 
     76 H76        22.4349  -29.2124  -45.7174 H         1 UNK         0.0695 
     77 H77        20.8792  -29.1597  -44.9377 H         1 UNK         0.0695 
     78 H78        22.1185  -27.0032  -46.7326 H         1 UNK         0.0983 
     79 H79        19.4743  -26.6724  -45.4768 H         1 UNK         0.3095 
     80 H80        18.4138  -24.6049  -48.0493 H         1 UNK         0.0454 
     81 H81        16.3474  -25.9722  -48.2884 H         1 UNK         0.0851 
     82 H82        17.1901  -27.3943  -47.6724 H         1 UNK         0.0851 
     83 H83        17.6667  -26.6798  -49.2034 H         1 UNK         0.0851 
     84 H84        17.1063  -25.8081  -45.7627 H         1 UNK         0.2976 
     85 H85        23.7221  -27.4271  -44.8751 H         1 UNK         0.3116 
     86 H86        23.3370  -25.5097  -42.6906 H         1 UNK         0.0646 
     87 H87        25.5392  -25.6761  -43.8130 H         1 UNK         0.0847 
     88 H88        25.6812  -26.1767  -42.1359 H         1 UNK         0.0847 
     89 H89        25.6564  -27.3884  -43.4076 H         1 UNK         0.0847 
     90 H90        21.4175  -26.6445  -41.8669 H         1 UNK         0.3040 
     91 H91        21.2120  -29.2176  -40.9560 H         1 UNK         0.1015 
     92 H92        19.9897  -26.6896  -39.7224 H         1 UNK         0.0786 
     93 H93        19.4179  -28.3287  -39.4357 H         1 UNK         0.0786 
     94 H94        19.3181  -27.6427  -41.0454 H         1 UNK         0.0786 
     95 H95        21.8357  -30.4121  -39.3241 H         1 UNK         0.3172 
     96 H96        22.4731  -31.1512  -37.3346 H         1 UNK         0.0595 
     97 H97        23.5813  -28.4420  -36.4562 H         1 UNK         0.0839 
     98 H98        23.3832  -29.8817  -35.4787 H         1 UNK         0.0839 
     99 H99        21.9629  -29.0359  -36.0729 H         1 UNK         0.0839 
    100 H100       24.4725  -29.3308  -39.5293 H         1 UNK         0.2998 
    101 H101       26.7547  -31.2028  -39.0906 H         1 UNK         0.0822 
    102 H102       27.3592  -28.8448  -39.6444 H         1 UNK         0.0787 
    103 H103       27.8578  -29.9623  -40.9038 H         1 UNK         0.0787 
    104 H104       26.4497  -28.9462  -41.1478 H         1 UNK         0.0787 
    105 H105       24.3788  -30.1393  -41.5660 H         1 UNK         0.3055 
    106 H106       24.2874  -32.7697  -42.8905 H         1 UNK         0.1106 
    107 H107       23.9224  -30.6581  -44.2060 H         1 UNK         0.0828 
    108 H108       22.4921  -31.6796  -44.2316 H         1 UNK         0.0828 
    109 H109       22.5332  -30.2632  -43.1935 H         1 UNK         0.0828 
    110 H110       22.7691  -34.2857  -42.4649 H         1 UNK         0.2931 
    111 H111       21.4447  -35.5675  -41.3800 H         1 UNK         0.0412 
    112 H112       22.4666  -34.3666  -37.8940 H         1 UNK         0.3472 
    113 H113       23.1896  -33.9053  -39.4156 H         1 UNK         0.3472 
    114 H114       19.1212  -35.1061  -41.3387 H         1 UNK         0.0970 
    115 H115       19.8119  -34.3294  -42.7264 H         1 UNK         0.0970 
    116 H116       16.6748  -32.4450  -41.7432 H         1 UNK         0.0612 
    117 H117       17.4224  -33.6444  -42.7602 H         1 UNK         0.0612 
@<TRIPOS>BOND
     1    1    2 1    
     2    1   62 1    
     3    1   63 1    
     4    1   64 1    
     5    2    3 2    
     6    2    4 am   BACKBONE|DICT|INTERRES
     7    4    5 1    
     8    4   65 1    
     9    5    6 1    
    10    5   25 1    
    11    5   66 1    
    12    6    7 1    
    13    6   67 1    
    14    6   68 1    
    15    7    8 1    
    16    8    9 1    
    17    8   69 1    
    18    8   70 1    
    19    9   10 ar   
    20    9   14 ar   
    21   10   11 ar   
    22   10   71 1    
    23   11   12 ar   
    24   11   61 1    
    25   12   13 ar   
    26   12   72 1    
    27   13   14 ar   
    28   13   15 1    
    29   14   73 1    
    30   15   16 1    
    31   15   74 1    
    32   15   75 1    
    33   16   17 1    
    34   17   18 1    
    35   17   76 1    
    36   17   77 1    
    37   18   19 1    
    38   18   27 1    
    39   18   78 1    
    40   19   20 am   BACKBONE|DICT|INTERRES
    41   19   79 1    
    42   20   21 2    
    43   20   22 1    
    44   22   23 1    
    45   22   24 1    
    46   22   80 1    
    47   23   81 1    
    48   23   82 1    
    49   23   83 1    
    50   24   25 am   BACKBONE|DICT|INTERRES
    51   24   84 1    
    52   25   26 2    
    53   27   28 2    
    54   27   29 am   BACKBONE|DICT|INTERRES
    55   29   30 1    
    56   29   85 1    
    57   30   31 1    
    58   30   32 1    
    59   30   86 1    
    60   31   87 1    
    61   31   88 1    
    62   31   89 1    
    63   32   33 2    
    64   32   34 am   BACKBONE|DICT|INTERRES
    65   34   35 1    
    66   34   90 1    
    67   35   36 1    
    68   35   37 1    
    69   35   91 1    
    70   36   92 1    
    71   36   93 1    
    72   36   94 1    
    73   37   38 2    
    74   37   39 am   BACKBONE|DICT|INTERRES
    75   39   40 1    
    76   39   95 1    
    77   40   41 1    
    78   40   42 1    
    79   40   96 1    
    80   41   97 1    
    81   41   98 1    
    82   41   99 1    
    83   42   43 2    
    84   42   44 am   BACKBONE|DICT|INTERRES
    85   44   45 1    
    86   44  100 1    
    87   45   46 1    
    88   45   47 1    
    89   45  101 1    
    90   46  102 1    
    91   46  103 1    
    92   46  104 1    
    93   47   48 2    
    94   47   49 am   BACKBONE|DICT|INTERRES
    95   49   50 1    
    96   49  105 1    
    97   50   51 1    
    98   50   52 1    
    99   50  106 1    
   100   51  107 1    
   101   51  108 1    
   102   51  109 1    
   103   52   53 2    
   104   52   54 am   BACKBONE|DICT|INTERRES
   105   54   55 1    
   106   54  110 1    
   107   55   56 1    
   108   55   59 1    
   109   55  111 1    
   110   56   57 am   BACKBONE|DICT|INTERRES
   111   56   58 2    
   112   57  112 1    
   113   57  113 1    
   114   59   60 1    
   115   59  114 1    
   116   59  115 1    
   117   60   61 1    
   118   61  116 1    
   119   61  117 1    
@<TRIPOS>SUBSTRUCTURE
     1 UNK         1 GROUP             0       ****    0 ROOT    
