@<TRIPOS>MOLECULE
3R8
117   119    1
SMALL
USER_CHARGES


@<TRIPOS>ATOM
      1 CA         14.8902  -23.4637  -41.9391 C.3       0 UNK        -0.2013 
      2 C          15.8807  -23.6140  -43.0841 C.2       0 UNK         0.4866 
      3 O          16.3663  -22.6121  -43.6106 O.2       0 UNK        -0.5176 
      4 N          16.1775  -24.8573  -43.4802 N.am      1 UNK        -0.4884 
      5 CA         17.1639  -25.2037  -44.5065 C.3       1 UNK         0.0853 
      6 C6         16.9846  -26.6599  -45.0250 C.3       10 UNK        -0.0849 
      7 S7         16.7445  -27.9133  -43.7117 S.3       10 UNK        -0.2776 
      8 C8         16.1524  -29.3556  -44.6546 C.3       10 UNK         0.0316 
      9 C9         17.2730  -30.3514  -44.9199 C.ar      10 UNK        -0.0863 
     10 C10        17.4094  -31.4903  -44.1185 C.ar      10 UNK        -0.1009 
     11 C11        18.4222  -32.4204  -44.3742 C.ar      10 UNK        -0.0712 
     12 C12        19.3225  -32.1873  -45.4178 C.ar      10 UNK        -0.0894 
     13 C13        19.2048  -31.0480  -46.2178 C.ar      10 UNK        -0.0745 
     14 C14        18.1620  -30.1465  -45.9787 C.ar      10 UNK        -0.0972 
     15 C15        20.1979  -30.8074  -47.3471 C.3       10 UNK         0.0209 
     16 S16        21.7267  -30.0081  -46.7561 S.3       10 UNK        -0.2568 
     17 C17        21.1374  -28.3042  -46.4766 C.3       10 UNK        -0.0983 
     18 CA         21.9095  -27.4788  -45.4194 C.3       3 UNK         0.0876 
     19 N          21.3067  -26.1480  -45.3187 N.am      3 UNK        -0.4424 
     20 C          21.7121  -25.1400  -44.5366 C.2       2 UNK         0.4918 
     21 O          22.7205  -25.1802  -43.8346 O.2       2 UNK        -0.4875 
     22 CA         20.8038  -23.8976  -44.4999 C.3       2 UNK         0.0481 
     23 CB         21.3139  -22.8315  -45.4815 C.3       2 UNK        -0.1831 
     24 N          19.3952  -24.2024  -44.7915 N.am      2 UNK        -0.4498 
     25 C          18.5976  -24.9372  -44.0001 C.2       1 UNK         0.5027 
     26 O          18.9665  -25.4219  -42.9284 O.2       1 UNK        -0.4969 
     27 C          22.0044  -28.1800  -44.0437 C.2       3 UNK         0.5005 
     28 O          23.0477  -28.7536  -43.7288 O.2       3 UNK        -0.5279 
     29 N          20.9623  -28.0479  -43.2085 N.am      4 UNK        -0.4463 
     30 CA         20.9084  -28.6072  -41.8542 C.3       4 UNK         0.0283 
     31 CB         19.4580  -28.5882  -41.3474 C.3       4 UNK        -0.1875 
     32 C          21.8616  -27.9416  -40.8414 C.2       4 UNK         0.4949 
     33 O          22.0289  -28.4809  -39.7493 O.2       4 UNK        -0.5039 
     34 N          22.4843  -26.8070  -41.1962 N.am      5 UNK        -0.4663 
     35 CA         23.5698  -26.2098  -40.4121 C.3       5 UNK         0.0242 
     36 CB         23.6377  -24.6980  -40.6832 C.3       5 UNK        -0.1982 
     37 C          24.9282  -26.8758  -40.7029 C.2       5 UNK         0.5017 
     38 O          25.8202  -26.7971  -39.8573 O.2       5 UNK        -0.5012 
     39 N          25.0689  -27.5040  -41.8797 N.am      6 UNK        -0.4439 
     40 CA         26.2659  -28.2328  -42.3017 C.3       6 UNK         0.0297 
     41 CB         26.5213  -27.9753  -43.7964 C.3       6 UNK        -0.2006 
     42 C          26.1234  -29.7372  -42.0257 C.2       6 UNK         0.4892 
     43 O          27.0664  -30.3520  -41.5252 O.2       6 UNK        -0.5089 
     44 N          24.9544  -30.3008  -42.3582 N.am      7 UNK        -0.4243 
     45 CA         24.5883  -31.6956  -42.1130 C.3       7 UNK         0.0196 
     46 CB         23.3961  -32.0516  -43.0207 C.3       7 UNK        -0.2007 
     47 C          24.2468  -31.9553  -40.6343 C.2       7 UNK         0.5020 
     48 O          24.0818  -31.0191  -39.8518 O.2       7 UNK        -0.5147 
     49 N          24.1021  -33.2395  -40.2843 N.am      8 UNK        -0.4734 
     50 CA         23.6830  -33.7006  -38.9526 C.3       8 UNK         0.0238 
     51 CB         24.1574  -35.1524  -38.7637 C.3       8 UNK        -0.1912 
     52 C          22.1631  -33.5866  -38.7023 C.2       8 UNK         0.5038 
     53 O          21.7125  -33.9085  -37.6018 O.2       8 UNK        -0.5046 
     54 N          21.4076  -33.1748  -39.7279 N.am      9 UNK        -0.4200 
     55 CA         19.9471  -33.0123  -39.7542 C.3       9 UNK         0.0839 
     56 C          19.3979  -32.0648  -38.6525 C.2       9 UNK         0.5513 
     57 N          18.2201  -32.3578  -38.1182 N.am      9 UNK        -0.7519 
     58 O          20.0002  -31.0492  -38.3150 O.2       9 UNK        -0.4960 
     59 C59        19.4779  -32.5396  -41.1544 C.3       10 UNK        -0.0876 
     60 S60        19.9938  -33.6892  -42.4745 S.3       10 UNK        -0.2414 
     61 C61        18.5304  -33.6967  -43.5524 C.3       10 UNK         0.0169 
     62 H62        14.0255  -22.8857  -42.2641 H         1 UNK         0.0903 
     63 H63        14.5364  -24.4289  -41.5771 H         1 UNK         0.0903 
     64 H64        15.3573  -22.9396  -41.1057 H         1 UNK         0.0903 
     65 H65        15.7824  -25.6503  -42.9930 H         1 UNK         0.3096 
     66 H66        16.9874  -24.5385  -45.3552 H         1 UNK         0.1121 
     67 H67        17.8222  -26.9594  -45.6573 H         1 UNK         0.0849 
     68 H68        16.1064  -26.6878  -45.6721 H         1 UNK         0.0849 
     69 H69        15.3544  -29.8356  -44.0860 H         1 UNK         0.0865 
     70 H70        15.6985  -29.0409  -45.5953 H         1 UNK         0.0865 
     71 H71        16.7160  -31.6619  -43.3065 H         1 UNK         0.1346 
     72 H72        20.1165  -32.8970  -45.6074 H         1 UNK         0.1412 
     73 H73        18.0461  -29.2764  -46.6096 H         1 UNK         0.1426 
     74 H74        20.4581  -31.7592  -47.8126 H         1 UNK         0.0716 
     75 H75        19.7477  -30.1993  -48.1334 H         1 UNK         0.0716 
     76 H76        21.1736  -27.7908  -47.4389 H         1 UNK         0.0695 
     77 H77        20.0865  -28.3324  -46.1972 H         1 UNK         0.0695 
     78 H78        22.9330  -27.3430  -45.7755 H         1 UNK         0.0983 
     79 H79        20.4784  -25.9960  -45.8734 H         1 UNK         0.3095 
     80 H80        20.8563  -23.4835  -43.4907 H         1 UNK         0.0454 
     81 H81        21.2713  -23.1766  -46.5153 H         1 UNK         0.0851 
     82 H82        20.7313  -21.9130  -45.4087 H         1 UNK         0.0851 
     83 H83        22.3517  -22.5709  -45.2683 H         1 UNK         0.0851 
     84 H84        19.0178  -23.8147  -45.6451 H         1 UNK         0.2976 
     85 H85        20.1624  -27.5022  -43.4999 H         1 UNK         0.3116 
     86 H86        21.2194  -29.6508  -41.9212 H         1 UNK         0.0646 
     87 H87        19.0561  -27.5757  -41.3057 H         1 UNK         0.0847 
     88 H88        18.8099  -29.1849  -41.9891 H         1 UNK         0.0847 
     89 H89        19.3872  -29.0085  -40.3431 H         1 UNK         0.0847 
     90 H90        22.2979  -26.3969  -42.1038 H         1 UNK         0.3040 
     91 H91        23.3584  -26.3460  -39.3488 H         1 UNK         0.1015 
     92 H92        23.9723  -24.4797  -41.6972 H         1 UNK         0.0786 
     93 H93        24.3425  -24.2167  -40.0040 H         1 UNK         0.0786 
     94 H94        22.6685  -24.2209  -40.5365 H         1 UNK         0.0786 
     95 H95        24.2640  -27.5686  -42.4920 H         1 UNK         0.3172 
     96 H96        27.1357  -27.8705  -41.7495 H         1 UNK         0.0595 
     97 H97        27.4166  -28.4992  -44.1339 H         1 UNK         0.0839 
     98 H98        26.6733  -26.9141  -43.9940 H         1 UNK         0.0839 
     99 H99        25.6917  -28.3148  -44.4179 H         1 UNK         0.0839 
    100 H100       24.2373  -29.7195  -42.7885 H         1 UNK         0.2998 
    101 H101       25.4375  -32.3269  -42.3836 H         1 UNK         0.0822 
    102 H102       23.1401  -33.1092  -42.9502 H         1 UNK         0.0787 
    103 H103       22.5040  -31.4813  -42.7601 H         1 UNK         0.0787 
    104 H104       23.6205  -31.8470  -44.0680 H         1 UNK         0.0787 
    105 H105       24.2520  -33.9555  -40.9819 H         1 UNK         0.3055 
    106 H106       24.1736  -33.0812  -38.1980 H         1 UNK         0.1106 
    107 H107       25.2382  -35.2358  -38.8797 H         1 UNK         0.0828 
    108 H108       23.9140  -35.5182  -37.7652 H         1 UNK         0.0828 
    109 H109       23.6879  -35.8274  -39.4803 H         1 UNK         0.0828 
    110 H110       21.8818  -32.9415  -40.5858 H         1 UNK         0.2931 
    111 H111       19.5282  -34.0045  -39.5744 H         1 UNK         0.0412 
    112 H112       17.7118  -33.1841  -38.3938 H         1 UNK         0.3472 
    113 H113       17.8372  -31.7472  -37.4131 H         1 UNK         0.3472 
    114 H114       18.3912  -32.4375  -41.1731 H         1 UNK         0.0970 
    115 H115       19.8779  -31.5516  -41.3846 H         1 UNK         0.0970 
    116 H116       18.6037  -34.5482  -44.2303 H         1 UNK         0.0612 
    117 H117       17.6320  -33.8613  -42.9555 H         1 UNK         0.0612 
@<TRIPOS>BOND
     1    1    2 1    
     2    1   62 1    
     3    1   63 1    
     4    1   64 1    
     5    2    3 2    
     6    2    4 am   BACKBONE|DICT|INTERRES
     7    4    5 1    
     8    4   65 1    
     9    5    6 1    
    10    5   25 1    
    11    5   66 1    
    12    6    7 1    
    13    6   67 1    
    14    6   68 1    
    15    7    8 1    
    16    8    9 1    
    17    8   69 1    
    18    8   70 1    
    19    9   10 ar   
    20    9   14 ar   
    21   10   11 ar   
    22   10   71 1    
    23   11   12 ar   
    24   11   61 1    
    25   12   13 ar   
    26   12   72 1    
    27   13   14 ar   
    28   13   15 1    
    29   14   73 1    
    30   15   16 1    
    31   15   74 1    
    32   15   75 1    
    33   16   17 1    
    34   17   18 1    
    35   17   76 1    
    36   17   77 1    
    37   18   19 1    
    38   18   27 1    
    39   18   78 1    
    40   19   20 am   BACKBONE|DICT|INTERRES
    41   19   79 1    
    42   20   21 2    
    43   20   22 1    
    44   22   23 1    
    45   22   24 1    
    46   22   80 1    
    47   23   81 1    
    48   23   82 1    
    49   23   83 1    
    50   24   25 am   BACKBONE|DICT|INTERRES
    51   24   84 1    
    52   25   26 2    
    53   27   28 2    
    54   27   29 am   BACKBONE|DICT|INTERRES
    55   29   30 1    
    56   29   85 1    
    57   30   31 1    
    58   30   32 1    
    59   30   86 1    
    60   31   87 1    
    61   31   88 1    
    62   31   89 1    
    63   32   33 2    
    64   32   34 am   BACKBONE|DICT|INTERRES
    65   34   35 1    
    66   34   90 1    
    67   35   36 1    
    68   35   37 1    
    69   35   91 1    
    70   36   92 1    
    71   36   93 1    
    72   36   94 1    
    73   37   38 2    
    74   37   39 am   BACKBONE|DICT|INTERRES
    75   39   40 1    
    76   39   95 1    
    77   40   41 1    
    78   40   42 1    
    79   40   96 1    
    80   41   97 1    
    81   41   98 1    
    82   41   99 1    
    83   42   43 2    
    84   42   44 am   BACKBONE|DICT|INTERRES
    85   44   45 1    
    86   44  100 1    
    87   45   46 1    
    88   45   47 1    
    89   45  101 1    
    90   46  102 1    
    91   46  103 1    
    92   46  104 1    
    93   47   48 2    
    94   47   49 am   BACKBONE|DICT|INTERRES
    95   49   50 1    
    96   49  105 1    
    97   50   51 1    
    98   50   52 1    
    99   50  106 1    
   100   51  107 1    
   101   51  108 1    
   102   51  109 1    
   103   52   53 2    
   104   52   54 am   BACKBONE|DICT|INTERRES
   105   54   55 1    
   106   54  110 1    
   107   55   56 1    
   108   55   59 1    
   109   55  111 1    
   110   56   57 am   BACKBONE|DICT|INTERRES
   111   56   58 2    
   112   57  112 1    
   113   57  113 1    
   114   59   60 1    
   115   59  114 1    
   116   59  115 1    
   117   60   61 1    
   118   61  116 1    
   119   61  117 1    
@<TRIPOS>SUBSTRUCTURE
     1 UNK         1 GROUP             0       ****    0 ROOT    
