@<TRIPOS>MOLECULE
3R8
117   119    1
SMALL
USER_CHARGES


@<TRIPOS>ATOM
      1 CA         15.3482  -24.6345  -42.5160 C.3       0 UNK        -0.2013 
      2 C          16.3928  -24.5520  -43.6193 C.2       0 UNK         0.4866 
      3 O          17.1703  -23.5987  -43.6521 O.2       0 UNK        -0.5176 
      4 N          16.3939  -25.5347  -44.5286 N.am      1 UNK        -0.4884 
      5 CA         17.3473  -25.7021  -45.6286 C.3       1 UNK         0.0853 
      6 C6         16.7530  -26.5018  -46.8341 C.3       10 UNK        -0.0849 
      7 S7         15.4761  -27.7621  -46.4544 S.3       10 UNK        -0.2776 
      8 C8         16.3932  -29.3433  -46.3429 C.3       10 UNK         0.0316 
      9 C9         16.7840  -29.7879  -44.9280 C.ar      10 UNK        -0.0863 
     10 C10        17.4978  -30.9835  -44.7745 C.ar      10 UNK        -0.1009 
     11 C11        17.8610  -31.4474  -43.5049 C.ar      10 UNK        -0.0712 
     12 C12        17.4925  -30.7108  -42.3765 C.ar      10 UNK        -0.0894 
     13 C13        16.7862  -29.5136  -42.5081 C.ar      10 UNK        -0.0745 
     14 C14        16.4294  -29.0655  -43.7798 C.ar      10 UNK        -0.0972 
     15 C15        16.3889  -28.7050  -41.2815 C.3       10 UNK         0.0209 
     16 S16        17.5288  -27.3144  -40.9897 S.3       10 UNK        -0.2568 
     17 C17        19.0367  -28.1975  -40.4595 C.3       10 UNK        -0.0983 
     18 CA         20.2678  -27.9706  -41.3730 C.3       3 UNK         0.0876 
     19 N          19.9632  -28.0941  -42.8056 N.am      3 UNK        -0.4424 
     20 C          20.8794  -28.1483  -43.7829 C.2       2 UNK         0.4918 
     21 O          22.0893  -28.1981  -43.5723 O.2       2 UNK        -0.4875 
     22 CA         20.3950  -28.0407  -45.2386 C.3       2 UNK         0.0481 
     23 CB         20.4908  -29.3918  -45.9553 C.3       2 UNK        -0.1831 
     24 N          19.0511  -27.4779  -45.4071 N.am      2 UNK        -0.4498 
     25 C          18.7163  -26.2119  -45.1228 C.2       1 UNK         0.5027 
     26 O          19.4712  -25.4453  -44.5222 O.2       1 UNK        -0.4969 
     27 C          21.0348  -26.6795  -40.9997 C.2       3 UNK         0.5005 
     28 O          21.6236  -26.6300  -39.9184 O.2       3 UNK        -0.5279 
     29 N          21.0984  -25.6888  -41.9054 N.am      4 UNK        -0.4463 
     30 CA         22.0223  -24.5512  -41.8296 C.3       4 UNK         0.0283 
     31 CB         21.7164  -23.5723  -42.9733 C.3       4 UNK        -0.1875 
     32 C          23.5111  -24.9627  -41.8578 C.2       4 UNK         0.4949 
     33 O          24.3454  -24.2183  -41.3441 O.2       4 UNK        -0.5039 
     34 N          23.8162  -26.1453  -42.4141 N.am      5 UNK        -0.4663 
     35 CA         25.1348  -26.7853  -42.3956 C.3       5 UNK         0.0242 
     36 CB         25.4058  -27.4034  -43.7802 C.3       5 UNK        -0.1982 
     37 C          25.2490  -27.8357  -41.2691 C.2       5 UNK         0.5017 
     38 O          26.0959  -28.7256  -41.3628 O.2       5 UNK        -0.5012 
     39 N          24.4090  -27.7090  -40.2290 N.am      6 UNK        -0.4439 
     40 CA         24.2450  -28.5940  -39.0698 C.3       6 UNK         0.0297 
     41 CB         25.5829  -28.8316  -38.3328 C.3       6 UNK        -0.2006 
     42 C          23.5136  -29.9029  -39.4221 C.2       6 UNK         0.4892 
     43 O          23.0976  -30.1049  -40.5647 O.2       6 UNK        -0.5089 
     44 N          23.3539  -30.7710  -38.4127 N.am      7 UNK        -0.4243 
     45 CA         22.5980  -32.0313  -38.4578 C.3       7 UNK         0.0196 
     46 CB         22.5522  -32.6301  -37.0418 C.3       7 UNK        -0.2007 
     47 C          23.1024  -33.0794  -39.4702 C.2       7 UNK         0.5020 
     48 O          22.3909  -34.0493  -39.7320 O.2       7 UNK        -0.5147 
     49 N          24.3023  -32.8744  -40.0289 N.am      8 UNK        -0.4734 
     50 CA         24.8438  -33.6468  -41.1485 C.3       8 UNK         0.0238 
     51 CB         26.3357  -33.3127  -41.3108 C.3       8 UNK        -0.1912 
     52 C          24.0931  -33.4070  -42.4738 C.2       8 UNK         0.5038 
     53 O          24.1365  -34.2811  -43.3410 O.2       8 UNK        -0.5046 
     54 N          23.4270  -32.2491  -42.6063 N.am      9 UNK        -0.4200 
     55 CA         22.6762  -31.8094  -43.7925 C.3       9 UNK         0.0839 
     56 C          23.5886  -31.6779  -45.0515 C.2       9 UNK         0.5513 
     57 N          23.1157  -32.0115  -46.2466 N.am      9 UNK        -0.7519 
     58 O          24.7262  -31.2218  -44.9587 O.2       9 UNK        -0.4960 
     59 C59        21.3616  -32.6186  -44.0129 C.3       10 UNK        -0.0876 
     60 S60        20.2461  -32.5509  -42.5693 S.3       10 UNK        -0.2414 
     61 C61        18.6035  -32.7672  -43.3333 C.3       10 UNK         0.0169 
     62 H62        15.8329  -24.6042  -41.5403 H         1 UNK         0.0903 
     63 H63        14.6624  -23.7905  -42.5829 H         1 UNK         0.0903 
     64 H64        14.7653  -25.5536  -42.5727 H         1 UNK         0.0903 
     65 H65        15.6902  -26.2568  -44.4759 H         1 UNK         0.3096 
     66 H66        17.5663  -24.7020  -46.0113 H         1 UNK         0.1121 
     67 H67        16.2459  -25.7821  -47.4790 H         1 UNK         0.0849 
     68 H68        17.5242  -26.9241  -47.4809 H         1 UNK         0.0849 
     69 H69        17.2752  -29.3082  -46.9835 H         1 UNK         0.0865 
     70 H70        15.7518  -30.1181  -46.7656 H         1 UNK         0.0865 
     71 H71        17.7645  -31.5618  -45.6489 H         1 UNK         0.1346 
     72 H72        17.7581  -31.0771  -41.3946 H         1 UNK         0.1412 
     73 H73        15.8608  -28.1527  -43.8504 H         1 UNK         0.1426 
     74 H74        16.3500  -29.3393  -40.3945 H         1 UNK         0.0716 
     75 H75        15.3807  -28.3101  -41.4150 H         1 UNK         0.0716 
     76 H76        18.8314  -29.2656  -40.4083 H         1 UNK         0.0695 
     77 H77        19.2531  -27.9146  -39.4273 H         1 UNK         0.0695 
     78 H78        20.9662  -28.7794  -41.1522 H         1 UNK         0.0983 
     79 H79        18.9843  -28.0538  -43.0525 H         1 UNK         0.3095 
     80 H80        21.0829  -27.3597  -45.7445 H         1 UNK         0.0454 
     81 H81        20.1288  -29.3342  -46.9817 H         1 UNK         0.0851 
     82 H82        19.9270  -30.1617  -45.4354 H         1 UNK         0.0851 
     83 H83        21.5280  -29.7214  -46.0010 H         1 UNK         0.0851 
     84 H84        18.3595  -28.0718  -45.8398 H         1 UNK         0.2976 
     85 H85        20.5564  -25.7724  -42.7600 H         1 UNK         0.3116 
     86 H86        21.8404  -24.0395  -40.8823 H         1 UNK         0.0646 
     87 H87        22.3561  -22.6906  -42.9156 H         1 UNK         0.0847 
     88 H88        20.6829  -23.2266  -42.9354 H         1 UNK         0.0847 
     89 H89        21.8789  -24.0307  -43.9497 H         1 UNK         0.0847 
     90 H90        23.0689  -26.7166  -42.8010 H         1 UNK         0.3040 
     91 H91        25.9064  -26.0359  -42.2070 H         1 UNK         0.1015 
     92 H92        25.2869  -26.6675  -44.5755 H         1 UNK         0.0786 
     93 H93        24.7331  -28.2364  -43.9889 H         1 UNK         0.0786 
     94 H94        26.4246  -27.7871  -43.8459 H         1 UNK         0.0786 
     95 H95        23.7031  -26.9846  -40.2934 H         1 UNK         0.3172 
     96 H96        23.5865  -28.0525  -38.3891 H         1 UNK         0.0595 
     97 H97        26.2356  -29.5138  -38.8784 H         1 UNK         0.0839 
     98 H98        25.4230  -29.2610  -37.3436 H         1 UNK         0.0839 
     99 H99        26.1255  -27.8976  -38.1865 H         1 UNK         0.0839 
    100 H100       23.7367  -30.5226  -37.5118 H         1 UNK         0.2998 
    101 H101       21.5774  -31.7821  -38.7561 H         1 UNK         0.0822 
    102 H102       23.5501  -32.8759  -36.6765 H         1 UNK         0.0787 
    103 H103       22.0929  -31.9414  -36.3324 H         1 UNK         0.0787 
    104 H104       21.9634  -33.5485  -37.0226 H         1 UNK         0.0787 
    105 H105       24.8163  -32.0509  -39.7518 H         1 UNK         0.3055 
    106 H106       24.7497  -34.7083  -40.9085 H         1 UNK         0.1106 
    107 H107       26.7785  -33.8918  -42.1224 H         1 UNK         0.0828 
    108 H108       26.4899  -32.2576  -41.5424 H         1 UNK         0.0828 
    109 H109       26.8968  -33.5452  -40.4056 H         1 UNK         0.0828 
    110 H110       23.4432  -31.5831  -41.8399 H         1 UNK         0.2931 
    111 H111       22.3795  -30.7873  -43.5645 H         1 UNK         0.0412 
    112 H112       22.1936  -32.3983  -46.3619 H         1 UNK         0.3472 
    113 H113       23.7148  -31.9046  -47.0504 H         1 UNK         0.3472 
    114 H114       20.8156  -32.2340  -44.8736 H         1 UNK         0.0970 
    115 H115       21.5848  -33.6640  -44.2320 H         1 UNK         0.0970 
    116 H116       18.6991  -33.2945  -44.2836 H         1 UNK         0.0612 
    117 H117       18.0093  -33.4158  -42.6882 H         1 UNK         0.0612 
@<TRIPOS>BOND
     1    1    2 1    
     2    1   62 1    
     3    1   63 1    
     4    1   64 1    
     5    2    3 2    
     6    2    4 am   BACKBONE|DICT|INTERRES
     7    4    5 1    
     8    4   65 1    
     9    5    6 1    
    10    5   25 1    
    11    5   66 1    
    12    6    7 1    
    13    6   67 1    
    14    6   68 1    
    15    7    8 1    
    16    8    9 1    
    17    8   69 1    
    18    8   70 1    
    19    9   10 ar   
    20    9   14 ar   
    21   10   11 ar   
    22   10   71 1    
    23   11   12 ar   
    24   11   61 1    
    25   12   13 ar   
    26   12   72 1    
    27   13   14 ar   
    28   13   15 1    
    29   14   73 1    
    30   15   16 1    
    31   15   74 1    
    32   15   75 1    
    33   16   17 1    
    34   17   18 1    
    35   17   76 1    
    36   17   77 1    
    37   18   19 1    
    38   18   27 1    
    39   18   78 1    
    40   19   20 am   BACKBONE|DICT|INTERRES
    41   19   79 1    
    42   20   21 2    
    43   20   22 1    
    44   22   23 1    
    45   22   24 1    
    46   22   80 1    
    47   23   81 1    
    48   23   82 1    
    49   23   83 1    
    50   24   25 am   BACKBONE|DICT|INTERRES
    51   24   84 1    
    52   25   26 2    
    53   27   28 2    
    54   27   29 am   BACKBONE|DICT|INTERRES
    55   29   30 1    
    56   29   85 1    
    57   30   31 1    
    58   30   32 1    
    59   30   86 1    
    60   31   87 1    
    61   31   88 1    
    62   31   89 1    
    63   32   33 2    
    64   32   34 am   BACKBONE|DICT|INTERRES
    65   34   35 1    
    66   34   90 1    
    67   35   36 1    
    68   35   37 1    
    69   35   91 1    
    70   36   92 1    
    71   36   93 1    
    72   36   94 1    
    73   37   38 2    
    74   37   39 am   BACKBONE|DICT|INTERRES
    75   39   40 1    
    76   39   95 1    
    77   40   41 1    
    78   40   42 1    
    79   40   96 1    
    80   41   97 1    
    81   41   98 1    
    82   41   99 1    
    83   42   43 2    
    84   42   44 am   BACKBONE|DICT|INTERRES
    85   44   45 1    
    86   44  100 1    
    87   45   46 1    
    88   45   47 1    
    89   45  101 1    
    90   46  102 1    
    91   46  103 1    
    92   46  104 1    
    93   47   48 2    
    94   47   49 am   BACKBONE|DICT|INTERRES
    95   49   50 1    
    96   49  105 1    
    97   50   51 1    
    98   50   52 1    
    99   50  106 1    
   100   51  107 1    
   101   51  108 1    
   102   51  109 1    
   103   52   53 2    
   104   52   54 am   BACKBONE|DICT|INTERRES
   105   54   55 1    
   106   54  110 1    
   107   55   56 1    
   108   55   59 1    
   109   55  111 1    
   110   56   57 am   BACKBONE|DICT|INTERRES
   111   56   58 2    
   112   57  112 1    
   113   57  113 1    
   114   59   60 1    
   115   59  114 1    
   116   59  115 1    
   117   60   61 1    
   118   61  116 1    
   119   61  117 1    
@<TRIPOS>SUBSTRUCTURE
     1 UNK         1 GROUP             0       ****    0 ROOT    
