@<TRIPOS>MOLECULE
3R8
117   119    1
SMALL
USER_CHARGES


@<TRIPOS>ATOM
      1 CA         15.1898  -23.7434  -41.5660 C.3       0 UNK        -0.2013 
      2 C          15.3112  -24.4024  -42.9320 C.2       0 UNK         0.4866 
      3 O          14.2962  -24.6884  -43.5675 O.2       0 UNK        -0.5176 
      4 N          16.5435  -24.6430  -43.3887 N.am      1 UNK        -0.4884 
      5 CA         16.8748  -25.2319  -44.6845 C.3       1 UNK         0.0853 
      6 C6         16.6899  -26.7711  -44.6900 C.3       10 UNK        -0.0849 
      7 S7         16.4334  -27.4389  -46.3694 S.3       10 UNK        -0.2776 
      8 C8         16.1552  -29.2041  -46.0117 C.3       10 UNK         0.0316 
      9 C9         17.3641  -29.8296  -45.3330 C.ar      10 UNK        -0.0863 
     10 C10        17.3431  -30.0974  -43.9606 C.ar      10 UNK        -0.1009 
     11 C11        18.4704  -30.6085  -43.3102 C.ar      10 UNK        -0.0712 
     12 C12        19.6198  -30.8761  -44.0667 C.ar      10 UNK        -0.0894 
     13 C13        19.6565  -30.6048  -45.4381 C.ar      10 UNK        -0.0745 
     14 C14        18.5204  -30.0954  -46.0696 C.ar      10 UNK        -0.0972 
     15 C15        20.9415  -30.8163  -46.2265 C.3       10 UNK         0.0209 
     16 S16        21.7677  -29.2401  -46.6346 S.3       10 UNK        -0.2568 
     17 C17        22.0694  -28.5195  -44.9829 C.3       10 UNK        -0.0983 
     18 CA         22.2392  -26.9790  -44.9946 C.3       3 UNK         0.0876 
     19 N          21.1418  -26.3036  -45.6975 N.am      3 UNK        -0.4424 
     20 C          21.2284  -25.0819  -46.2381 C.2       2 UNK         0.4918 
     21 O          22.2513  -24.3970  -46.2195 O.2       2 UNK        -0.4875 
     22 CA         19.9591  -24.5146  -46.9010 C.3       2 UNK         0.0481 
     23 CB         19.9600  -24.8352  -48.4042 C.3       2 UNK        -0.1831 
     24 N          18.6894  -24.9630  -46.3143 N.am      2 UNK        -0.4498 
     25 C          18.3125  -24.8069  -45.0376 C.2       1 UNK         0.5027 
     26 O          19.0502  -24.3570  -44.1550 O.2       1 UNK        -0.4969 
     27 C          22.4114  -26.4781  -43.5430 C.2       3 UNK         0.5005 
     28 O          23.4046  -26.8397  -42.9082 O.2       3 UNK        -0.5279 
     29 N          21.4359  -25.7168  -43.0150 N.am      4 UNK        -0.4463 
     30 CA         21.2746  -25.3508  -41.6035 C.3       4 UNK         0.0283 
     31 CB         22.3670  -24.3509  -41.1589 C.3       4 UNK        -0.1875 
     32 C          21.1808  -26.6247  -40.7421 C.2       4 UNK         0.4949 
     33 O          20.1675  -27.3196  -40.8162 O.2       4 UNK        -0.5039 
     34 N          22.2480  -26.9329  -39.9979 N.am      5 UNK        -0.4663 
     35 CA         22.4571  -28.2118  -39.3174 C.3       5 UNK         0.0242 
     36 CB         22.2597  -28.0165  -37.8032 C.3       5 UNK        -0.1982 
     37 C          23.8443  -28.7997  -39.6401 C.2       5 UNK         0.5017 
     38 O          24.2547  -29.7561  -38.9810 O.2       5 UNK        -0.5012 
     39 N          24.5530  -28.2428  -40.6384 N.am      6 UNK        -0.4439 
     40 CA         25.9357  -28.6015  -40.9859 C.3       6 UNK         0.0297 
     41 CB         26.5080  -27.5586  -41.9592 C.3       6 UNK        -0.2006 
     42 C          26.0856  -30.0179  -41.5675 C.2       6 UNK         0.4892 
     43 O          27.1718  -30.5923  -41.4898 O.2       6 UNK        -0.5089 
     44 N          24.9896  -30.5623  -42.1105 N.am      7 UNK        -0.4243 
     45 CA         24.8807  -31.9400  -42.5912 C.3       7 UNK         0.0196 
     46 CB         23.6805  -32.0245  -43.5495 C.3       7 UNK        -0.2007 
     47 C          24.7420  -32.9813  -41.4614 C.2       7 UNK         0.5020 
     48 O          24.7534  -34.1751  -41.7618 O.2       7 UNK        -0.5147 
     49 N          24.5768  -32.5307  -40.2046 N.am      8 UNK        -0.4734 
     50 CA         24.2785  -33.3316  -39.0060 C.3       8 UNK         0.0238 
     51 CB         25.4487  -34.2754  -38.6545 C.3       8 UNK        -0.1912 
     52 C          22.9216  -34.0582  -39.1118 C.2       8 UNK         0.5038 
     53 O          22.7796  -35.1911  -38.6482 O.2       8 UNK        -0.5046 
     54 N          21.9563  -33.3804  -39.7430 N.am      9 UNK        -0.4200 
     55 CA         20.5979  -33.8565  -40.0333 C.3       9 UNK         0.0839 
     56 C          19.6313  -33.9104  -38.8134 C.2       9 UNK         0.5513 
     57 N          19.9989  -33.3961  -37.6458 N.am      9 UNK        -0.7519 
     58 O          18.5303  -34.4428  -38.9283 O.2       9 UNK        -0.4960 
     59 C59        19.9969  -33.0773  -41.2337 C.3       10 UNK        -0.0876 
     60 S60        19.9593  -31.2674  -40.9648 S.3       10 UNK        -0.2414 
     61 C61        18.3981  -30.8029  -41.7922 C.3       10 UNK         0.0169 
     62 H62        14.6249  -24.3843  -40.8895 H         1 UNK         0.0903 
     63 H63        16.1645  -23.5527  -41.1171 H         1 UNK         0.0903 
     64 H64        14.6645  -22.7927  -41.6532 H         1 UNK         0.0903 
     65 H65        17.3599  -24.3454  -42.8664 H         1 UNK         0.3096 
     66 H66        16.2110  -24.7817  -45.4267 H         1 UNK         0.1121 
     67 H67        15.8134  -27.0488  -44.1025 H         1 UNK         0.0849 
     68 H68        17.5375  -27.2662  -44.2121 H         1 UNK         0.0849 
     69 H69        15.2616  -29.3131  -45.3951 H         1 UNK         0.0865 
     70 H70        15.9483  -29.7298  -46.9451 H         1 UNK         0.0865 
     71 H71        16.4536  -29.8745  -43.3868 H         1 UNK         0.1346 
     72 H72        20.5109  -31.2572  -43.5936 H         1 UNK         0.1412 
     73 H73        18.5499  -29.8677  -47.1267 H         1 UNK         0.1426 
     74 H74        21.6346  -31.4526  -45.6752 H         1 UNK         0.0716 
     75 H75        20.7139  -31.3457  -47.1528 H         1 UNK         0.0716 
     76 H76        21.2487  -28.7828  -44.3167 H         1 UNK         0.0695 
     77 H77        22.9597  -28.9975  -44.5702 H         1 UNK         0.0695 
     78 H78        23.1710  -26.7520  -45.5176 H         1 UNK         0.0983 
     79 H79        20.2770  -26.8174  -45.7827 H         1 UNK         0.3095 
     80 H80        19.9965  -23.4293  -46.7874 H         1 UNK         0.0454 
     81 H81        19.8822  -25.9076  -48.5881 H         1 UNK         0.0851 
     82 H82        19.1327  -24.3445  -48.9172 H         1 UNK         0.0851 
     83 H83        20.8804  -24.4900  -48.8775 H         1 UNK         0.0851 
     84 H84        18.0287  -25.3878  -46.9513 H         1 UNK         0.2976 
     85 H85        20.6602  -25.4482  -43.6118 H         1 UNK         0.3116 
     86 H86        20.3104  -24.8471  -41.5189 H         1 UNK         0.0646 
     87 H87        23.3763  -24.7464  -41.2742 H         1 UNK         0.0847 
     88 H88        22.3107  -23.4337  -41.7452 H         1 UNK         0.0847 
     89 H89        22.2375  -24.0677  -40.1135 H         1 UNK         0.0847 
     90 H90        23.0291  -26.2917  -39.9939 H         1 UNK         0.3040 
     91 H91        21.7297  -28.9478  -39.6675 H         1 UNK         0.1015 
     92 H92        22.9910  -27.3222  -37.3881 H         1 UNK         0.0786 
     93 H93        22.3620  -28.9609  -37.2668 H         1 UNK         0.0786 
     94 H94        21.2652  -27.6285  -37.5823 H         1 UNK         0.0786 
     95 H95        24.1049  -27.5579  -41.2435 H         1 UNK         0.3172 
     96 H96        26.5253  -28.5650  -40.0674 H         1 UNK         0.0595 
     97 H97        27.5604  -27.7565  -42.1674 H         1 UNK         0.0839 
     98 H98        26.4438  -26.5510  -41.5482 H         1 UNK         0.0839 
     99 H99        25.9823  -27.5658  -42.9148 H         1 UNK         0.0839 
    100 H100       24.1515  -30.0004  -42.1386 H         1 UNK         0.2998 
    101 H101       25.7859  -32.1872  -43.1501 H         1 UNK         0.0822 
    102 H102       23.5713  -33.0305  -43.9572 H         1 UNK         0.0787 
    103 H103       22.7471  -31.7741  -43.0453 H         1 UNK         0.0787 
    104 H104       23.8020  -31.3480  -44.3955 H         1 UNK         0.0787 
    105 H105       24.5957  -31.5278  -40.0500 H         1 UNK         0.3055 
    106 H106       24.1744  -32.6212  -38.1838 H         1 UNK         0.1106 
    107 H107       26.3906  -33.7310  -38.5873 H         1 UNK         0.0828 
    108 H108       25.2844  -34.7569  -37.6898 H         1 UNK         0.0828 
    109 H109       25.5703  -35.0677  -39.3935 H         1 UNK         0.0828 
    110 H110       22.1619  -32.4479  -40.0682 H         1 UNK         0.2931 
    111 H111       20.6986  -34.8942  -40.3574 H         1 UNK         0.0412 
    112 H112       19.3653  -33.4430  -36.8633 H         1 UNK         0.3472 
    113 H113       20.8993  -32.9577  -37.5420 H         1 UNK         0.3472 
    114 H114       20.5901  -33.2740  -42.1278 H         1 UNK         0.0970 
    115 H115       18.9956  -33.4453  -41.4646 H         1 UNK         0.0970 
    116 H116       17.6258  -31.5354  -41.5543 H         1 UNK         0.0612 
    117 H117       18.0713  -29.8614  -41.3479 H         1 UNK         0.0612 
@<TRIPOS>BOND
     1    1    2 1    
     2    1   62 1    
     3    1   63 1    
     4    1   64 1    
     5    2    3 2    
     6    2    4 am   BACKBONE|DICT|INTERRES
     7    4    5 1    
     8    4   65 1    
     9    5    6 1    
    10    5   25 1    
    11    5   66 1    
    12    6    7 1    
    13    6   67 1    
    14    6   68 1    
    15    7    8 1    
    16    8    9 1    
    17    8   69 1    
    18    8   70 1    
    19    9   10 ar   
    20    9   14 ar   
    21   10   11 ar   
    22   10   71 1    
    23   11   12 ar   
    24   11   61 1    
    25   12   13 ar   
    26   12   72 1    
    27   13   14 ar   
    28   13   15 1    
    29   14   73 1    
    30   15   16 1    
    31   15   74 1    
    32   15   75 1    
    33   16   17 1    
    34   17   18 1    
    35   17   76 1    
    36   17   77 1    
    37   18   19 1    
    38   18   27 1    
    39   18   78 1    
    40   19   20 am   BACKBONE|DICT|INTERRES
    41   19   79 1    
    42   20   21 2    
    43   20   22 1    
    44   22   23 1    
    45   22   24 1    
    46   22   80 1    
    47   23   81 1    
    48   23   82 1    
    49   23   83 1    
    50   24   25 am   BACKBONE|DICT|INTERRES
    51   24   84 1    
    52   25   26 2    
    53   27   28 2    
    54   27   29 am   BACKBONE|DICT|INTERRES
    55   29   30 1    
    56   29   85 1    
    57   30   31 1    
    58   30   32 1    
    59   30   86 1    
    60   31   87 1    
    61   31   88 1    
    62   31   89 1    
    63   32   33 2    
    64   32   34 am   BACKBONE|DICT|INTERRES
    65   34   35 1    
    66   34   90 1    
    67   35   36 1    
    68   35   37 1    
    69   35   91 1    
    70   36   92 1    
    71   36   93 1    
    72   36   94 1    
    73   37   38 2    
    74   37   39 am   BACKBONE|DICT|INTERRES
    75   39   40 1    
    76   39   95 1    
    77   40   41 1    
    78   40   42 1    
    79   40   96 1    
    80   41   97 1    
    81   41   98 1    
    82   41   99 1    
    83   42   43 2    
    84   42   44 am   BACKBONE|DICT|INTERRES
    85   44   45 1    
    86   44  100 1    
    87   45   46 1    
    88   45   47 1    
    89   45  101 1    
    90   46  102 1    
    91   46  103 1    
    92   46  104 1    
    93   47   48 2    
    94   47   49 am   BACKBONE|DICT|INTERRES
    95   49   50 1    
    96   49  105 1    
    97   50   51 1    
    98   50   52 1    
    99   50  106 1    
   100   51  107 1    
   101   51  108 1    
   102   51  109 1    
   103   52   53 2    
   104   52   54 am   BACKBONE|DICT|INTERRES
   105   54   55 1    
   106   54  110 1    
   107   55   56 1    
   108   55   59 1    
   109   55  111 1    
   110   56   57 am   BACKBONE|DICT|INTERRES
   111   56   58 2    
   112   57  112 1    
   113   57  113 1    
   114   59   60 1    
   115   59  114 1    
   116   59  115 1    
   117   60   61 1    
   118   61  116 1    
   119   61  117 1    
@<TRIPOS>SUBSTRUCTURE
     1 UNK         1 GROUP             0       ****    0 ROOT    
