@<TRIPOS>MOLECULE
3R8
117   119    1
SMALL
USER_CHARGES


@<TRIPOS>ATOM
      1 CA         22.8486  -32.2171  -45.9399 C.3       0 UNK        -0.2013 
      2 C          21.9038  -31.1216  -45.4825 C.2       0 UNK         0.4866 
      3 O          21.9989  -30.6613  -44.3431 O.2       0 UNK        -0.5176 
      4 N          21.0080  -30.6912  -46.3786 N.am      1 UNK        -0.4884 
      5 CA         19.9700  -29.6730  -46.1691 C.3       1 UNK         0.0853 
      6 C6         18.7865  -29.8737  -47.1520 C.3       10 UNK        -0.0849 
      7 S7         17.8959  -31.4281  -46.8055 S.3       10 UNK        -0.2776 
      8 C8         16.3535  -30.8113  -46.0526 C.3       10 UNK         0.0316 
      9 C9         16.6058  -29.9149  -44.8457 C.ar      10 UNK        -0.0863 
     10 C10        17.1160  -30.4528  -43.6612 C.ar      10 UNK        -0.1009 
     11 C11        17.3343  -29.6407  -42.5383 C.ar      10 UNK        -0.0712 
     12 C12        17.0369  -28.2749  -42.6249 C.ar      10 UNK        -0.0894 
     13 C13        16.5165  -27.7252  -43.8011 C.ar      10 UNK        -0.0745 
     14 C14        16.3068  -28.5513  -44.9079 C.ar      10 UNK        -0.0972 
     15 C15        16.1238  -26.2550  -43.8724 C.3       10 UNK         0.0209 
     16 S16        17.3031  -25.2816  -44.8626 S.3       10 UNK        -0.2568 
     17 C17        18.2026  -24.3347  -43.5872 C.3       10 UNK        -0.0983 
     18 CA         19.4321  -25.0897  -43.0316 C.3       3 UNK         0.0876 
     19 N          20.3552  -25.4996  -44.0958 N.am      3 UNK        -0.4424 
     20 C          21.4642  -26.2245  -43.9151 C.2       2 UNK         0.4918 
     21 O          21.8684  -26.6025  -42.8158 O.2       2 UNK        -0.4875 
     22 CA         22.1874  -26.6976  -45.1798 C.3       2 UNK         0.0481 
     23 CB         23.7073  -26.8056  -44.9692 C.3       2 UNK        -0.1831 
     24 N          21.6507  -28.0147  -45.5010 N.am      2 UNK        -0.4498 
     25 C          20.5376  -28.2360  -46.2087 C.2       1 UNK         0.5027 
     26 O          19.9651  -27.3552  -46.8534 O.2       1 UNK        -0.4969 
     27 C          20.1323  -24.2648  -41.9301 C.2       3 UNK         0.5005 
     28 O          21.0756  -23.5243  -42.2200 O.2       3 UNK        -0.5279 
     29 N          19.6776  -24.4428  -40.6814 N.am      4 UNK        -0.4463 
     30 CA         20.2272  -23.9185  -39.4205 C.3       4 UNK         0.0283 
     31 CB         20.3252  -22.3798  -39.4148 C.3       4 UNK        -0.1875 
     32 C          21.5584  -24.5701  -38.9982 C.2       4 UNK         0.4949 
     33 O          21.7280  -24.8546  -37.8126 O.2       4 UNK        -0.5039 
     34 N          22.4631  -24.8226  -39.9538 N.am      5 UNK        -0.4663 
     35 CA         23.7063  -25.5711  -39.7444 C.3       5 UNK         0.0242 
     36 CB         24.6606  -25.3305  -40.9263 C.3       5 UNK        -0.1982 
     37 C          23.4476  -27.0748  -39.5479 C.2       5 UNK         0.5017 
     38 O          24.0575  -27.6839  -38.6690 O.2       5 UNK        -0.5012 
     39 N          22.5403  -27.6264  -40.3688 N.am      6 UNK        -0.4439 
     40 CA         22.0863  -29.0194  -40.4199 C.3       6 UNK         0.0297 
     41 CB         21.2919  -29.3722  -39.1452 C.3       6 UNK        -0.2006 
     42 C          23.2332  -30.0036  -40.7235 C.2       6 UNK         0.4892 
     43 O          23.3100  -31.0640  -40.0981 O.2       6 UNK        -0.5089 
     44 N          24.0908  -29.6151  -41.6823 N.am      7 UNK        -0.4243 
     45 CA         25.3934  -30.2029  -42.0331 C.3       7 UNK         0.0196 
     46 CB         25.8974  -29.5725  -43.3417 C.3       7 UNK        -0.2007 
     47 C          25.4514  -31.7371  -42.1259 C.2       7 UNK         0.5020 
     48 O          26.4163  -32.3311  -41.6436 O.2       7 UNK        -0.5147 
     49 N          24.4137  -32.3495  -42.7042 N.am      8 UNK        -0.4734 
     50 CA         24.1765  -33.7938  -42.6389 C.3       8 UNK         0.0238 
     51 CB         24.8235  -34.5249  -43.8321 C.3       8 UNK        -0.1912 
     52 C          22.6749  -34.0588  -42.4629 C.2       8 UNK         0.5038 
     53 O          22.1219  -34.9594  -43.0955 O.2       8 UNK        -0.5046 
     54 N          22.0542  -33.2465  -41.6021 N.am      9 UNK        -0.4200 
     55 CA         20.6574  -33.3365  -41.1667 C.3       9 UNK         0.0839 
     56 C          20.5777  -33.5130  -39.6210 C.2       9 UNK         0.5513 
     57 N          21.4997  -32.9610  -38.8383 N.am      9 UNK        -0.7519 
     58 O          19.6928  -34.2045  -39.1236 O.2       9 UNK        -0.4960 
     59 C59        19.8473  -32.1275  -41.7191 C.3       10 UNK        -0.0876 
     60 S60        18.1277  -31.9885  -41.1156 S.3       10 UNK        -0.2414 
     61 C61        17.8428  -30.1837  -41.1990 C.3       10 UNK         0.0169 
     62 H62        22.8812  -32.2976  -47.0263 H         1 UNK         0.0903 
     63 H63        23.8601  -32.0155  -45.5890 H         1 UNK         0.0903 
     64 H64        22.5164  -33.1734  -45.5384 H         1 UNK         0.0903 
     65 H65        21.0043  -31.1114  -47.2973 H         1 UNK         0.3096 
     66 H66        19.5805  -29.7954  -45.1555 H         1 UNK         0.1121 
     67 H67        19.1420  -29.8921  -48.1836 H         1 UNK         0.0849 
     68 H68        18.0772  -29.0462  -47.0996 H         1 UNK         0.0849 
     69 H69        15.7743  -30.2845  -46.8128 H         1 UNK         0.0865 
     70 H70        15.7447  -31.6630  -45.7456 H         1 UNK         0.0865 
     71 H71        17.3302  -31.5111  -43.6311 H         1 UNK         0.1346 
     72 H72        17.1843  -27.6425  -41.7603 H         1 UNK         0.1412 
     73 H73        15.9003  -28.1281  -45.8167 H         1 UNK         0.1426 
     74 H74        16.0186  -25.8336  -42.8720 H         1 UNK         0.0716 
     75 H75        15.1381  -26.1737  -44.3331 H         1 UNK         0.0716 
     76 H76        17.5112  -24.0674  -42.7859 H         1 UNK         0.0695 
     77 H77        18.5150  -23.3904  -44.0376 H         1 UNK         0.0695 
     78 H78        19.0791  -26.0147  -42.5713 H         1 UNK         0.0983 
     79 H79        20.0654  -25.2798  -45.0380 H         1 UNK         0.3095 
     80 H80        22.0000  -25.9946  -45.9942 H         1 UNK         0.0454 
     81 H81        23.9583  -27.5031  -44.1711 H         1 UNK         0.0851 
     82 H82        24.1319  -25.8373  -44.7016 H         1 UNK         0.0851 
     83 H83        24.2095  -27.1422  -45.8761 H         1 UNK         0.0851 
     84 H84        22.0166  -28.8004  -44.9709 H         1 UNK         0.2976 
     85 H85        18.9039  -25.0814  -40.5560 H         1 UNK         0.3116 
     86 H86        19.4969  -24.1929  -38.6572 H         1 UNK         0.0646 
     87 H87        21.0842  -22.0118  -40.1054 H         1 UNK         0.0847 
     88 H88        20.5935  -22.0148  -38.4226 H         1 UNK         0.0847 
     89 H89        19.3744  -21.9195  -39.6830 H         1 UNK         0.0847 
     90 H90        22.2443  -24.5258  -40.8999 H         1 UNK         0.3040 
     91 H91        24.1858  -25.1961  -38.8372 H         1 UNK         0.1015 
     92 H92        24.9141  -24.2744  -41.0200 H         1 UNK         0.0786 
     93 H93        24.2286  -25.6547  -41.8735 H         1 UNK         0.0786 
     94 H94        25.5952  -25.8766  -40.7903 H         1 UNK         0.0786 
     95 H95        22.1799  -27.0410  -41.1223 H         1 UNK         0.3172 
     96 H96        21.4007  -29.0758  -41.2665 H         1 UNK         0.0595 
     97 H97        20.7923  -30.3348  -39.2439 H         1 UNK         0.0839 
     98 H98        20.5185  -28.6315  -38.9426 H         1 UNK         0.0839 
     99 H99        21.9384  -29.4284  -38.2688 H         1 UNK         0.0839 
    100 H100       23.8791  -28.7375  -42.1333 H         1 UNK         0.2998 
    101 H101       26.0805  -29.9134  -41.2357 H         1 UNK         0.0822 
    102 H102       26.0340  -28.4960  -43.2379 H         1 UNK         0.0787 
    103 H103       26.8630  -29.9897  -43.6318 H         1 UNK         0.0787 
    104 H104       25.2054  -29.7497  -44.1663 H         1 UNK         0.0787 
    105 H105       23.6583  -31.7819  -43.0728 H         1 UNK         0.3055 
    106 H106       24.6378  -34.1882  -41.7300 H         1 UNK         0.1106 
    107 H107       24.6869  -35.6035  -43.7460 H         1 UNK         0.0828 
    108 H108       25.8971  -34.3408  -43.8708 H         1 UNK         0.0828 
    109 H109       24.4008  -34.2226  -44.7868 H         1 UNK         0.0828 
    110 H110       22.6147  -32.5557  -41.1127 H         1 UNK         0.2931 
    111 H111       20.2104  -34.2384  -41.5894 H         1 UNK         0.0412 
    112 H112       22.2239  -32.3559  -39.2114 H         1 UNK         0.3472 
    113 H113       21.4425  -33.1098  -37.8434 H         1 UNK         0.3472 
    114 H114       20.3732  -31.2035  -41.4858 H         1 UNK         0.0970 
    115 H115       19.8197  -32.1758  -42.8090 H         1 UNK         0.0970 
    116 H116       17.1017  -29.9404  -40.4363 H         1 UNK         0.0612 
    117 H117       18.7523  -29.6536  -40.9145 H         1 UNK         0.0612 
@<TRIPOS>BOND
     1    1    2 1    
     2    1   62 1    
     3    1   63 1    
     4    1   64 1    
     5    2    3 2    
     6    2    4 am   BACKBONE|DICT|INTERRES
     7    4    5 1    
     8    4   65 1    
     9    5    6 1    
    10    5   25 1    
    11    5   66 1    
    12    6    7 1    
    13    6   67 1    
    14    6   68 1    
    15    7    8 1    
    16    8    9 1    
    17    8   69 1    
    18    8   70 1    
    19    9   10 ar   
    20    9   14 ar   
    21   10   11 ar   
    22   10   71 1    
    23   11   12 ar   
    24   11   61 1    
    25   12   13 ar   
    26   12   72 1    
    27   13   14 ar   
    28   13   15 1    
    29   14   73 1    
    30   15   16 1    
    31   15   74 1    
    32   15   75 1    
    33   16   17 1    
    34   17   18 1    
    35   17   76 1    
    36   17   77 1    
    37   18   19 1    
    38   18   27 1    
    39   18   78 1    
    40   19   20 am   BACKBONE|DICT|INTERRES
    41   19   79 1    
    42   20   21 2    
    43   20   22 1    
    44   22   23 1    
    45   22   24 1    
    46   22   80 1    
    47   23   81 1    
    48   23   82 1    
    49   23   83 1    
    50   24   25 am   BACKBONE|DICT|INTERRES
    51   24   84 1    
    52   25   26 2    
    53   27   28 2    
    54   27   29 am   BACKBONE|DICT|INTERRES
    55   29   30 1    
    56   29   85 1    
    57   30   31 1    
    58   30   32 1    
    59   30   86 1    
    60   31   87 1    
    61   31   88 1    
    62   31   89 1    
    63   32   33 2    
    64   32   34 am   BACKBONE|DICT|INTERRES
    65   34   35 1    
    66   34   90 1    
    67   35   36 1    
    68   35   37 1    
    69   35   91 1    
    70   36   92 1    
    71   36   93 1    
    72   36   94 1    
    73   37   38 2    
    74   37   39 am   BACKBONE|DICT|INTERRES
    75   39   40 1    
    76   39   95 1    
    77   40   41 1    
    78   40   42 1    
    79   40   96 1    
    80   41   97 1    
    81   41   98 1    
    82   41   99 1    
    83   42   43 2    
    84   42   44 am   BACKBONE|DICT|INTERRES
    85   44   45 1    
    86   44  100 1    
    87   45   46 1    
    88   45   47 1    
    89   45  101 1    
    90   46  102 1    
    91   46  103 1    
    92   46  104 1    
    93   47   48 2    
    94   47   49 am   BACKBONE|DICT|INTERRES
    95   49   50 1    
    96   49  105 1    
    97   50   51 1    
    98   50   52 1    
    99   50  106 1    
   100   51  107 1    
   101   51  108 1    
   102   51  109 1    
   103   52   53 2    
   104   52   54 am   BACKBONE|DICT|INTERRES
   105   54   55 1    
   106   54  110 1    
   107   55   56 1    
   108   55   59 1    
   109   55  111 1    
   110   56   57 am   BACKBONE|DICT|INTERRES
   111   56   58 2    
   112   57  112 1    
   113   57  113 1    
   114   59   60 1    
   115   59  114 1    
   116   59  115 1    
   117   60   61 1    
   118   61  116 1    
   119   61  117 1    
@<TRIPOS>SUBSTRUCTURE
     1 UNK         1 GROUP             0       ****    0 ROOT    
