@<TRIPOS>MOLECULE
3R8
117   119    1
SMALL
USER_CHARGES


@<TRIPOS>ATOM
      1 CA         11.8209  -28.6388  -41.8030 C.3       0 UNK        -0.2013 
      2 C          12.9342  -28.6157  -42.8405 C.2       0 UNK         0.4866 
      3 O          13.0455  -29.5571  -43.6258 O.2       0 UNK        -0.5176 
      4 N          13.7339  -27.5387  -42.8473 N.am      1 UNK        -0.4884 
      5 CA         14.9204  -27.2950  -43.6812 C.3       1 UNK         0.0853 
      6 C6         14.6868  -27.5405  -45.1956 C.3       10 UNK        -0.0849 
      7 S7         15.7536  -26.5031  -46.2508 S.3       10 UNK        -0.2776 
      8 C8         16.5447  -27.7416  -47.3265 C.3       10 UNK         0.0316 
      9 C9         17.8966  -28.1904  -46.7905 C.ar      10 UNK        -0.0863 
     10 C10        18.0195  -29.3632  -46.0367 C.ar      10 UNK        -0.1009 
     11 C11        19.2762  -29.8011  -45.6013 C.ar      10 UNK        -0.0712 
     12 C12        20.4128  -29.0584  -45.9463 C.ar      10 UNK        -0.0894 
     13 C13        20.2990  -27.8674  -46.6645 C.ar      10 UNK        -0.0745 
     14 C14        19.0383  -27.4403  -47.0871 C.ar      10 UNK        -0.0972 
     15 C15        21.5364  -27.0481  -46.9972 C.3       10 UNK         0.0209 
     16 S16        21.8598  -25.7696  -45.7404 S.3       10 UNK        -0.2568 
     17 C17        22.7669  -26.6926  -44.4542 C.3       10 UNK        -0.0983 
     18 CA         22.1051  -26.5795  -43.0569 C.3       3 UNK         0.0876 
     19 N          20.8813  -27.3678  -42.9440 N.am      3 UNK        -0.4424 
     20 C          19.6480  -26.8634  -42.8539 C.2       2 UNK         0.4918 
     21 O          19.3713  -25.6669  -42.9745 O.2       2 UNK        -0.4875 
     22 CA         18.5396  -27.8575  -42.4959 C.3       2 UNK         0.0481 
     23 CB         18.4953  -28.0832  -40.9729 C.3       2 UNK        -0.1831 
     24 N          17.2623  -27.3357  -42.9686 N.am      2 UNK        -0.4498 
     25 C          16.1500  -28.0571  -43.1451 C.2       1 UNK         0.5027 
     26 O          16.0764  -29.2638  -42.9043 O.2       1 UNK        -0.4969 
     27 C          23.0620  -27.0929  -41.9710 C.2       3 UNK         0.5005 
     28 O          23.1867  -28.3092  -41.7942 O.2       3 UNK        -0.5279 
     29 N          23.7609  -26.1723  -41.2920 N.am      4 UNK        -0.4463 
     30 CA         24.7876  -26.4857  -40.2895 C.3       4 UNK         0.0283 
     31 CB         25.1952  -25.2048  -39.5454 C.3       4 UNK        -0.1875 
     32 C          26.0220  -27.1731  -40.8984 C.2       4 UNK         0.4949 
     33 O          26.6158  -28.0372  -40.2550 O.2       4 UNK        -0.5039 
     34 N          26.3424  -26.8290  -42.1548 N.am      5 UNK        -0.4663 
     35 CA         27.3845  -27.4678  -42.9675 C.3       5 UNK         0.0242 
     36 CB         27.5992  -26.6402  -44.2451 C.3       5 UNK        -0.1982 
     37 C          27.0761  -28.9353  -43.3243 C.2       5 UNK         0.5017 
     38 O          28.0020  -29.6873  -43.6272 O.2       5 UNK        -0.5012 
     39 N          25.7933  -29.3163  -43.2565 N.am      6 UNK        -0.4439 
     40 CA         25.2920  -30.6804  -43.4228 C.3       6 UNK         0.0297 
     41 CB         24.0685  -30.6389  -44.3527 C.3       6 UNK        -0.2006 
     42 C          24.9735  -31.3358  -42.0619 C.2       6 UNK         0.4892 
     43 O          24.2113  -32.3018  -42.0193 O.2       6 UNK        -0.5089 
     44 N          25.5696  -30.8082  -40.9800 N.am      7 UNK        -0.4243 
     45 CA         25.4932  -31.2742  -39.5914 C.3       7 UNK         0.0196 
     46 CB         26.0922  -32.6907  -39.4482 C.3       7 UNK        -0.2007 
     47 C          24.0934  -31.1432  -38.9614 C.2       7 UNK         0.5020 
     48 O          23.7422  -31.9512  -38.1002 O.2       7 UNK        -0.5147 
     49 N          23.3352  -30.1140  -39.3737 N.am      8 UNK        -0.4734 
     50 CA         21.9945  -29.7596  -38.8867 C.3       8 UNK         0.0238 
     51 CB         22.0394  -29.3081  -37.4112 C.3       8 UNK        -0.1912 
     52 C          20.9626  -30.8721  -39.1539 C.2       8 UNK         0.5038 
     53 O          20.2474  -31.2969  -38.2453 O.2       8 UNK        -0.5046 
     54 N          20.9195  -31.3003  -40.4188 N.am      9 UNK        -0.4200 
     55 CA         20.0544  -32.3092  -41.0619 C.3       9 UNK         0.0839 
     56 C          18.5046  -32.1506  -40.9193 C.2       9 UNK         0.5513 
     57 N          17.9898  -31.4106  -39.9494 N.am      9 UNK        -0.7519 
     58 O          17.7472  -32.7381  -41.6875 O.2       9 UNK        -0.4960 
     59 C59        20.5000  -32.5007  -42.5406 C.3       10 UNK        -0.0876 
     60 S60        20.6308  -30.9153  -43.4367 S.3       10 UNK        -0.2414 
     61 C61        19.3955  -31.0759  -44.7664 C.3       10 UNK         0.0169 
     62 H62        11.9367  -29.5028  -41.1491 H         1 UNK         0.0903 
     63 H63        11.8189  -27.7427  -41.1826 H         1 UNK         0.0903 
     64 H64        10.8512  -28.7118  -42.2948 H         1 UNK         0.0903 
     65 H65        13.5639  -26.8216  -42.1548 H         1 UNK         0.3096 
     66 H66        15.1146  -26.2289  -43.5485 H         1 UNK         0.1121 
     67 H67        13.6579  -27.2889  -45.4572 H         1 UNK         0.0849 
     68 H68        14.8013  -28.5975  -45.4428 H         1 UNK         0.0849 
     69 H69        15.8855  -28.5972  -47.4804 H         1 UNK         0.0865 
     70 H70        16.6806  -27.2991  -48.3147 H         1 UNK         0.0865 
     71 H71        17.1363  -29.9372  -45.7910 H         1 UNK         0.1346 
     72 H72        21.3915  -29.3953  -45.6364 H         1 UNK         0.1412 
     73 H73        18.9463  -26.5250  -47.6563 H         1 UNK         0.1426 
     74 H74        21.3995  -26.5582  -47.9624 H         1 UNK         0.0716 
     75 H75        22.4099  -27.6923  -47.1098 H         1 UNK         0.0716 
     76 H76        23.7780  -26.2810  -44.4354 H         1 UNK         0.0695 
     77 H77        22.8762  -27.7374  -44.7464 H         1 UNK         0.0695 
     78 H78        21.8945  -25.5281  -42.8483 H         1 UNK         0.0983 
     79 H79        21.0299  -28.3580  -42.7999 H         1 UNK         0.3095 
     80 H80        18.7354  -28.8031  -42.9994 H         1 UNK         0.0454 
     81 H81        17.6939  -28.7654  -40.6926 H         1 UNK         0.0851 
     82 H82        18.3400  -27.1491  -40.4319 H         1 UNK         0.0851 
     83 H83        19.4276  -28.5193  -40.6156 H         1 UNK         0.0851 
     84 H84        17.2880  -26.3570  -43.2285 H         1 UNK         0.2976 
     85 H85        23.6025  -25.1929  -41.4856 H         1 UNK         0.3116 
     86 H86        24.3507  -27.1753  -39.5637 H         1 UNK         0.0646 
     87 H87        25.6254  -24.4622  -40.2186 H         1 UNK         0.0847 
     88 H88        25.9420  -25.4207  -38.7799 H         1 UNK         0.0847 
     89 H89        24.3423  -24.7492  -39.0420 H         1 UNK         0.0847 
     90 H90        25.8095  -26.0947  -42.5977 H         1 UNK         0.3040 
     91 H91        28.3125  -27.4631  -42.3910 H         1 UNK         0.1015 
     92 H92        26.6970  -26.5989  -44.8570 H         1 UNK         0.0786 
     93 H93        28.3904  -27.0708  -44.8608 H         1 UNK         0.0786 
     94 H94        27.8954  -25.6174  -44.0114 H         1 UNK         0.0786 
     95 H95        25.1084  -28.6387  -42.9476 H         1 UNK         0.3172 
     96 H96        26.0508  -31.3043  -43.8988 H         1 UNK         0.0595 
     97 H97        23.2837  -30.0083  -43.9390 H         1 UNK         0.0839 
     98 H98        23.6468  -31.6332  -44.5056 H         1 UNK         0.0839 
     99 H99        24.3300  -30.2448  -45.3346 H         1 UNK         0.0839 
    100 H100       26.1433  -29.9840  -41.1138 H         1 UNK         0.2998 
    101 H101       26.1308  -30.5970  -39.0209 H         1 UNK         0.0822 
    102 H102       27.0885  -32.7468  -39.8868 H         1 UNK         0.0787 
    103 H103       26.1867  -32.9719  -38.3986 H         1 UNK         0.0787 
    104 H104       25.4693  -33.4446  -39.9304 H         1 UNK         0.0787 
    105 H105       23.6803  -29.5422  -40.1379 H         1 UNK         0.3055 
    106 H106       21.6734  -28.8990  -39.4757 H         1 UNK         0.1106 
    107 H107       21.0651  -28.9397  -37.0877 H         1 UNK         0.0828 
    108 H108       22.3137  -30.1243  -36.7423 H         1 UNK         0.0828 
    109 H109       22.7555  -28.4994  -37.2658 H         1 UNK         0.0828 
    110 H110       21.5728  -30.8731  -41.0598 H         1 UNK         0.2931 
    111 H111       20.2713  -33.2459  -40.5465 H         1 UNK         0.0412 
    112 H112       16.9898  -31.3247  -39.8656 H         1 UNK         0.3472 
    113 H113       18.6038  -31.0565  -39.2256 H         1 UNK         0.3472 
    114 H114       19.8525  -33.1940  -43.0801 H         1 UNK         0.0970 
    115 H115       21.4887  -32.9624  -42.5589 H         1 UNK         0.0970 
    116 H116       18.4332  -31.3249  -44.3153 H         1 UNK         0.0612 
    117 H117       19.6708  -31.9061  -45.4177 H         1 UNK         0.0612 
@<TRIPOS>BOND
     1    1    2 1    
     2    1   62 1    
     3    1   63 1    
     4    1   64 1    
     5    2    3 2    
     6    2    4 am   BACKBONE|DICT|INTERRES
     7    4    5 1    
     8    4   65 1    
     9    5    6 1    
    10    5   25 1    
    11    5   66 1    
    12    6    7 1    
    13    6   67 1    
    14    6   68 1    
    15    7    8 1    
    16    8    9 1    
    17    8   69 1    
    18    8   70 1    
    19    9   10 ar   
    20    9   14 ar   
    21   10   11 ar   
    22   10   71 1    
    23   11   12 ar   
    24   11   61 1    
    25   12   13 ar   
    26   12   72 1    
    27   13   14 ar   
    28   13   15 1    
    29   14   73 1    
    30   15   16 1    
    31   15   74 1    
    32   15   75 1    
    33   16   17 1    
    34   17   18 1    
    35   17   76 1    
    36   17   77 1    
    37   18   19 1    
    38   18   27 1    
    39   18   78 1    
    40   19   20 am   BACKBONE|DICT|INTERRES
    41   19   79 1    
    42   20   21 2    
    43   20   22 1    
    44   22   23 1    
    45   22   24 1    
    46   22   80 1    
    47   23   81 1    
    48   23   82 1    
    49   23   83 1    
    50   24   25 am   BACKBONE|DICT|INTERRES
    51   24   84 1    
    52   25   26 2    
    53   27   28 2    
    54   27   29 am   BACKBONE|DICT|INTERRES
    55   29   30 1    
    56   29   85 1    
    57   30   31 1    
    58   30   32 1    
    59   30   86 1    
    60   31   87 1    
    61   31   88 1    
    62   31   89 1    
    63   32   33 2    
    64   32   34 am   BACKBONE|DICT|INTERRES
    65   34   35 1    
    66   34   90 1    
    67   35   36 1    
    68   35   37 1    
    69   35   91 1    
    70   36   92 1    
    71   36   93 1    
    72   36   94 1    
    73   37   38 2    
    74   37   39 am   BACKBONE|DICT|INTERRES
    75   39   40 1    
    76   39   95 1    
    77   40   41 1    
    78   40   42 1    
    79   40   96 1    
    80   41   97 1    
    81   41   98 1    
    82   41   99 1    
    83   42   43 2    
    84   42   44 am   BACKBONE|DICT|INTERRES
    85   44   45 1    
    86   44  100 1    
    87   45   46 1    
    88   45   47 1    
    89   45  101 1    
    90   46  102 1    
    91   46  103 1    
    92   46  104 1    
    93   47   48 2    
    94   47   49 am   BACKBONE|DICT|INTERRES
    95   49   50 1    
    96   49  105 1    
    97   50   51 1    
    98   50   52 1    
    99   50  106 1    
   100   51  107 1    
   101   51  108 1    
   102   51  109 1    
   103   52   53 2    
   104   52   54 am   BACKBONE|DICT|INTERRES
   105   54   55 1    
   106   54  110 1    
   107   55   56 1    
   108   55   59 1    
   109   55  111 1    
   110   56   57 am   BACKBONE|DICT|INTERRES
   111   56   58 2    
   112   57  112 1    
   113   57  113 1    
   114   59   60 1    
   115   59  114 1    
   116   59  115 1    
   117   60   61 1    
   118   61  116 1    
   119   61  117 1    
@<TRIPOS>SUBSTRUCTURE
     1 UNK         1 GROUP             0       ****    0 ROOT    
