@<TRIPOS>MOLECULE
3R8
117   119    1
SMALL
USER_CHARGES


@<TRIPOS>ATOM
      1 CA         13.5127  -22.0629  -45.1795 C.3       0 UNK        -0.2013 
      2 C          14.5379  -23.0120  -45.7821 C.2       0 UNK         0.4866 
      3 O          15.1673  -22.6763  -46.7861 O.2       0 UNK        -0.5176 
      4 N          14.7059  -24.1977  -45.1832 N.am      1 UNK        -0.4884 
      5 CA         15.6971  -25.2008  -45.5840 C.3       1 UNK         0.0853 
      6 C6         15.3568  -26.5867  -44.9806 C.3       10 UNK        -0.0849 
      7 S7         16.1045  -27.9674  -45.9102 S.3       10 UNK        -0.2776 
      8 C8         15.8141  -29.3669  -44.7777 C.3       10 UNK         0.0316 
      9 C9         16.9624  -29.5483  -43.7944 C.ar      10 UNK        -0.0863 
     10 C10        18.0142  -30.4193  -44.0948 C.ar      10 UNK        -0.1009 
     11 C11        19.0754  -30.5924  -43.2000 C.ar      10 UNK        -0.0712 
     12 C12        19.0826  -29.8834  -41.9950 C.ar      10 UNK        -0.0894 
     13 C13        18.0581  -28.9753  -41.7059 C.ar      10 UNK        -0.0745 
     14 C14        16.9857  -28.8383  -42.5915 C.ar      10 UNK        -0.0972 
     15 C15        18.1405  -28.0750  -40.4833 C.3       10 UNK         0.0209 
     16 S16        18.6305  -26.3807  -40.9612 S.3       10 UNK        -0.2568 
     17 C17        20.3887  -26.6107  -41.3859 C.3       10 UNK        -0.0983 
     18 CA         20.6270  -26.9215  -42.8876 C.3       3 UNK         0.0876 
     19 N          20.2558  -25.8063  -43.7651 N.am      3 UNK        -0.4424 
     20 C          20.0717  -25.9256  -45.0863 C.2       2 UNK         0.4918 
     21 O          20.2868  -26.9580  -45.7234 O.2       2 UNK        -0.4875 
     22 CA         19.5074  -24.6985  -45.8151 C.3       2 UNK         0.0481 
     23 CB         20.2418  -24.4379  -47.1418 C.3       2 UNK        -0.1831 
     24 N          18.0884  -24.9248  -46.0809 N.am      2 UNK        -0.4498 
     25 C          17.1143  -24.7421  -45.1805 C.2       1 UNK         0.5027 
     26 O          17.2991  -24.2538  -44.0621 O.2       1 UNK        -0.4969 
     27 C          22.0603  -27.4494  -43.0960 C.2       3 UNK         0.5005 
     28 O          22.3334  -28.5754  -42.6791 O.2       3 UNK        -0.5279 
     29 N          22.9562  -26.6377  -43.6835 N.am      4 UNK        -0.4463 
     30 CA         24.3731  -26.9420  -43.9434 C.3       4 UNK         0.0283 
     31 CB         24.5010  -27.9933  -45.0657 C.3       4 UNK        -0.1875 
     32 C          25.1295  -27.3384  -42.6583 C.2       4 UNK         0.4949 
     33 O          25.7710  -28.3885  -42.6070 O.2       4 UNK        -0.5039 
     34 N          24.9717  -26.4982  -41.6239 N.am      5 UNK        -0.4663 
     35 CA         25.4603  -26.6633  -40.2462 C.3       5 UNK         0.0242 
     36 CB         27.0006  -26.7661  -40.2013 C.3       5 UNK        -0.1982 
     37 C          24.7724  -27.8011  -39.4623 C.2       5 UNK         0.5017 
     38 O          25.2841  -28.2036  -38.4171 O.2       5 UNK        -0.5012 
     39 N          23.6324  -28.3013  -39.9654 N.am      6 UNK        -0.4439 
     40 CA         22.7416  -29.3348  -39.4141 C.3       6 UNK         0.0297 
     41 CB         22.1997  -28.9446  -38.0262 C.3       6 UNK        -0.2006 
     42 C          23.3228  -30.7582  -39.4119 C.2       6 UNK         0.4892 
     43 O          22.5713  -31.7036  -39.6469 O.2       6 UNK        -0.5089 
     44 N          24.6396  -30.8890  -39.2024 N.am      7 UNK        -0.4243 
     45 CA         25.4144  -32.1359  -39.2014 C.3       7 UNK         0.0196 
     46 CB         26.8662  -31.8119  -38.8127 C.3       7 UNK        -0.2007 
     47 C          25.3745  -32.9250  -40.5251 C.2       7 UNK         0.5020 
     48 O          25.7199  -34.1066  -40.5316 O.2       7 UNK        -0.5147 
     49 N          24.9406  -32.2764  -41.6144 N.am      8 UNK        -0.4734 
     50 CA         24.6375  -32.8991  -42.9042 C.3       8 UNK         0.0238 
     51 CB         24.4008  -31.7890  -43.9415 C.3       8 UNK        -0.1912 
     52 C          23.4294  -33.8580  -42.8609 C.2       8 UNK         0.5038 
     53 O          23.3292  -34.7186  -43.7366 O.2       8 UNK        -0.5046 
     54 N          22.5478  -33.6959  -41.8654 N.am      9 UNK        -0.4200 
     55 CA         21.3573  -34.5208  -41.6233 C.3       9 UNK         0.0839 
     56 C          21.4209  -35.2002  -40.2284 C.2       9 UNK         0.5513 
     57 N          20.5303  -36.1476  -39.9657 N.am      9 UNK        -0.7519 
     58 O          22.2587  -34.8944  -39.3825 O.2       9 UNK        -0.4960 
     59 C59        20.0571  -33.6904  -41.8040 C.3       10 UNK        -0.0876 
     60 S60        19.7831  -33.2506  -43.5530 S.3       10 UNK        -0.2414 
     61 C61        20.2440  -31.4917  -43.5753 C.3       10 UNK         0.0169 
     62 H62        13.9949  -21.1342  -44.8756 H         1 UNK         0.0903 
     63 H63        13.0228  -22.4921  -44.3057 H         1 UNK         0.0903 
     64 H64        12.7450  -21.8237  -45.9149 H         1 UNK         0.0903 
     65 H65        14.1885  -24.4036  -44.3401 H         1 UNK         0.3096 
     66 H66        15.6517  -25.2777  -46.6732 H         1 UNK         0.1121 
     67 H67        14.2773  -26.7465  -45.0008 H         1 UNK         0.0849 
     68 H68        15.6461  -26.6346  -43.9304 H         1 UNK         0.0849 
     69 H69        14.8725  -29.2303  -44.2435 H         1 UNK         0.0865 
     70 H70        15.6914  -30.2746  -45.3708 H         1 UNK         0.0865 
     71 H71        18.0150  -30.9583  -45.0326 H         1 UNK         0.1346 
     72 H72        19.9189  -29.9876  -41.3180 H         1 UNK         0.1412 
     73 H73        16.1905  -28.1454  -42.3564 H         1 UNK         0.1426 
     74 H74        17.1667  -28.0380  -39.9928 H         1 UNK         0.0716 
     75 H75        18.8408  -28.4726  -39.7468 H         1 UNK         0.0716 
     76 H76        20.7775  -27.4067  -40.7499 H         1 UNK         0.0695 
     77 H77        20.9313  -25.7095  -41.0952 H         1 UNK         0.0695 
     78 H78        19.9792  -27.7467  -43.1774 H         1 UNK         0.0983 
     79 H79        19.9940  -24.9433  -43.3094 H         1 UNK         0.3095 
     80 H80        19.6290  -23.8144  -45.1852 H         1 UNK         0.0454 
     81 H81        19.8586  -23.5456  -47.6371 H         1 UNK         0.0851 
     82 H82        20.1428  -25.2735  -47.8360 H         1 UNK         0.0851 
     83 H83        21.3077  -24.2810  -46.9720 H         1 UNK         0.0851 
     84 H84        17.8642  -25.3767  -46.9562 H         1 UNK         0.2976 
     85 H85        22.6384  -25.7231  -43.9730 H         1 UNK         0.3116 
     86 H86        24.8344  -26.0203  -44.3012 H         1 UNK         0.0646 
     87 H87        24.0069  -27.6603  -45.9782 H         1 UNK         0.0847 
     88 H88        25.5471  -28.1792  -45.3120 H         1 UNK         0.0847 
     89 H89        24.0600  -28.9475  -44.7781 H         1 UNK         0.0847 
     90 H90        24.4138  -25.6699  -41.7838 H         1 UNK         0.3040 
     91 H91        25.1842  -25.7468  -39.7221 H         1 UNK         0.1015 
     92 H92        27.4697  -25.9553  -40.7586 H         1 UNK         0.0786 
     93 H93        27.3589  -27.7096  -40.6138 H         1 UNK         0.0786 
     94 H94        27.3670  -26.7048  -39.1757 H         1 UNK         0.0786 
     95 H95        23.3708  -27.9914  -40.8940 H         1 UNK         0.3172 
     96 H96        21.8886  -29.3677  -40.0916 H         1 UNK         0.0595 
     97 H97        21.7126  -27.9699  -38.0503 H         1 UNK         0.0839 
     98 H98        22.9875  -28.9093  -37.2732 H         1 UNK         0.0839 
     99 H99        21.4589  -29.6681  -37.6829 H         1 UNK         0.0839 
    100 H100       25.1462  -30.0374  -38.9787 H         1 UNK         0.2998 
    101 H101       24.9855  -32.7835  -38.4340 H         1 UNK         0.0822 
    102 H102       26.9187  -31.3382  -37.8321 H         1 UNK         0.0787 
    103 H103       27.4718  -32.7182  -38.7659 H         1 UNK         0.0787 
    104 H104       27.3350  -31.1420  -39.5348 H         1 UNK         0.0787 
    105 H105       24.7066  -31.2983  -41.5181 H         1 UNK         0.3055 
    106 H106       25.5068  -33.4847  -43.2112 H         1 UNK         0.1106 
    107 H107       25.2761  -31.1466  -44.0426 H         1 UNK         0.0828 
    108 H108       24.1922  -32.2098  -44.9261 H         1 UNK         0.0828 
    109 H109       23.5531  -31.1582  -43.6698 H         1 UNK         0.0828 
    110 H110       22.7361  -33.0063  -41.1436 H         1 UNK         0.2931 
    111 H111       21.3379  -35.3425  -42.3419 H         1 UNK         0.0412 
    112 H112       20.5536  -36.6042  -39.0669 H         1 UNK         0.3472 
    113 H113       19.8449  -36.4266  -40.6506 H         1 UNK         0.3472 
    114 H114       20.0790  -32.7925  -41.1833 H         1 UNK         0.0970 
    115 H115       19.1822  -34.2564  -41.4804 H         1 UNK         0.0970 
    116 H116       20.5803  -31.2321  -44.5800 H         1 UNK         0.0612 
    117 H117       21.0991  -31.3218  -42.9188 H         1 UNK         0.0612 
@<TRIPOS>BOND
     1    1    2 1    
     2    1   62 1    
     3    1   63 1    
     4    1   64 1    
     5    2    3 2    
     6    2    4 am   BACKBONE|DICT|INTERRES
     7    4    5 1    
     8    4   65 1    
     9    5    6 1    
    10    5   25 1    
    11    5   66 1    
    12    6    7 1    
    13    6   67 1    
    14    6   68 1    
    15    7    8 1    
    16    8    9 1    
    17    8   69 1    
    18    8   70 1    
    19    9   10 ar   
    20    9   14 ar   
    21   10   11 ar   
    22   10   71 1    
    23   11   12 ar   
    24   11   61 1    
    25   12   13 ar   
    26   12   72 1    
    27   13   14 ar   
    28   13   15 1    
    29   14   73 1    
    30   15   16 1    
    31   15   74 1    
    32   15   75 1    
    33   16   17 1    
    34   17   18 1    
    35   17   76 1    
    36   17   77 1    
    37   18   19 1    
    38   18   27 1    
    39   18   78 1    
    40   19   20 am   BACKBONE|DICT|INTERRES
    41   19   79 1    
    42   20   21 2    
    43   20   22 1    
    44   22   23 1    
    45   22   24 1    
    46   22   80 1    
    47   23   81 1    
    48   23   82 1    
    49   23   83 1    
    50   24   25 am   BACKBONE|DICT|INTERRES
    51   24   84 1    
    52   25   26 2    
    53   27   28 2    
    54   27   29 am   BACKBONE|DICT|INTERRES
    55   29   30 1    
    56   29   85 1    
    57   30   31 1    
    58   30   32 1    
    59   30   86 1    
    60   31   87 1    
    61   31   88 1    
    62   31   89 1    
    63   32   33 2    
    64   32   34 am   BACKBONE|DICT|INTERRES
    65   34   35 1    
    66   34   90 1    
    67   35   36 1    
    68   35   37 1    
    69   35   91 1    
    70   36   92 1    
    71   36   93 1    
    72   36   94 1    
    73   37   38 2    
    74   37   39 am   BACKBONE|DICT|INTERRES
    75   39   40 1    
    76   39   95 1    
    77   40   41 1    
    78   40   42 1    
    79   40   96 1    
    80   41   97 1    
    81   41   98 1    
    82   41   99 1    
    83   42   43 2    
    84   42   44 am   BACKBONE|DICT|INTERRES
    85   44   45 1    
    86   44  100 1    
    87   45   46 1    
    88   45   47 1    
    89   45  101 1    
    90   46  102 1    
    91   46  103 1    
    92   46  104 1    
    93   47   48 2    
    94   47   49 am   BACKBONE|DICT|INTERRES
    95   49   50 1    
    96   49  105 1    
    97   50   51 1    
    98   50   52 1    
    99   50  106 1    
   100   51  107 1    
   101   51  108 1    
   102   51  109 1    
   103   52   53 2    
   104   52   54 am   BACKBONE|DICT|INTERRES
   105   54   55 1    
   106   54  110 1    
   107   55   56 1    
   108   55   59 1    
   109   55  111 1    
   110   56   57 am   BACKBONE|DICT|INTERRES
   111   56   58 2    
   112   57  112 1    
   113   57  113 1    
   114   59   60 1    
   115   59  114 1    
   116   59  115 1    
   117   60   61 1    
   118   61  116 1    
   119   61  117 1    
@<TRIPOS>SUBSTRUCTURE
     1 UNK         1 GROUP             0       ****    0 ROOT    
