@<TRIPOS>MOLECULE
3R8
117   119    1
SMALL
USER_CHARGES


@<TRIPOS>ATOM
      1 CA         18.9090  -25.1146  -50.2689 C.3       0 UNK        -0.2013 
      2 C          19.6354  -25.4630  -48.9783 C.2       0 UNK         0.4866 
      3 O          20.6831  -24.8840  -48.6887 O.2       0 UNK        -0.5176 
      4 N          19.0932  -26.4114  -48.2052 N.am      1 UNK        -0.4884 
      5 CA         19.6040  -26.8240  -46.8947 C.3       1 UNK         0.0853 
      6 C6         19.0392  -28.2035  -46.4573 C.3       10 UNK        -0.0849 
      7 S7         17.2300  -28.3771  -46.6308 S.3       10 UNK        -0.2776 
      8 C8         16.9740  -30.0646  -45.9925 C.3       10 UNK         0.0316 
      9 C9         16.9440  -30.1062  -44.4705 C.ar      10 UNK        -0.0863 
     10 C10        17.9417  -30.7718  -43.7503 C.ar      10 UNK        -0.1009 
     11 C11        17.8811  -30.8430  -42.3533 C.ar      10 UNK        -0.0712 
     12 C12        16.8060  -30.2562  -41.6807 C.ar      10 UNK        -0.0894 
     13 C13        15.8458  -29.5227  -42.3858 C.ar      10 UNK        -0.0745 
     14 C14        15.9048  -29.4759  -43.7806 C.ar      10 UNK        -0.0972 
     15 C15        14.7895  -28.7183  -41.6410 C.3       10 UNK         0.0209 
     16 S16        15.5268  -27.5411  -40.4533 S.3       10 UNK        -0.2568 
     17 C17        16.6208  -26.4964  -41.4902 C.3       10 UNK        -0.0983 
     18 CA         18.0838  -27.0208  -41.5987 C.3       3 UNK         0.0876 
     19 N          18.8761  -26.3497  -42.6298 N.am      3 UNK        -0.4424 
     20 C          19.2910  -25.0760  -42.6362 C.2       2 UNK         0.4918 
     21 O          18.9691  -24.2374  -41.7948 O.2       2 UNK        -0.4875 
     22 CA         20.2642  -24.6712  -43.7610 C.3       2 UNK         0.0481 
     23 CB         21.6844  -24.5173  -43.1908 C.3       2 UNK        -0.1831 
     24 N          20.3084  -25.6213  -44.8795 N.am      2 UNK        -0.4498 
     25 C          19.3644  -25.7361  -45.8250 C.2       1 UNK         0.5027 
     26 O          18.3407  -25.0482  -45.8569 O.2       1 UNK        -0.4969 
     27 C          18.8666  -27.1002  -40.2692 C.2       3 UNK         0.5005 
     28 O          18.4609  -26.5208  -39.2592 O.2       3 UNK        -0.5279 
     29 N          20.0031  -27.8084  -40.3104 N.am      4 UNK        -0.4463 
     30 CA         20.8749  -28.0767  -39.1728 C.3       4 UNK         0.0283 
     31 CB         21.7280  -26.8356  -38.8467 C.3       4 UNK        -0.1875 
     32 C          21.7578  -29.2900  -39.4866 C.2       4 UNK         0.4949 
     33 O          21.9644  -29.6253  -40.6587 O.2       4 UNK        -0.5039 
     34 N          22.2791  -29.9155  -38.4255 N.am      5 UNK        -0.4663 
     35 CA         23.2845  -30.9748  -38.5041 C.3       5 UNK         0.0242 
     36 CB         23.3800  -31.6870  -37.1462 C.3       5 UNK        -0.1982 
     37 C          24.6504  -30.4009  -38.9132 C.2       5 UNK         0.5017 
     38 O          24.9547  -29.2536  -38.5779 O.2       5 UNK        -0.5012 
     39 N          25.4326  -31.1973  -39.6517 N.am      6 UNK        -0.4439 
     40 CA         26.7367  -30.9027  -40.2651 C.3       6 UNK         0.0297 
     41 CB         27.7870  -30.4688  -39.2238 C.3       6 UNK        -0.2006 
     42 C          26.6595  -29.9083  -41.4380 C.2       6 UNK         0.4892 
     43 O          27.3402  -30.1149  -42.4429 O.2       6 UNK        -0.5089 
     44 N          25.8179  -28.8743  -41.3113 N.am      7 UNK        -0.4243 
     45 CA         25.4919  -27.9133  -42.3655 C.3       7 UNK         0.0196 
     46 CB         24.7358  -26.7265  -41.7509 C.3       7 UNK        -0.2007 
     47 C          24.6652  -28.5366  -43.5033 C.2       7 UNK         0.5020 
     48 O          24.8062  -28.1071  -44.6485 O.2       7 UNK        -0.5147 
     49 N          23.8257  -29.5283  -43.1765 N.am      8 UNK        -0.4734 
     50 CA         23.0131  -30.2698  -44.1375 C.3       8 UNK         0.0238 
     51 CB         21.6301  -29.6125  -44.2901 C.3       8 UNK        -0.1912 
     52 C          22.9141  -31.7487  -43.7493 C.2       8 UNK         0.5038 
     53 O          23.3711  -32.5983  -44.5149 O.2       8 UNK        -0.5046 
     54 N          22.3148  -32.0349  -42.5861 N.am      9 UNK        -0.4200 
     55 CA         22.0903  -33.4082  -42.1022 C.3       9 UNK         0.0839 
     56 C          23.3692  -34.0314  -41.4850 C.2       9 UNK         0.5513 
     57 N          23.5421  -35.3397  -41.6057 N.am      9 UNK        -0.7519 
     58 O          24.1801  -33.3523  -40.8609 O.2       9 UNK        -0.4960 
     59 C59        20.8952  -33.4860  -41.1173 C.3       10 UNK        -0.0876 
     60 S60        19.3027  -33.2048  -41.9634 S.3       10 UNK        -0.2414 
     61 C61        19.0233  -31.4581  -41.5595 C.3       10 UNK         0.0169 
     62 H62        18.6223  -24.0633  -50.2655 H         1 UNK         0.0903 
     63 H63        19.5605  -25.2878  -51.1251 H         1 UNK         0.0903 
     64 H64        18.0070  -25.7115  -50.4029 H         1 UNK         0.0903 
     65 H65        18.2118  -26.8320  -48.4664 H         1 UNK         0.3096 
     66 H66        20.6861  -26.9365  -46.9991 H         1 UNK         0.1121 
     67 H67        19.5047  -28.9845  -47.0608 H         1 UNK         0.0849 
     68 H68        19.3092  -28.4282  -45.4251 H         1 UNK         0.0849 
     69 H69        16.0222  -30.4399  -46.3711 H         1 UNK         0.0865 
     70 H70        17.7409  -30.7308  -46.3910 H         1 UNK         0.0865 
     71 H71        18.7690  -31.2331  -44.2719 H         1 UNK         0.1346 
     72 H72        16.7646  -30.2852  -40.6002 H         1 UNK         0.1412 
     73 H73        15.1567  -28.9250  -44.3349 H         1 UNK         0.1426 
     74 H74        14.1347  -29.4039  -41.1018 H         1 UNK         0.0716 
     75 H75        14.1554  -28.1651  -42.3357 H         1 UNK         0.0716 
     76 H76        16.6107  -25.4847  -41.0819 H         1 UNK         0.0695 
     77 H77        16.1801  -26.4216  -42.4856 H         1 UNK         0.0695 
     78 H78        18.0328  -28.0404  -41.9617 H         1 UNK         0.0983 
     79 H79        19.1943  -26.9378  -43.3838 H         1 UNK         0.3095 
     80 H80        19.9421  -23.7002  -44.1431 H         1 UNK         0.0454 
     81 H81        22.0592  -25.4567  -42.7828 H         1 UNK         0.0851 
     82 H82        21.7046  -23.7832  -42.3840 H         1 UNK         0.0851 
     83 H83        22.3859  -24.1759  -43.9522 H         1 UNK         0.0851 
     84 H84        21.1345  -26.1994  -44.9393 H         1 UNK         0.2976 
     85 H85        20.2921  -28.2709  -41.1628 H         1 UNK         0.3116 
     86 H86        20.2567  -28.3282  -38.3082 H         1 UNK         0.0646 
     87 H87        22.2693  -26.4769  -39.7209 H         1 UNK         0.0847 
     88 H88        22.4643  -27.0495  -38.0708 H         1 UNK         0.0847 
     89 H89        21.1097  -26.0147  -38.4837 H         1 UNK         0.0847 
     90 H90        22.0860  -29.5498  -37.5042 H         1 UNK         0.3040 
     91 H91        22.9609  -31.6959  -39.2557 H         1 UNK         0.1015 
     92 H92        22.4205  -32.1138  -36.8532 H         1 UNK         0.0786 
     93 H93        23.7026  -31.0084  -36.3553 H         1 UNK         0.0786 
     94 H94        24.0989  -32.5067  -37.1859 H         1 UNK         0.0786 
     95 H95        25.0356  -32.0921  -39.9434 H         1 UNK         0.3172 
     96 H96        27.0721  -31.8518  -40.6865 H         1 UNK         0.0595 
     97 H97        27.5559  -29.4981  -38.7844 H         1 UNK         0.0839 
     98 H98        28.7731  -30.3858  -39.6824 H         1 UNK         0.0839 
     99 H99        27.8663  -31.1940  -38.4141 H         1 UNK         0.0839 
    100 H100       25.3421  -28.7709  -40.4199 H         1 UNK         0.2998 
    101 H101       26.4281  -27.5463  -42.7916 H         1 UNK         0.0822 
    102 H102       25.3027  -26.2652  -40.9421 H         1 UNK         0.0787 
    103 H103       24.5503  -25.9545  -42.4990 H         1 UNK         0.0787 
    104 H104       23.7698  -27.0370  -41.3536 H         1 UNK         0.0787 
    105 H105       23.7507  -29.8055  -42.2064 H         1 UNK         0.3055 
    106 H106       23.5018  -30.2465  -45.1149 H         1 UNK         0.1106 
    107 H107       20.9899  -30.2040  -44.9456 H         1 UNK         0.0828 
    108 H108       21.1187  -29.5052  -43.3343 H         1 UNK         0.0828 
    109 H109       21.7217  -28.6208  -44.7315 H         1 UNK         0.0828 
    110 H110       22.0178  -31.2803  -41.9797 H         1 UNK         0.2931 
    111 H111       21.8310  -34.0216  -42.9684 H         1 UNK         0.0412 
    112 H112       22.8792  -35.9106  -42.1073 H         1 UNK         0.3472 
    113 H113       24.3597  -35.7645  -41.1965 H         1 UNK         0.3472 
    114 H114       20.8376  -34.4765  -40.6614 H         1 UNK         0.0970 
    115 H115       21.0169  -32.7838  -40.2909 H         1 UNK         0.0970 
    116 H116       19.9257  -30.8894  -41.7735 H         1 UNK         0.0612 
    117 H117       18.8496  -31.3682  -40.4860 H         1 UNK         0.0612 
@<TRIPOS>BOND
     1    1    2 1    
     2    1   62 1    
     3    1   63 1    
     4    1   64 1    
     5    2    3 2    
     6    2    4 am   BACKBONE|DICT|INTERRES
     7    4    5 1    
     8    4   65 1    
     9    5    6 1    
    10    5   25 1    
    11    5   66 1    
    12    6    7 1    
    13    6   67 1    
    14    6   68 1    
    15    7    8 1    
    16    8    9 1    
    17    8   69 1    
    18    8   70 1    
    19    9   10 ar   
    20    9   14 ar   
    21   10   11 ar   
    22   10   71 1    
    23   11   12 ar   
    24   11   61 1    
    25   12   13 ar   
    26   12   72 1    
    27   13   14 ar   
    28   13   15 1    
    29   14   73 1    
    30   15   16 1    
    31   15   74 1    
    32   15   75 1    
    33   16   17 1    
    34   17   18 1    
    35   17   76 1    
    36   17   77 1    
    37   18   19 1    
    38   18   27 1    
    39   18   78 1    
    40   19   20 am   BACKBONE|DICT|INTERRES
    41   19   79 1    
    42   20   21 2    
    43   20   22 1    
    44   22   23 1    
    45   22   24 1    
    46   22   80 1    
    47   23   81 1    
    48   23   82 1    
    49   23   83 1    
    50   24   25 am   BACKBONE|DICT|INTERRES
    51   24   84 1    
    52   25   26 2    
    53   27   28 2    
    54   27   29 am   BACKBONE|DICT|INTERRES
    55   29   30 1    
    56   29   85 1    
    57   30   31 1    
    58   30   32 1    
    59   30   86 1    
    60   31   87 1    
    61   31   88 1    
    62   31   89 1    
    63   32   33 2    
    64   32   34 am   BACKBONE|DICT|INTERRES
    65   34   35 1    
    66   34   90 1    
    67   35   36 1    
    68   35   37 1    
    69   35   91 1    
    70   36   92 1    
    71   36   93 1    
    72   36   94 1    
    73   37   38 2    
    74   37   39 am   BACKBONE|DICT|INTERRES
    75   39   40 1    
    76   39   95 1    
    77   40   41 1    
    78   40   42 1    
    79   40   96 1    
    80   41   97 1    
    81   41   98 1    
    82   41   99 1    
    83   42   43 2    
    84   42   44 am   BACKBONE|DICT|INTERRES
    85   44   45 1    
    86   44  100 1    
    87   45   46 1    
    88   45   47 1    
    89   45  101 1    
    90   46  102 1    
    91   46  103 1    
    92   46  104 1    
    93   47   48 2    
    94   47   49 am   BACKBONE|DICT|INTERRES
    95   49   50 1    
    96   49  105 1    
    97   50   51 1    
    98   50   52 1    
    99   50  106 1    
   100   51  107 1    
   101   51  108 1    
   102   51  109 1    
   103   52   53 2    
   104   52   54 am   BACKBONE|DICT|INTERRES
   105   54   55 1    
   106   54  110 1    
   107   55   56 1    
   108   55   59 1    
   109   55  111 1    
   110   56   57 am   BACKBONE|DICT|INTERRES
   111   56   58 2    
   112   57  112 1    
   113   57  113 1    
   114   59   60 1    
   115   59  114 1    
   116   59  115 1    
   117   60   61 1    
   118   61  116 1    
   119   61  117 1    
@<TRIPOS>SUBSTRUCTURE
     1 UNK         1 GROUP             0       ****    0 ROOT    
