@<TRIPOS>MOLECULE
3R8
117   119    1
SMALL
USER_CHARGES


@<TRIPOS>ATOM
      1 CA         20.7263  -25.9771  -48.8224 C.3       0 UNK        -0.2013 
      2 C          20.2128  -26.4745  -47.4801 C.2       0 UNK         0.4866 
      3 O          21.0084  -26.8567  -46.6216 O.2       0 UNK        -0.5176 
      4 N          18.8891  -26.4572  -47.2792 N.am      1 UNK        -0.4884 
      5 CA         18.1939  -26.9347  -46.0738 C.3       1 UNK         0.0853 
      6 C6         16.7433  -27.3822  -46.3936 C.3       10 UNK        -0.0849 
      7 S7         16.7305  -28.8301  -47.5065 S.3       10 UNK        -0.2776 
      8 C8         16.3353  -30.1937  -46.3593 C.3       10 UNK         0.0316 
      9 C9         17.2649  -30.2393  -45.1520 C.ar      10 UNK        -0.0863 
     10 C10        18.6185  -30.5512  -45.3090 C.ar      10 UNK        -0.1009 
     11 C11        19.4730  -30.5894  -44.2018 C.ar      10 UNK        -0.0712 
     12 C12        18.9632  -30.3094  -42.9294 C.ar      10 UNK        -0.0894 
     13 C13        17.6111  -29.9986  -42.7592 C.ar      10 UNK        -0.0745 
     14 C14        16.7679  -29.9686  -43.8736 C.ar      10 UNK        -0.0972 
     15 C15        17.0451  -29.7144  -41.3752 C.3       10 UNK         0.0209 
     16 S16        16.7024  -27.9393  -41.1527 S.3       10 UNK        -0.2568 
     17 C17        17.9473  -27.4438  -39.9132 C.3       10 UNK        -0.0983 
     18 CA         19.3161  -27.0626  -40.5274 C.3       3 UNK         0.0876 
     19 N          19.1896  -26.0669  -41.5976 N.am      3 UNK        -0.4424 
     20 C          20.2034  -25.5752  -42.3190 C.2       2 UNK         0.4918 
     21 O          21.3808  -25.8971  -42.1549 O.2       2 UNK        -0.4875 
     22 CA         19.8259  -24.6262  -43.4629 C.3       2 UNK         0.0481 
     23 CB         20.9776  -23.6780  -43.8414 C.3       2 UNK        -0.1831 
     24 N          19.4858  -25.4438  -44.6208 N.am      2 UNK        -0.4498 
     25 C          18.2701  -25.9202  -44.9103 C.2       1 UNK         0.5027 
     26 O          17.2528  -25.5922  -44.2966 O.2       1 UNK        -0.4969 
     27 C          20.2913  -26.5979  -39.4237 C.2       3 UNK         0.5005 
     28 O          20.2704  -25.4233  -39.0483 O.2       3 UNK        -0.5279 
     29 N          21.1448  -27.5192  -38.9558 N.am      4 UNK        -0.4463 
     30 CA         22.2352  -27.3493  -37.9814 C.3       4 UNK         0.0283 
     31 CB         21.7323  -26.7788  -36.6399 C.3       4 UNK        -0.1875 
     32 C          23.4584  -26.5667  -38.5017 C.2       4 UNK         0.4949 
     33 O          24.5615  -26.8136  -38.0132 O.2       4 UNK        -0.5039 
     34 N          23.2750  -25.6687  -39.4801 N.am      5 UNK        -0.4663 
     35 CA         24.3655  -25.0294  -40.2226 C.3       5 UNK         0.0242 
     36 CB         23.8659  -23.7354  -40.8852 C.3       5 UNK        -0.1982 
     37 C          24.9555  -26.0011  -41.2579 C.2       5 UNK         0.5017 
     38 O          26.1756  -26.1574  -41.3229 O.2       5 UNK        -0.5012 
     39 N          24.0712  -26.6666  -42.0130 N.am      6 UNK        -0.4439 
     40 CA         24.3772  -27.8270  -42.8476 C.3       6 UNK         0.0297 
     41 CB         23.2191  -28.0470  -43.8338 C.3       6 UNK        -0.2006 
     42 C          24.5938  -29.0790  -41.9796 C.2       6 UNK         0.4892 
     43 O          24.1249  -29.1293  -40.8386 O.2       6 UNK        -0.5089 
     44 N          25.2799  -30.0802  -42.5458 N.am      7 UNK        -0.4243 
     45 CA         25.7099  -31.3219  -41.8891 C.3       7 UNK         0.0196 
     46 CB         26.8299  -31.9594  -42.7337 C.3       7 UNK        -0.2007 
     47 C          24.5691  -32.3167  -41.5763 C.2       7 UNK         0.5020 
     48 O          24.6573  -33.4894  -41.9447 O.2       7 UNK        -0.5147 
     49 N          23.5264  -31.8338  -40.8892 N.am      8 UNK        -0.4734 
     50 CA         22.3552  -32.5232  -40.3244 C.3       8 UNK         0.0238 
     51 CB         22.7832  -33.5383  -39.2470 C.3       8 UNK        -0.1912 
     52 C          21.3952  -33.1795  -41.3336 C.2       8 UNK         0.5038 
     53 O          20.1839  -33.0883  -41.1354 O.2       8 UNK        -0.5046 
     54 N          21.9366  -33.8288  -42.3707 N.am      9 UNK        -0.4200 
     55 CA         21.2194  -34.5972  -43.4036 C.3       9 UNK         0.0839 
     56 C          20.4913  -35.8702  -42.8690 C.2       9 UNK         0.5513 
     57 N          20.8547  -36.3987  -41.7061 N.am      9 UNK        -0.7519 
     58 O          19.6078  -36.4124  -43.5285 O.2       9 UNK        -0.4960 
     59 C59        20.3076  -33.7087  -44.2971 C.3       10 UNK        -0.0876 
     60 S60        21.2492  -32.4819  -45.2696 S.3       10 UNK        -0.2414 
     61 C61        20.9502  -30.9226  -44.3726 C.3       10 UNK         0.0169 
     62 H62        19.9147  -25.6692  -49.4813 H         1 UNK         0.0903 
     63 H63        21.3889  -25.1243  -48.6776 H         1 UNK         0.0903 
     64 H64        21.2888  -26.7650  -49.3226 H         1 UNK         0.0903 
     65 H65        18.2860  -26.1157  -48.0142 H         1 UNK         0.3096 
     66 H66        18.7295  -27.8126  -45.7078 H         1 UNK         0.1121 
     67 H67        16.1857  -26.5701  -46.8632 H         1 UNK         0.0849 
     68 H68        16.1942  -27.6332  -45.4843 H         1 UNK         0.0849 
     69 H69        15.2952  -30.0977  -46.0437 H         1 UNK         0.0865 
     70 H70        16.4019  -31.1399  -46.8981 H         1 UNK         0.0865 
     71 H71        19.0086  -30.7593  -46.2961 H         1 UNK         0.1346 
     72 H72        19.6169  -30.3453  -42.0691 H         1 UNK         0.1412 
     73 H73        15.7221  -29.7265  -43.7406 H         1 UNK         0.1426 
     74 H74        17.7200  -30.0789  -40.5996 H         1 UNK         0.0716 
     75 H75        16.1141  -30.2686  -41.2479 H         1 UNK         0.0716 
     76 H76        18.0599  -28.2448  -39.1802 H         1 UNK         0.0695 
     77 H77        17.5337  -26.5949  -39.3647 H         1 UNK         0.0695 
     78 H78        19.7360  -27.9551  -40.9953 H         1 UNK         0.0983 
     79 H79        18.2468  -25.7865  -41.8289 H         1 UNK         0.3095 
     80 H80        18.9707  -24.0201  -43.1565 H         1 UNK         0.0454 
     81 H81        21.8705  -24.2214  -44.1539 H         1 UNK         0.0851 
     82 H82        21.2548  -23.0485  -42.9954 H         1 UNK         0.0851 
     83 H83        20.6901  -23.0144  -44.6568 H         1 UNK         0.0851 
     84 H84        20.2621  -25.8077  -45.1673 H         1 UNK         0.2976 
     85 H85        21.0976  -28.4450  -39.3584 H         1 UNK         0.3116 
     86 H86        22.5937  -28.3610  -37.7837 H         1 UNK         0.0646 
     87 H87        21.4129  -25.7403  -36.7288 H         1 UNK         0.0847 
     88 H88        22.5229  -26.8057  -35.8889 H         1 UNK         0.0847 
     89 H89        20.8953  -27.3572  -36.2493 H         1 UNK         0.0847 
     90 H90        22.3295  -25.4999  -39.8019 H         1 UNK         0.3040 
     91 H91        25.1605  -24.7634  -39.5219 H         1 UNK         0.1015 
     92 H92        23.0725  -23.9263  -41.6064 H         1 UNK         0.0786 
     93 H93        24.6755  -23.2349  -41.4178 H         1 UNK         0.0786 
     94 H94        23.4826  -23.0340  -40.1441 H         1 UNK         0.0786 
     95 H95        23.0833  -26.4420  -41.9085 H         1 UNK         0.3172 
     96 H96        25.2902  -27.6227  -43.4107 H         1 UNK         0.0595 
     97 H97        22.2916  -28.2992  -43.3176 H         1 UNK         0.0839 
     98 H98        23.4429  -28.8581  -44.5271 H         1 UNK         0.0839 
     99 H99        23.0309  -27.1557  -44.4332 H         1 UNK         0.0839 
    100 H100       25.5815  -29.9648  -43.5028 H         1 UNK         0.2998 
    101 H101       26.1460  -31.0494  -40.9255 H         1 UNK         0.0822 
    102 H102       27.6633  -31.2709  -42.8752 H         1 UNK         0.0787 
    103 H103       27.2312  -32.8496  -42.2470 H         1 UNK         0.0787 
    104 H104       26.4700  -32.2602  -43.7185 H         1 UNK         0.0787 
    105 H105       23.5721  -30.8335  -40.6941 H         1 UNK         0.3055 
    106 H106       21.7769  -31.7449  -39.8233 H         1 UNK         0.1106 
    107 H107       21.9132  -33.9942  -38.7720 H         1 UNK         0.0828 
    108 H108       23.3861  -34.3461  -39.6629 H         1 UNK         0.0828 
    109 H109       23.3651  -33.0583  -38.4602 H         1 UNK         0.0828 
    110 H110       22.9532  -33.8524  -42.4163 H         1 UNK         0.2931 
    111 H111       22.0026  -34.9963  -44.0490 H         1 UNK         0.0412 
    112 H112       20.3880  -37.2279  -41.3729 H         1 UNK         0.3472 
    113 H113       21.5917  -35.9797  -41.1626 H         1 UNK         0.3472 
    114 H114       19.7724  -34.3215  -45.0242 H         1 UNK         0.0970 
    115 H115       19.5335  -33.2246  -43.7016 H         1 UNK         0.0970 
    116 H116       21.4578  -30.9686  -43.4082 H         1 UNK         0.0612 
    117 H117       21.4196  -30.1135  -44.9320 H         1 UNK         0.0612 
@<TRIPOS>BOND
     1    1    2 1    
     2    1   62 1    
     3    1   63 1    
     4    1   64 1    
     5    2    3 2    
     6    2    4 am   BACKBONE|DICT|INTERRES
     7    4    5 1    
     8    4   65 1    
     9    5    6 1    
    10    5   25 1    
    11    5   66 1    
    12    6    7 1    
    13    6   67 1    
    14    6   68 1    
    15    7    8 1    
    16    8    9 1    
    17    8   69 1    
    18    8   70 1    
    19    9   10 ar   
    20    9   14 ar   
    21   10   11 ar   
    22   10   71 1    
    23   11   12 ar   
    24   11   61 1    
    25   12   13 ar   
    26   12   72 1    
    27   13   14 ar   
    28   13   15 1    
    29   14   73 1    
    30   15   16 1    
    31   15   74 1    
    32   15   75 1    
    33   16   17 1    
    34   17   18 1    
    35   17   76 1    
    36   17   77 1    
    37   18   19 1    
    38   18   27 1    
    39   18   78 1    
    40   19   20 am   BACKBONE|DICT|INTERRES
    41   19   79 1    
    42   20   21 2    
    43   20   22 1    
    44   22   23 1    
    45   22   24 1    
    46   22   80 1    
    47   23   81 1    
    48   23   82 1    
    49   23   83 1    
    50   24   25 am   BACKBONE|DICT|INTERRES
    51   24   84 1    
    52   25   26 2    
    53   27   28 2    
    54   27   29 am   BACKBONE|DICT|INTERRES
    55   29   30 1    
    56   29   85 1    
    57   30   31 1    
    58   30   32 1    
    59   30   86 1    
    60   31   87 1    
    61   31   88 1    
    62   31   89 1    
    63   32   33 2    
    64   32   34 am   BACKBONE|DICT|INTERRES
    65   34   35 1    
    66   34   90 1    
    67   35   36 1    
    68   35   37 1    
    69   35   91 1    
    70   36   92 1    
    71   36   93 1    
    72   36   94 1    
    73   37   38 2    
    74   37   39 am   BACKBONE|DICT|INTERRES
    75   39   40 1    
    76   39   95 1    
    77   40   41 1    
    78   40   42 1    
    79   40   96 1    
    80   41   97 1    
    81   41   98 1    
    82   41   99 1    
    83   42   43 2    
    84   42   44 am   BACKBONE|DICT|INTERRES
    85   44   45 1    
    86   44  100 1    
    87   45   46 1    
    88   45   47 1    
    89   45  101 1    
    90   46  102 1    
    91   46  103 1    
    92   46  104 1    
    93   47   48 2    
    94   47   49 am   BACKBONE|DICT|INTERRES
    95   49   50 1    
    96   49  105 1    
    97   50   51 1    
    98   50   52 1    
    99   50  106 1    
   100   51  107 1    
   101   51  108 1    
   102   51  109 1    
   103   52   53 2    
   104   52   54 am   BACKBONE|DICT|INTERRES
   105   54   55 1    
   106   54  110 1    
   107   55   56 1    
   108   55   59 1    
   109   55  111 1    
   110   56   57 am   BACKBONE|DICT|INTERRES
   111   56   58 2    
   112   57  112 1    
   113   57  113 1    
   114   59   60 1    
   115   59  114 1    
   116   59  115 1    
   117   60   61 1    
   118   61  116 1    
   119   61  117 1    
@<TRIPOS>SUBSTRUCTURE
     1 UNK         1 GROUP             0       ****    0 ROOT    
