@<TRIPOS>MOLECULE
3R8
117   119    1
SMALL
USER_CHARGES


@<TRIPOS>ATOM
      1 CA         18.3929  -27.8025  -42.2036 C.3       0 UNK        -0.2013 
      2 C          17.2643  -27.1227  -42.9589 C.2       0 UNK         0.4866 
      3 O          16.6257  -26.2229  -42.4139 O.2       0 UNK        -0.5176 
      4 N          17.0127  -27.5413  -44.2073 N.am      1 UNK        -0.4884 
      5 CA         15.9550  -27.0013  -45.0768 C.3       1 UNK         0.0853 
      6 C6         15.7706  -27.8398  -46.3641 C.3       10 UNK        -0.0849 
      7 S7         15.3585  -29.5808  -46.0079 S.3       10 UNK        -0.2776 
      8 C8         16.7674  -30.4627  -46.7528 C.3       10 UNK         0.0316 
      9 C9         18.0333  -30.3632  -45.9112 C.ar      10 UNK        -0.0863 
     10 C10        18.1563  -31.1267  -44.7465 C.ar      10 UNK        -0.1009 
     11 C11        19.3415  -31.1109  -44.0055 C.ar      10 UNK        -0.0712 
     12 C12        20.4024  -30.3035  -44.4258 C.ar      10 UNK        -0.0894 
     13 C13        20.2982  -29.5413  -45.5937 C.ar      10 UNK        -0.0745 
     14 C14        19.1077  -29.5706  -46.3290 C.ar      10 UNK        -0.0972 
     15 C15        21.5022  -28.7635  -46.1123 C.3       10 UNK         0.0209 
     16 S16        21.2164  -26.9693  -46.1796 S.3       10 UNK        -0.2568 
     17 C17        21.4710  -26.4920  -44.4392 C.3       10 UNK        -0.0983 
     18 CA         21.2284  -24.9772  -44.2001 C.3       3 UNK         0.0876 
     19 N          19.8618  -24.5927  -44.5449 N.am      3 UNK        -0.4424 
     20 C          19.4964  -23.8721  -45.6118 C.2       2 UNK         0.4918 
     21 O          20.2895  -23.3173  -46.3741 O.2       2 UNK        -0.4875 
     22 CA         17.9878  -23.8392  -45.9052 C.3       2 UNK         0.0481 
     23 CB         17.6542  -23.3358  -47.3243 C.3       2 UNK        -0.1831 
     24 N          17.4615  -25.1871  -45.6997 N.am      2 UNK        -0.4498 
     25 C          16.1945  -25.5199  -45.4341 C.2       1 UNK         0.5027 
     26 O          15.2541  -24.7242  -45.4341 O.2       1 UNK        -0.4969 
     27 C          21.4571  -24.6300  -42.7228 C.2       3 UNK         0.5005 
     28 O          20.5295  -24.7641  -41.9198 O.2       3 UNK        -0.5279 
     29 N          22.6859  -24.2198  -42.3811 N.am      4 UNK        -0.4463 
     30 CA         23.1022  -23.9597  -40.9992 C.3       4 UNK         0.0283 
     31 CB         24.3900  -23.1196  -40.9947 C.3       4 UNK        -0.1875 
     32 C          23.3004  -25.2584  -40.1989 C.2       4 UNK         0.4949 
     33 O          22.9426  -25.3060  -39.0221 O.2       4 UNK        -0.5039 
     34 N          23.8530  -26.2829  -40.8586 N.am      5 UNK        -0.4663 
     35 CA         24.1121  -27.6211  -40.3367 C.3       5 UNK         0.0242 
     36 CB         25.2450  -27.5875  -39.2894 C.3       5 UNK        -0.1982 
     37 C          24.4884  -28.5355  -41.5105 C.2       5 UNK         0.5017 
     38 O          24.7820  -28.0415  -42.6033 O.2       5 UNK        -0.5012 
     39 N          24.4979  -29.8445  -41.2516 N.am      6 UNK        -0.4439 
     40 CA         24.9662  -30.9013  -42.1442 C.3       6 UNK         0.0297 
     41 CB         23.8968  -31.2266  -43.2074 C.3       6 UNK        -0.2006 
     42 C          25.3775  -32.1066  -41.2819 C.2       6 UNK         0.4892 
     43 O          25.7703  -31.9174  -40.1285 O.2       6 UNK        -0.5089 
     44 N          25.2920  -33.3219  -41.8400 N.am      7 UNK        -0.4243 
     45 CA         25.5486  -34.5717  -41.1187 C.3       7 UNK         0.0196 
     46 CB         25.7153  -35.7262  -42.1210 C.3       7 UNK        -0.2007 
     47 C          24.4445  -34.8879  -40.0949 C.2       7 UNK         0.5020 
     48 O          24.7554  -35.2342  -38.9551 O.2       7 UNK        -0.5147 
     49 N          23.1806  -34.7625  -40.5227 N.am      8 UNK        -0.4734 
     50 CA         22.0015  -35.0012  -39.6854 C.3       8 UNK         0.0238 
     51 CB         20.8861  -35.6315  -40.5376 C.3       8 UNK        -0.1912 
     52 C          21.5030  -33.7130  -39.0139 C.2       8 UNK         0.5038 
     53 O          21.2054  -33.7295  -37.8189 O.2       8 UNK        -0.5046 
     54 N          21.3999  -32.6346  -39.7999 N.am      9 UNK        -0.4200 
     55 CA         20.9047  -31.3218  -39.3636 C.3       9 UNK         0.0839 
     56 C          21.9725  -30.5322  -38.5647 C.2       9 UNK         0.5513 
     57 N          21.5565  -29.7425  -37.5855 N.am      9 UNK        -0.7519 
     58 O          23.1631  -30.5852  -38.8590 O.2       9 UNK        -0.4960 
     59 C59        20.3710  -30.4935  -40.5620 C.3       10 UNK        -0.0876 
     60 S60        18.8674  -31.2503  -41.2711 S.3       10 UNK        -0.2414 
     61 C61        19.4904  -32.0212  -42.7946 C.3       10 UNK         0.0169 
     62 H62        19.1064  -27.0639  -41.8408 H         1 UNK         0.0903 
     63 H63        17.9919  -28.3370  -41.3434 H         1 UNK         0.0903 
     64 H64        18.9285  -28.5138  -42.8288 H         1 UNK         0.0903 
     65 H65        17.5344  -28.3203  -44.5886 H         1 UNK         0.3096 
     66 H66        15.0208  -27.0410  -44.5117 H         1 UNK         0.1121 
     67 H67        14.9592  -27.4303  -46.9694 H         1 UNK         0.0849 
     68 H68        16.6645  -27.7905  -46.9884 H         1 UNK         0.0849 
     69 H69        16.4984  -31.5144  -46.8626 H         1 UNK         0.0865 
     70 H70        16.9392  -30.0939  -47.7653 H         1 UNK         0.0865 
     71 H71        17.3359  -31.7576  -44.4317 H         1 UNK         0.1346 
     72 H72        21.3213  -30.2955  -43.8612 H         1 UNK         0.1412 
     73 H73        19.0350  -29.0002  -47.2453 H         1 UNK         0.1426 
     74 H74        21.7323  -29.1136  -47.1195 H         1 UNK         0.0716 
     75 H75        22.3916  -28.9639  -45.5130 H         1 UNK         0.0716 
     76 H76        22.4905  -26.7655  -44.1592 H         1 UNK         0.0695 
     77 H77        20.8081  -27.0961  -43.8175 H         1 UNK         0.0695 
     78 H78        21.9402  -24.4047  -44.7993 H         1 UNK         0.0983 
     79 H79        19.1552  -24.9102  -43.8958 H         1 UNK         0.3095 
     80 H80        17.5333  -23.1659  -45.1758 H         1 UNK         0.0454 
     81 H81        18.0359  -22.3263  -47.4813 H         1 UNK         0.0851 
     82 H82        16.5783  -23.3012  -47.4946 H         1 UNK         0.0851 
     83 H83        18.0944  -23.9757  -48.0897 H         1 UNK         0.0851 
     84 H84        18.1579  -25.9208  -45.6784 H         1 UNK         0.2976 
     85 H85        23.3926  -24.1244  -43.0971 H         1 UNK         0.3116 
     86 H86        22.3199  -23.3789  -40.5050 H         1 UNK         0.0646 
     87 H87        24.7057  -22.8987  -39.9740 H         1 UNK         0.0847 
     88 H88        24.2435  -22.1647  -41.4997 H         1 UNK         0.0847 
     89 H89        25.2160  -23.6367  -41.4847 H         1 UNK         0.0847 
     90 H90        24.1036  -26.1765  -41.8343 H         1 UNK         0.3040 
     91 H91        23.1951  -27.9989  -39.8804 H         1 UNK         0.1015 
     92 H92        25.4597  -28.5874  -38.9095 H         1 UNK         0.0786 
     93 H93        24.9814  -26.9741  -38.4281 H         1 UNK         0.0786 
     94 H94        26.1697  -27.1921  -39.7115 H         1 UNK         0.0786 
     95 H95        24.2658  -30.1633  -40.3096 H         1 UNK         0.3172 
     96 H96        25.8696  -30.5539  -42.6495 H         1 UNK         0.0595 
     97 H97        24.2606  -31.9492  -43.9383 H         1 UNK         0.0839 
     98 H98        23.6258  -30.3338  -43.7697 H         1 UNK         0.0839 
     99 H99        22.9916  -31.6322  -42.7562 H         1 UNK         0.0839 
    100 H100       24.9918  -33.3979  -42.8009 H         1 UNK         0.2998 
    101 H101       26.4878  -34.4639  -40.5710 H         1 UNK         0.0822 
    102 H102       26.5514  -35.5458  -42.7969 H         1 UNK         0.0787 
    103 H103       25.9173  -36.6647  -41.6025 H         1 UNK         0.0787 
    104 H104       24.8204  -35.8752  -42.7265 H         1 UNK         0.0787 
    105 H105       23.0229  -34.4965  -41.4831 H         1 UNK         0.3055 
    106 H106       22.2520  -35.7094  -38.8916 H         1 UNK         0.1106 
    107 H107       21.2032  -36.5852  -40.9601 H         1 UNK         0.0828 
    108 H108       19.9986  -35.8266  -39.9339 H         1 UNK         0.0828 
    109 H109       20.5822  -34.9849  -41.3616 H         1 UNK         0.0828 
    110 H110       21.7015  -32.7027  -40.7568 H         1 UNK         0.2931 
    111 H111       20.0647  -31.4981  -38.6875 H         1 UNK         0.0412 
    112 H112       20.5801  -29.6824  -37.3412 H         1 UNK         0.3472 
    113 H113       22.2355  -29.2094  -37.0652 H         1 UNK         0.3472 
    114 H114       20.0994  -29.4873  -40.2372 H         1 UNK         0.0970 
    115 H115       21.1369  -30.3631  -41.3281 H         1 UNK         0.0970 
    116 H116       20.5293  -32.3267  -42.6683 H         1 UNK         0.0612 
    117 H117       18.9303  -32.9421  -42.9640 H         1 UNK         0.0612 
@<TRIPOS>BOND
     1    1    2 1    
     2    1   62 1    
     3    1   63 1    
     4    1   64 1    
     5    2    3 2    
     6    2    4 am   BACKBONE|DICT|INTERRES
     7    4    5 1    
     8    4   65 1    
     9    5    6 1    
    10    5   25 1    
    11    5   66 1    
    12    6    7 1    
    13    6   67 1    
    14    6   68 1    
    15    7    8 1    
    16    8    9 1    
    17    8   69 1    
    18    8   70 1    
    19    9   10 ar   
    20    9   14 ar   
    21   10   11 ar   
    22   10   71 1    
    23   11   12 ar   
    24   11   61 1    
    25   12   13 ar   
    26   12   72 1    
    27   13   14 ar   
    28   13   15 1    
    29   14   73 1    
    30   15   16 1    
    31   15   74 1    
    32   15   75 1    
    33   16   17 1    
    34   17   18 1    
    35   17   76 1    
    36   17   77 1    
    37   18   19 1    
    38   18   27 1    
    39   18   78 1    
    40   19   20 am   BACKBONE|DICT|INTERRES
    41   19   79 1    
    42   20   21 2    
    43   20   22 1    
    44   22   23 1    
    45   22   24 1    
    46   22   80 1    
    47   23   81 1    
    48   23   82 1    
    49   23   83 1    
    50   24   25 am   BACKBONE|DICT|INTERRES
    51   24   84 1    
    52   25   26 2    
    53   27   28 2    
    54   27   29 am   BACKBONE|DICT|INTERRES
    55   29   30 1    
    56   29   85 1    
    57   30   31 1    
    58   30   32 1    
    59   30   86 1    
    60   31   87 1    
    61   31   88 1    
    62   31   89 1    
    63   32   33 2    
    64   32   34 am   BACKBONE|DICT|INTERRES
    65   34   35 1    
    66   34   90 1    
    67   35   36 1    
    68   35   37 1    
    69   35   91 1    
    70   36   92 1    
    71   36   93 1    
    72   36   94 1    
    73   37   38 2    
    74   37   39 am   BACKBONE|DICT|INTERRES
    75   39   40 1    
    76   39   95 1    
    77   40   41 1    
    78   40   42 1    
    79   40   96 1    
    80   41   97 1    
    81   41   98 1    
    82   41   99 1    
    83   42   43 2    
    84   42   44 am   BACKBONE|DICT|INTERRES
    85   44   45 1    
    86   44  100 1    
    87   45   46 1    
    88   45   47 1    
    89   45  101 1    
    90   46  102 1    
    91   46  103 1    
    92   46  104 1    
    93   47   48 2    
    94   47   49 am   BACKBONE|DICT|INTERRES
    95   49   50 1    
    96   49  105 1    
    97   50   51 1    
    98   50   52 1    
    99   50  106 1    
   100   51  107 1    
   101   51  108 1    
   102   51  109 1    
   103   52   53 2    
   104   52   54 am   BACKBONE|DICT|INTERRES
   105   54   55 1    
   106   54  110 1    
   107   55   56 1    
   108   55   59 1    
   109   55  111 1    
   110   56   57 am   BACKBONE|DICT|INTERRES
   111   56   58 2    
   112   57  112 1    
   113   57  113 1    
   114   59   60 1    
   115   59  114 1    
   116   59  115 1    
   117   60   61 1    
   118   61  116 1    
   119   61  117 1    
@<TRIPOS>SUBSTRUCTURE
     1 UNK         1 GROUP             0       ****    0 ROOT    
