@<TRIPOS>MOLECULE
3R8
117   119    1
SMALL
USER_CHARGES


@<TRIPOS>ATOM
      1 CA         16.8769  -28.6437  -40.9970 C.3       0 UNK        -0.2013 
      2 C          17.3960  -27.9050  -42.2204 C.2       0 UNK         0.4866 
      3 O          18.3657  -28.3457  -42.8377 O.2       0 UNK        -0.5176 
      4 N          16.7513  -26.7809  -42.5633 N.am      1 UNK        -0.4884 
      5 CA         17.0419  -25.9259  -43.7246 C.3       1 UNK         0.0853 
      6 C6         16.7718  -26.6357  -45.0857 C.3       10 UNK        -0.0849 
      7 S7         15.1129  -27.3968  -45.1776 S.3       10 UNK        -0.2776 
      8 C8         15.3349  -28.6381  -46.4945 C.3       10 UNK         0.0316 
      9 C9         16.3529  -29.7130  -46.1319 C.ar      10 UNK        -0.0863 
     10 C10        16.0435  -30.6936  -45.1832 C.ar      10 UNK        -0.1009 
     11 C11        16.9641  -31.6999  -44.8685 C.ar      10 UNK        -0.0712 
     12 C12        18.2055  -31.7132  -45.5159 C.ar      10 UNK        -0.0894 
     13 C13        18.5316  -30.7334  -46.4569 C.ar      10 UNK        -0.0745 
     14 C14        17.5977  -29.7418  -46.7678 C.ar      10 UNK        -0.0972 
     15 C15        19.8876  -30.7590  -47.1488 C.3       10 UNK         0.0209 
     16 S16        20.8962  -29.2964  -46.7524 S.3       10 UNK        -0.2568 
     17 C17        21.1476  -29.4918  -44.9547 C.3       10 UNK        -0.0983 
     18 CA         21.8118  -28.2443  -44.3266 C.3       3 UNK         0.0876 
     19 N          21.0495  -27.0243  -44.6128 N.am      3 UNK        -0.4424 
     20 C          21.4856  -25.7681  -44.4497 C.2       2 UNK         0.4918 
     21 O          22.5903  -25.4872  -43.9877 O.2       2 UNK        -0.4875 
     22 CA         20.5154  -24.6366  -44.8394 C.3       2 UNK         0.0481 
     23 CB         20.8272  -24.1328  -46.2570 C.3       2 UNK        -0.1831 
     24 N          19.1085  -25.0464  -44.7662 N.am      2 UNK        -0.4498 
     25 C          18.4596  -25.3094  -43.6216 C.2       1 UNK         0.5027 
     26 O          18.9545  -25.0966  -42.5112 O.2       1 UNK        -0.4969 
     27 C          22.0921  -28.4419  -42.8198 C.2       3 UNK         0.5005 
     28 O          23.0186  -29.1748  -42.4679 O.2       3 UNK        -0.5279 
     29 N          21.3512  -27.7376  -41.9515 N.am      4 UNK        -0.4463 
     30 CA         21.6280  -27.6197  -40.5187 C.3       4 UNK         0.0283 
     31 CB         20.4929  -26.8415  -39.8376 C.3       4 UNK        -0.1875 
     32 C          22.9870  -26.9641  -40.2130 C.2       4 UNK         0.4949 
     33 O          23.6148  -27.3303  -39.2206 O.2       4 UNK        -0.5039 
     34 N          23.4541  -26.0547  -41.0845 N.am      5 UNK        -0.4663 
     35 CA         24.7809  -25.4325  -40.9870 C.3       5 UNK         0.0242 
     36 CB         24.8373  -24.1875  -41.8862 C.3       5 UNK        -0.1982 
     37 C          25.9249  -26.4034  -41.3337 C.2       5 UNK         0.5017 
     38 O          27.0481  -26.1971  -40.8744 O.2       5 UNK        -0.5012 
     39 N          25.6148  -27.4554  -42.1050 N.am      6 UNK        -0.4439 
     40 CA         26.5070  -28.5789  -42.4010 C.3       6 UNK         0.0297 
     41 CB         26.1993  -29.1021  -43.8155 C.3       6 UNK        -0.2006 
     42 C          26.3919  -29.7088  -41.3567 C.2       6 UNK         0.4892 
     43 O          27.0846  -30.7173  -41.4967 O.2       6 UNK        -0.5089 
     44 N          25.5277  -29.5282  -40.3436 N.am      7 UNK        -0.4243 
     45 CA         25.2089  -30.4563  -39.2544 C.3       7 UNK         0.0196 
     46 CB         26.4352  -30.6819  -38.3435 C.3       7 UNK        -0.2007 
     47 C          24.5608  -31.7683  -39.7383 C.2       7 UNK         0.5020 
     48 O          24.8073  -32.8220  -39.1484 O.2       7 UNK        -0.5147 
     49 N          23.7406  -31.6856  -40.7958 N.am      8 UNK        -0.4734 
     50 CA         22.9482  -32.8011  -41.3139 C.3       8 UNK         0.0238 
     51 CB         22.7876  -32.6436  -42.8382 C.3       8 UNK        -0.1912 
     52 C          21.6148  -32.8866  -40.5482 C.2       8 UNK         0.5038 
     53 O          21.5977  -33.3900  -39.4237 O.2       8 UNK        -0.5046 
     54 N          20.5258  -32.4088  -41.1626 N.am      9 UNK        -0.4200 
     55 CA         19.1836  -32.3359  -40.5672 C.3       9 UNK         0.0839 
     56 C          19.0952  -31.3333  -39.3836 C.2       9 UNK         0.5513 
     57 N          18.1287  -31.5161  -38.4943 N.am      9 UNK        -0.7519 
     58 O          19.8596  -30.3779  -39.2806 O.2       9 UNK        -0.4960 
     59 C59        18.1095  -32.0295  -41.6424 C.3       10 UNK        -0.0876 
     60 S60        17.9466  -33.3957  -42.8355 S.3       10 UNK        -0.2414 
     61 C61        16.5737  -32.7957  -43.8781 C.3       10 UNK         0.0169 
     62 H62        16.3622  -29.5534  -41.3026 H         1 UNK         0.0903 
     63 H63        17.7034  -28.9161  -40.3434 H         1 UNK         0.0903 
     64 H64        16.1798  -28.0365  -40.4201 H         1 UNK         0.0903 
     65 H65        15.9814  -26.4667  -41.9899 H         1 UNK         0.3096 
     66 H66        16.3550  -25.0810  -43.6535 H         1 UNK         0.1121 
     67 H67        17.5261  -27.4044  -45.2566 H         1 UNK         0.0849 
     68 H68        16.8466  -25.9325  -45.9166 H         1 UNK         0.0849 
     69 H69        14.3730  -29.1118  -46.6957 H         1 UNK         0.0865 
     70 H70        15.6190  -28.1304  -47.4177 H         1 UNK         0.0865 
     71 H71        15.0764  -30.6770  -44.6991 H         1 UNK         0.1346 
     72 H72        18.9202  -32.4932  -45.2942 H         1 UNK         0.1412 
     73 H73        17.8473  -28.9893  -47.5035 H         1 UNK         0.1426 
     74 H74        19.7350  -30.7999  -48.2281 H         1 UNK         0.0716 
     75 H75        20.4472  -31.6575  -46.8836 H         1 UNK         0.0716 
     76 H76        21.7707  -30.3735  -44.8089 H         1 UNK         0.0695 
     77 H77        20.1891  -29.6957  -44.4733 H         1 UNK         0.0695 
     78 H78        22.7902  -28.1227  -44.7969 H         1 UNK         0.0983 
     79 H79        20.1230  -27.1715  -44.9838 H         1 UNK         0.3095 
     80 H80        20.6711  -23.8107  -44.1421 H         1 UNK         0.0454 
     81 H81        20.1942  -23.2874  -46.5270 H         1 UNK         0.0851 
     82 H82        20.6858  -24.9132  -47.0058 H         1 UNK         0.0851 
     83 H83        21.8622  -23.7957  -46.3308 H         1 UNK         0.0851 
     84 H84        18.6386  -25.2083  -45.6451 H         1 UNK         0.2976 
     85 H85        20.5685  -27.2071  -42.3125 H         1 UNK         0.3116 
     86 H86        21.6535  -28.6289  -40.1040 H         1 UNK         0.0646 
     87 H87        19.5351  -27.3422  -39.9725 H         1 UNK         0.0847 
     88 H88        20.4019  -25.8287  -40.2320 H         1 UNK         0.0847 
     89 H89        20.6650  -26.7615  -38.7634 H         1 UNK         0.0847 
     90 H90        22.9038  -25.8221  -41.9042 H         1 UNK         0.3040 
     91 H91        24.9291  -25.1107  -39.9535 H         1 UNK         0.1015 
     92 H92        25.7770  -23.6514  -41.7468 H         1 UNK         0.0786 
     93 H93        24.0303  -23.4917  -41.6563 H         1 UNK         0.0786 
     94 H94        24.7684  -24.4468  -42.9430 H         1 UNK         0.0786 
     95 H95        24.6548  -27.5609  -42.4065 H         1 UNK         0.3172 
     96 H96        27.5421  -28.2314  -42.3898 H         1 UNK         0.0595 
     97 H97        25.2006  -29.5336  -43.8831 H         1 UNK         0.0839 
     98 H98        26.9061  -29.8810  -44.1046 H         1 UNK         0.0839 
     99 H99        26.2743  -28.3083  -44.5589 H         1 UNK         0.0839 
    100 H100       25.0063  -28.6610  -40.3225 H         1 UNK         0.2998 
    101 H101       24.4469  -29.9581  -38.6531 H         1 UNK         0.0822 
    102 H102       26.8576  -29.7354  -38.0060 H         1 UNK         0.0787 
    103 H103       26.1616  -31.2485  -37.4526 H         1 UNK         0.0787 
    104 H104       27.2221  -31.2389  -38.8528 H         1 UNK         0.0787 
    105 H105       23.5874  -30.7804  -41.2302 H         1 UNK         0.3055 
    106 H106       23.4767  -33.7407  -41.1366 H         1 UNK         0.1106 
    107 H107       22.3158  -31.6995  -43.1002 H         1 UNK         0.0828 
    108 H108       22.1840  -33.4494  -43.2584 H         1 UNK         0.0828 
    109 H109       23.7563  -32.6742  -43.3376 H         1 UNK         0.0828 
    110 H110       20.6248  -32.0031  -42.0797 H         1 UNK         0.2931 
    111 H111       18.9701  -33.3238  -40.1531 H         1 UNK         0.0412 
    112 H112       18.0469  -30.8719  -37.7233 H         1 UNK         0.3472 
    113 H113       17.4932  -32.2958  -38.5640 H         1 UNK         0.3472 
    114 H114       17.1323  -31.8809  -41.1797 H         1 UNK         0.0970 
    115 H115       18.3442  -31.1070  -42.1778 H         1 UNK         0.0970 
    116 H116       16.1822  -33.6404  -44.4460 H         1 UNK         0.0612 
    117 H117       15.7629  -32.4577  -43.2308 H         1 UNK         0.0612 
@<TRIPOS>BOND
     1    1    2 1    
     2    1   62 1    
     3    1   63 1    
     4    1   64 1    
     5    2    3 2    
     6    2    4 am   BACKBONE|DICT|INTERRES
     7    4    5 1    
     8    4   65 1    
     9    5    6 1    
    10    5   25 1    
    11    5   66 1    
    12    6    7 1    
    13    6   67 1    
    14    6   68 1    
    15    7    8 1    
    16    8    9 1    
    17    8   69 1    
    18    8   70 1    
    19    9   10 ar   
    20    9   14 ar   
    21   10   11 ar   
    22   10   71 1    
    23   11   12 ar   
    24   11   61 1    
    25   12   13 ar   
    26   12   72 1    
    27   13   14 ar   
    28   13   15 1    
    29   14   73 1    
    30   15   16 1    
    31   15   74 1    
    32   15   75 1    
    33   16   17 1    
    34   17   18 1    
    35   17   76 1    
    36   17   77 1    
    37   18   19 1    
    38   18   27 1    
    39   18   78 1    
    40   19   20 am   BACKBONE|DICT|INTERRES
    41   19   79 1    
    42   20   21 2    
    43   20   22 1    
    44   22   23 1    
    45   22   24 1    
    46   22   80 1    
    47   23   81 1    
    48   23   82 1    
    49   23   83 1    
    50   24   25 am   BACKBONE|DICT|INTERRES
    51   24   84 1    
    52   25   26 2    
    53   27   28 2    
    54   27   29 am   BACKBONE|DICT|INTERRES
    55   29   30 1    
    56   29   85 1    
    57   30   31 1    
    58   30   32 1    
    59   30   86 1    
    60   31   87 1    
    61   31   88 1    
    62   31   89 1    
    63   32   33 2    
    64   32   34 am   BACKBONE|DICT|INTERRES
    65   34   35 1    
    66   34   90 1    
    67   35   36 1    
    68   35   37 1    
    69   35   91 1    
    70   36   92 1    
    71   36   93 1    
    72   36   94 1    
    73   37   38 2    
    74   37   39 am   BACKBONE|DICT|INTERRES
    75   39   40 1    
    76   39   95 1    
    77   40   41 1    
    78   40   42 1    
    79   40   96 1    
    80   41   97 1    
    81   41   98 1    
    82   41   99 1    
    83   42   43 2    
    84   42   44 am   BACKBONE|DICT|INTERRES
    85   44   45 1    
    86   44  100 1    
    87   45   46 1    
    88   45   47 1    
    89   45  101 1    
    90   46  102 1    
    91   46  103 1    
    92   46  104 1    
    93   47   48 2    
    94   47   49 am   BACKBONE|DICT|INTERRES
    95   49   50 1    
    96   49  105 1    
    97   50   51 1    
    98   50   52 1    
    99   50  106 1    
   100   51  107 1    
   101   51  108 1    
   102   51  109 1    
   103   52   53 2    
   104   52   54 am   BACKBONE|DICT|INTERRES
   105   54   55 1    
   106   54  110 1    
   107   55   56 1    
   108   55   59 1    
   109   55  111 1    
   110   56   57 am   BACKBONE|DICT|INTERRES
   111   56   58 2    
   112   57  112 1    
   113   57  113 1    
   114   59   60 1    
   115   59  114 1    
   116   59  115 1    
   117   60   61 1    
   118   61  116 1    
   119   61  117 1    
@<TRIPOS>SUBSTRUCTURE
     1 UNK         1 GROUP             0       ****    0 ROOT    
