@<TRIPOS>MOLECULE
3R8
117   119    1
SMALL
USER_CHARGES


@<TRIPOS>ATOM
      1 CA         14.1199  -22.9036  -44.5477 C.3       0 UNK        -0.2013 
      2 C          15.0671  -23.8953  -45.2063 C.2       0 UNK         0.4866 
      3 O          15.3805  -23.7485  -46.3878 O.2       0 UNK        -0.5176 
      4 N          15.5195  -24.9062  -44.4522 N.am      1 UNK        -0.4884 
      5 CA         16.4442  -25.9518  -44.9094 C.3       1 UNK         0.0853 
      6 C6         16.5589  -27.1003  -43.8779 C.3       10 UNK        -0.0849 
      7 S7         15.0491  -28.1233  -43.7980 S.3       10 UNK        -0.2776 
      8 C8         15.3746  -29.4046  -45.0586 C.3       10 UNK         0.0316 
      9 C9         16.6100  -30.2337  -44.7344 C.ar      10 UNK        -0.0863 
     10 C10        16.5492  -31.2530  -43.7787 C.ar      10 UNK        -0.1009 
     11 C11        17.6948  -31.9850  -43.4506 C.ar      10 UNK        -0.0712 
     12 C12        18.9070  -31.6791  -44.0789 C.ar      10 UNK        -0.0894 
     13 C13        18.9806  -30.6675  -45.0397 C.ar      10 UNK        -0.0745 
     14 C14        17.8212  -29.9663  -45.3804 C.ar      10 UNK        -0.0972 
     15 C15        20.3068  -30.3462  -45.7196 C.3       10 UNK         0.0209 
     16 S16        20.7660  -28.5859  -45.5863 S.3       10 UNK        -0.2568 
     17 C17        21.1319  -28.4223  -43.8082 C.3       10 UNK        -0.0983 
     18 CA         21.6529  -27.0029  -43.4566 C.3       3 UNK         0.0876 
     19 N          20.6407  -25.9690  -43.7204 N.am      3 UNK        -0.4424 
     20 C          20.8681  -24.7904  -44.3163 C.2       2 UNK         0.4918 
     21 O          21.9811  -24.4291  -44.6999 O.2       2 UNK        -0.4875 
     22 CA         19.6634  -23.8329  -44.4705 C.3       2 UNK         0.0481 
     23 CB         19.7715  -22.9516  -45.7331 C.3       2 UNK        -0.1831 
     24 N          18.3468  -24.4862  -44.3975 N.am      2 UNK        -0.4498 
     25 C          17.8455  -25.4015  -45.2438 C.2       1 UNK         0.5027 
     26 O          18.4370  -25.8242  -46.2368 O.2       1 UNK        -0.4969 
     27 C          22.1807  -26.9232  -42.0044 C.2       3 UNK         0.5005 
     28 O          22.8756  -27.8390  -41.5564 O.2       3 UNK        -0.5279 
     29 N          21.8562  -25.8384  -41.2827 N.am      4 UNK        -0.4463 
     30 CA         22.3140  -25.5532  -39.9213 C.3       4 UNK         0.0283 
     31 CB         21.7040  -24.2258  -39.4424 C.3       4 UNK        -0.1875 
     32 C          23.8492  -25.5113  -39.8401 C.2       4 UNK         0.4949 
     33 O          24.4756  -24.7572  -40.5866 O.2       4 UNK        -0.5039 
     34 N          24.4079  -26.3545  -38.9616 N.am      5 UNK        -0.4663 
     35 CA         25.8403  -26.6100  -38.7515 C.3       5 UNK         0.0242 
     36 CB         26.5793  -25.3311  -38.3001 C.3       5 UNK        -0.1982 
     37 C          26.5495  -27.3127  -39.9308 C.2       5 UNK         0.5017 
     38 O          27.7777  -27.4044  -39.9115 O.2       5 UNK        -0.5012 
     39 N          25.7892  -27.8361  -40.9056 N.am      6 UNK        -0.4439 
     40 CA         26.2936  -28.6034  -42.0511 C.3       6 UNK         0.0297 
     41 CB         25.7103  -28.0194  -43.3519 C.3       6 UNK        -0.2006 
     42 C          25.9848  -30.1078  -41.9134 C.2       6 UNK         0.4892 
     43 O          25.9940  -30.8154  -42.9216 O.2       6 UNK        -0.5089 
     44 N          25.7229  -30.5670  -40.6775 N.am      7 UNK        -0.4243 
     45 CA         25.3804  -31.9417  -40.2850 C.3       7 UNK         0.0196 
     46 CB         26.5755  -32.8936  -40.5090 C.3       7 UNK        -0.2007 
     47 C          24.0802  -32.4360  -40.9482 C.2       7 UNK         0.5020 
     48 O          24.0564  -33.5207  -41.5345 O.2       7 UNK        -0.5147 
     49 N          23.0280  -31.6089  -40.8479 N.am      8 UNK        -0.4734 
     50 CA         21.6920  -31.8113  -41.4175 C.3       8 UNK         0.0238 
     51 CB         20.7616  -30.6881  -40.9240 C.3       8 UNK        -0.1912 
     52 C          21.0895  -33.1866  -41.0800 C.2       8 UNK         0.5038 
     53 O          20.6831  -33.4044  -39.9366 O.2       8 UNK        -0.5046 
     54 N          21.0473  -34.0747  -42.0825 N.am      9 UNK        -0.4200 
     55 CA         20.5267  -35.4501  -41.9967 C.3       9 UNK         0.0839 
     56 C          21.3388  -36.3837  -41.0457 C.2       9 UNK         0.5513 
     57 N          22.5906  -36.0713  -40.7281 N.am      9 UNK        -0.7519 
     58 O          20.8446  -37.4227  -40.6149 O.2       9 UNK        -0.4960 
     59 C59        18.9874  -35.5010  -41.7548 C.3       10 UNK        -0.0876 
     60 S60        18.0474  -34.7129  -43.1103 S.3       10 UNK        -0.2414 
     61 C61        17.6366  -33.0858  -42.3995 C.3       10 UNK         0.0169 
     62 H62        13.9236  -23.1560  -43.5058 H         1 UNK         0.0903 
     63 H63        14.5455  -21.9010  -44.5793 H         1 UNK         0.0903 
     64 H64        13.1676  -22.8865  -45.0771 H         1 UNK         0.0903 
     65 H65        15.1973  -24.9935  -43.4983 H         1 UNK         0.3096 
     66 H66        16.0461  -26.3614  -45.8408 H         1 UNK         0.1121 
     67 H67        16.7432  -26.6966  -42.8806 H         1 UNK         0.0849 
     68 H68        17.4184  -27.7369  -44.0822 H         1 UNK         0.0849 
     69 H69        14.5054  -30.0603  -45.1287 H         1 UNK         0.0865 
     70 H70        15.4744  -28.9315  -46.0368 H         1 UNK         0.0865 
     71 H71        15.6120  -31.4642  -43.2818 H         1 UNK         0.1346 
     72 H72        19.7920  -32.2424  -43.8255 H         1 UNK         0.1412 
     73 H73        17.8742  -29.1826  -46.1246 H         1 UNK         0.1426 
     74 H74        20.2280  -30.6068  -46.7758 H         1 UNK         0.0716 
     75 H75        21.1157  -30.9545  -45.3122 H         1 UNK         0.0716 
     76 H76        20.2312  -28.6580  -43.2386 H         1 UNK         0.0695 
     77 H77        21.8729  -29.1835  -43.5564 H         1 UNK         0.0695 
     78 H78        22.5260  -26.8175  -44.0862 H         1 UNK         0.0983 
     79 H79        19.6987  -26.1856  -43.4328 H         1 UNK         0.3095 
     80 H80        19.7075  -23.1662  -43.6083 H         1 UNK         0.0454 
     81 H81        20.6710  -22.3355  -45.7065 H         1 UNK         0.0851 
     82 H82        18.9212  -22.2752  -45.8196 H         1 UNK         0.0851 
     83 H83        19.8173  -23.5505  -46.6431 H         1 UNK         0.0851 
     84 H84        17.7623  -24.2029  -43.6227 H         1 UNK         0.2976 
     85 H85        21.3134  -25.1194  -41.7359 H         1 UNK         0.3116 
     86 H86        21.9419  -26.3524  -39.2768 H         1 UNK         0.0646 
     87 H87        22.0130  -23.3888  -40.0702 H         1 UNK         0.0847 
     88 H88        22.0177  -23.9992  -38.4224 H         1 UNK         0.0847 
     89 H89        20.6145  -24.2637  -39.4434 H         1 UNK         0.0847 
     90 H90        23.7868  -26.9340  -38.4122 H         1 UNK         0.3040 
     91 H91        25.8933  -27.3181  -37.9229 H         1 UNK         0.1015 
     92 H92        26.6590  -24.6003  -39.1052 H         1 UNK         0.0786 
     93 H93        27.5943  -25.5602  -37.9731 H         1 UNK         0.0786 
     94 H94        26.0722  -24.8538  -37.4615 H         1 UNK         0.0786 
     95 H95        24.7794  -27.7244  -40.8637 H         1 UNK         0.3172 
     96 H96        27.3798  -28.5143  -42.1130 H         1 UNK         0.0595 
     97 H97        24.6465  -28.2330  -43.4508 H         1 UNK         0.0839 
     98 H98        26.2045  -28.4468  -44.2252 H         1 UNK         0.0839 
     99 H99        25.8448  -26.9387  -43.4013 H         1 UNK         0.0839 
    100 H100       25.7445  -29.8913  -39.9275 H         1 UNK         0.2998 
    101 H101       25.1822  -31.9171  -39.2122 H         1 UNK         0.0822 
    102 H102       26.3597  -33.8884  -40.1171 H         1 UNK         0.0787 
    103 H103       26.8125  -33.0076  -41.5673 H         1 UNK         0.0787 
    104 H104       27.4704  -32.5332  -40.0018 H         1 UNK         0.0787 
    105 H105       23.1652  -30.7379  -40.3560 H         1 UNK         0.3055 
    106 H106       21.7890  -31.7201  -42.5009 H         1 UNK         0.1106 
    107 H107       21.1455  -29.7051  -41.1837 H         1 UNK         0.0828 
    108 H108       19.7701  -30.7731  -41.3695 H         1 UNK         0.0828 
    109 H109       20.6344  -30.7138  -39.8409 H         1 UNK         0.0828 
    110 H110       21.4727  -33.8333  -42.9652 H         1 UNK         0.2931 
    111 H111       20.7011  -35.8763  -42.9853 H         1 UNK         0.0412 
    112 H112       23.0179  -35.2204  -41.0790 H         1 UNK         0.3472 
    113 H113       23.1143  -36.6847  -40.1241 H         1 UNK         0.3472 
    114 H114       18.7230  -35.0543  -40.7953 H         1 UNK         0.0970 
    115 H115       18.6466  -36.5364  -41.7013 H         1 UNK         0.0970 
    116 H116       18.3224  -32.8342  -41.5921 H         1 UNK         0.0612 
    117 H117       16.6453  -33.1440  -41.9477 H         1 UNK         0.0612 
@<TRIPOS>BOND
     1    1    2 1    
     2    1   62 1    
     3    1   63 1    
     4    1   64 1    
     5    2    3 2    
     6    2    4 am   BACKBONE|DICT|INTERRES
     7    4    5 1    
     8    4   65 1    
     9    5    6 1    
    10    5   25 1    
    11    5   66 1    
    12    6    7 1    
    13    6   67 1    
    14    6   68 1    
    15    7    8 1    
    16    8    9 1    
    17    8   69 1    
    18    8   70 1    
    19    9   10 ar   
    20    9   14 ar   
    21   10   11 ar   
    22   10   71 1    
    23   11   12 ar   
    24   11   61 1    
    25   12   13 ar   
    26   12   72 1    
    27   13   14 ar   
    28   13   15 1    
    29   14   73 1    
    30   15   16 1    
    31   15   74 1    
    32   15   75 1    
    33   16   17 1    
    34   17   18 1    
    35   17   76 1    
    36   17   77 1    
    37   18   19 1    
    38   18   27 1    
    39   18   78 1    
    40   19   20 am   BACKBONE|DICT|INTERRES
    41   19   79 1    
    42   20   21 2    
    43   20   22 1    
    44   22   23 1    
    45   22   24 1    
    46   22   80 1    
    47   23   81 1    
    48   23   82 1    
    49   23   83 1    
    50   24   25 am   BACKBONE|DICT|INTERRES
    51   24   84 1    
    52   25   26 2    
    53   27   28 2    
    54   27   29 am   BACKBONE|DICT|INTERRES
    55   29   30 1    
    56   29   85 1    
    57   30   31 1    
    58   30   32 1    
    59   30   86 1    
    60   31   87 1    
    61   31   88 1    
    62   31   89 1    
    63   32   33 2    
    64   32   34 am   BACKBONE|DICT|INTERRES
    65   34   35 1    
    66   34   90 1    
    67   35   36 1    
    68   35   37 1    
    69   35   91 1    
    70   36   92 1    
    71   36   93 1    
    72   36   94 1    
    73   37   38 2    
    74   37   39 am   BACKBONE|DICT|INTERRES
    75   39   40 1    
    76   39   95 1    
    77   40   41 1    
    78   40   42 1    
    79   40   96 1    
    80   41   97 1    
    81   41   98 1    
    82   41   99 1    
    83   42   43 2    
    84   42   44 am   BACKBONE|DICT|INTERRES
    85   44   45 1    
    86   44  100 1    
    87   45   46 1    
    88   45   47 1    
    89   45  101 1    
    90   46  102 1    
    91   46  103 1    
    92   46  104 1    
    93   47   48 2    
    94   47   49 am   BACKBONE|DICT|INTERRES
    95   49   50 1    
    96   49  105 1    
    97   50   51 1    
    98   50   52 1    
    99   50  106 1    
   100   51  107 1    
   101   51  108 1    
   102   51  109 1    
   103   52   53 2    
   104   52   54 am   BACKBONE|DICT|INTERRES
   105   54   55 1    
   106   54  110 1    
   107   55   56 1    
   108   55   59 1    
   109   55  111 1    
   110   56   57 am   BACKBONE|DICT|INTERRES
   111   56   58 2    
   112   57  112 1    
   113   57  113 1    
   114   59   60 1    
   115   59  114 1    
   116   59  115 1    
   117   60   61 1    
   118   61  116 1    
   119   61  117 1    
@<TRIPOS>SUBSTRUCTURE
     1 UNK         1 GROUP             0       ****    0 ROOT    
