@<TRIPOS>MOLECULE
3R8
117   119    1
SMALL
USER_CHARGES


@<TRIPOS>ATOM
      1 CA         16.0137  -22.0047  -45.4644 C.3       0 UNK        -0.2013 
      2 C          17.1902  -22.7741  -46.0466 C.2       0 UNK         0.4866 
      3 O          18.2573  -22.1957  -46.2561 O.2       0 UNK        -0.5176 
      4 N          17.0014  -24.0710  -46.3183 N.am      1 UNK        -0.4884 
      5 CA         18.0391  -24.9861  -46.8045 C.3       1 UNK         0.0853 
      6 C6         17.4126  -26.1919  -47.5556 C.3       10 UNK        -0.0849 
      7 S7         16.3228  -27.2420  -46.5281 S.3       10 UNK        -0.2776 
      8 C8         17.4011  -28.6949  -46.2866 C.3       10 UNK         0.0316 
      9 C9         17.1739  -29.4355  -44.9715 C.ar      10 UNK        -0.0863 
     10 C10        17.3518  -30.8221  -44.9325 C.ar      10 UNK        -0.1009 
     11 C11        17.2153  -31.5325  -43.7362 C.ar      10 UNK        -0.0712 
     12 C12        16.8591  -30.8412  -42.5729 C.ar      10 UNK        -0.0894 
     13 C13        16.7127  -29.4521  -42.5863 C.ar      10 UNK        -0.0745 
     14 C14        16.8723  -28.7537  -43.7861 C.ar      10 UNK        -0.0972 
     15 C15        16.4232  -28.7096  -41.2915 C.3       10 UNK         0.0209 
     16 S16        17.8663  -28.7330  -40.1787 S.3       10 UNK        -0.2568 
     17 C17        19.0352  -27.6216  -41.0381 C.3       10 UNK        -0.0983 
     18 CA         20.0361  -28.3420  -41.9872 C.3       3 UNK         0.0876 
     19 N          20.5542  -27.3882  -42.9686 N.am      3 UNK        -0.4424 
     20 C          20.7123  -27.6251  -44.2734 C.2       2 UNK         0.4918 
     21 O          20.4791  -28.7038  -44.8181 O.2       2 UNK        -0.4875 
     22 CA         21.2044  -26.4385  -45.1227 C.3       2 UNK         0.0481 
     23 CB         22.4551  -26.8180  -45.9338 C.3       2 UNK        -0.1831 
     24 N          20.1664  -25.9527  -46.0376 N.am      2 UNK        -0.4498 
     25 C          18.9966  -25.4116  -45.6643 C.2       1 UNK         0.5027 
     26 O          18.6677  -25.2477  -44.4854 O.2       1 UNK        -0.4969 
     27 C          21.1983  -29.0410  -41.2453 C.2       3 UNK         0.5005 
     28 O          22.3629  -28.9343  -41.6440 O.2       3 UNK        -0.5279 
     29 N          20.8692  -29.7312  -40.1453 N.am      4 UNK        -0.4463 
     30 CA         21.8060  -30.4165  -39.2485 C.3       4 UNK         0.0283 
     31 CB         21.0178  -31.1919  -38.1820 C.3       4 UNK        -0.1875 
     32 C          22.8270  -29.4742  -38.5880 C.2       4 UNK         0.4949 
     33 O          23.9482  -29.8986  -38.3147 O.2       4 UNK        -0.5039 
     34 N          22.4545  -28.1981  -38.4114 N.am      5 UNK        -0.4663 
     35 CA         23.3379  -27.1164  -37.9619 C.3       5 UNK         0.0242 
     36 CB         22.4956  -25.8563  -37.7060 C.3       5 UNK        -0.1982 
     37 C          24.4864  -26.8054  -38.9430 C.2       5 UNK         0.5017 
     38 O          25.5212  -26.2978  -38.5108 O.2       5 UNK        -0.5012 
     39 N          24.2953  -27.1333  -40.2290 N.am      6 UNK        -0.4439 
     40 CA         25.3045  -27.0476  -41.2867 C.3       6 UNK         0.0297 
     41 CB         24.6355  -26.4845  -42.5541 C.3       6 UNK        -0.2006 
     42 C          25.9573  -28.4156  -41.5727 C.2       6 UNK         0.4892 
     43 O          26.7314  -28.5147  -42.5251 O.2       6 UNK        -0.5089 
     44 N          25.6221  -29.4435  -40.7731 N.am      7 UNK        -0.4243 
     45 CA         26.0139  -30.8535  -40.9040 C.3       7 UNK         0.0196 
     46 CB         27.5357  -31.0266  -40.7109 C.3       7 UNK        -0.2007 
     47 C          25.4944  -31.5221  -42.1938 C.2       7 UNK         0.5020 
     48 O          26.0807  -32.5049  -42.6493 O.2       7 UNK        -0.5147 
     49 N          24.3995  -30.9929  -42.7558 N.am      8 UNK        -0.4734 
     50 CA         23.7900  -31.4542  -44.0071 C.3       8 UNK         0.0238 
     51 CB         23.5151  -30.2231  -44.8837 C.3       8 UNK        -0.1912 
     52 C          22.5148  -32.2870  -43.7753 C.2       8 UNK         0.5038 
     53 O          21.8476  -32.6536  -44.7433 O.2       8 UNK        -0.5046 
     54 N          22.2051  -32.5849  -42.5101 N.am      9 UNK        -0.4200 
     55 CA         21.0853  -33.4138  -42.0563 C.3       9 UNK         0.0839 
     56 C          21.4355  -34.0795  -40.6958 C.2       9 UNK         0.5513 
     57 N          20.5469  -34.8970  -40.1518 N.am      9 UNK        -0.7519 
     58 O          22.5049  -33.8647  -40.1268 O.2       9 UNK        -0.4960 
     59 C59        19.7521  -32.6140  -42.0408 C.3       10 UNK        -0.0876 
     60 S60        18.2630  -33.6639  -42.1964 S.3       10 UNK        -0.2414 
     61 C61        17.4835  -33.0377  -43.7273 C.3       10 UNK         0.0169 
     62 H62        15.1322  -22.6348  -45.3470 H         1 UNK         0.0903 
     63 H63        16.2761  -21.6034  -44.4858 H         1 UNK         0.0903 
     64 H64        15.7505  -21.1716  -46.1155 H         1 UNK         0.0903 
     65 H65        16.1191  -24.5082  -46.0914 H         1 UNK         0.3096 
     66 H66        18.6455  -24.4357  -47.5282 H         1 UNK         0.1121 
     67 H67        18.1897  -26.8007  -48.0210 H         1 UNK         0.0849 
     68 H68        16.8147  -25.8202  -48.3895 H         1 UNK         0.0849 
     69 H69        17.2559  -29.3682  -47.1329 H         1 UNK         0.0865 
     70 H70        18.4449  -28.3883  -46.3192 H         1 UNK         0.0865 
     71 H71        17.6256  -31.3500  -45.8360 H         1 UNK         0.1346 
     72 H72        16.7413  -31.3744  -41.6397 H         1 UNK         0.1412 
     73 H73        16.7826  -27.6759  -43.7914 H         1 UNK         0.1426 
     74 H74        15.5806  -29.1845  -40.7870 H         1 UNK         0.0716 
     75 H75        16.1231  -27.6786  -41.4850 H         1 UNK         0.0716 
     76 H76        18.4392  -26.9045  -41.6062 H         1 UNK         0.0695 
     77 H77        19.5648  -27.0254  -40.2925 H         1 UNK         0.0695 
     78 H78        19.5000  -29.1305  -42.5192 H         1 UNK         0.0983 
     79 H79        20.7904  -26.4739  -42.6132 H         1 UNK         0.3095 
     80 H80        21.4755  -25.6151  -44.4584 H         1 UNK         0.0454 
     81 H81        23.2587  -27.1563  -45.2799 H         1 UNK         0.0851 
     82 H82        22.8381  -25.9670  -46.4971 H         1 UNK         0.0851 
     83 H83        22.2515  -27.6245  -46.6396 H         1 UNK         0.0851 
     84 H84        20.3550  -26.0712  -47.0225 H         1 UNK         0.2976 
     85 H85        19.8925  -29.7341  -39.8744 H         1 UNK         0.3116 
     86 H86        22.3708  -31.1320  -39.8478 H         1 UNK         0.0646 
     87 H87        20.4224  -30.5273  -37.5548 H         1 UNK         0.0847 
     88 H88        20.3447  -31.9209  -38.6330 H         1 UNK         0.0847 
     89 H89        21.6925  -31.7436  -37.5257 H         1 UNK         0.0847 
     90 H90        21.5071  -27.9425  -38.6486 H         1 UNK         0.3040 
     91 H91        23.7935  -27.4260  -37.0185 H         1 UNK         0.1015 
     92 H92        23.1187  -25.0376  -37.3428 H         1 UNK         0.0786 
     93 H93        21.7300  -26.0363  -36.9510 H         1 UNK         0.0786 
     94 H94        21.9994  -25.5098  -38.6136 H         1 UNK         0.0786 
     95 H95        23.4266  -27.5853  -40.4948 H         1 UNK         0.3172 
     96 H96        26.1022  -26.3632  -40.9915 H         1 UNK         0.0595 
     97 H97        23.8616  -27.1534  -42.9302 H         1 UNK         0.0839 
     98 H98        25.3629  -26.3459  -43.3550 H         1 UNK         0.0839 
     99 H99        24.1776  -25.5138  -42.3642 H         1 UNK         0.0839 
    100 H100       24.9982  -29.2542  -39.9970 H         1 UNK         0.2998 
    101 H101       25.5211  -31.3770  -40.0834 H         1 UNK         0.0822 
    102 H102       27.8050  -32.0816  -40.6479 H         1 UNK         0.0787 
    103 H103       27.8747  -30.5526  -39.7898 H         1 UNK         0.0787 
    104 H104       28.1013  -30.5973  -41.5382 H         1 UNK         0.0787 
    105 H105       23.9520  -30.1975  -42.3105 H         1 UNK         0.3055 
    106 H106       24.4818  -32.1013  -44.5509 H         1 UNK         0.1106 
    107 H107       22.9080  -29.4950  -44.3502 H         1 UNK         0.0828 
    108 H108       24.4436  -29.7307  -45.1729 H         1 UNK         0.0828 
    109 H109       22.9871  -30.4870  -45.8010 H         1 UNK         0.0828 
    110 H110       22.8476  -32.3132  -41.7789 H         1 UNK         0.2931 
    111 H111       20.9959  -34.2334  -42.7720 H         1 UNK         0.0412 
    112 H112       20.7558  -35.3419  -39.2718 H         1 UNK         0.3472 
    113 H113       19.6584  -35.0568  -40.6036 H         1 UNK         0.3472 
    114 H114       19.6630  -32.0208  -41.1307 H         1 UNK         0.0970 
    115 H115       19.7487  -31.8922  -42.8586 H         1 UNK         0.0970 
    116 H116       16.5393  -33.5619  -43.8784 H         1 UNK         0.0612 
    117 H117       18.1285  -33.3093  -44.5647 H         1 UNK         0.0612 
@<TRIPOS>BOND
     1    1    2 1    
     2    1   62 1    
     3    1   63 1    
     4    1   64 1    
     5    2    3 2    
     6    2    4 am   BACKBONE|DICT|INTERRES
     7    4    5 1    
     8    4   65 1    
     9    5    6 1    
    10    5   25 1    
    11    5   66 1    
    12    6    7 1    
    13    6   67 1    
    14    6   68 1    
    15    7    8 1    
    16    8    9 1    
    17    8   69 1    
    18    8   70 1    
    19    9   10 ar   
    20    9   14 ar   
    21   10   11 ar   
    22   10   71 1    
    23   11   12 ar   
    24   11   61 1    
    25   12   13 ar   
    26   12   72 1    
    27   13   14 ar   
    28   13   15 1    
    29   14   73 1    
    30   15   16 1    
    31   15   74 1    
    32   15   75 1    
    33   16   17 1    
    34   17   18 1    
    35   17   76 1    
    36   17   77 1    
    37   18   19 1    
    38   18   27 1    
    39   18   78 1    
    40   19   20 am   BACKBONE|DICT|INTERRES
    41   19   79 1    
    42   20   21 2    
    43   20   22 1    
    44   22   23 1    
    45   22   24 1    
    46   22   80 1    
    47   23   81 1    
    48   23   82 1    
    49   23   83 1    
    50   24   25 am   BACKBONE|DICT|INTERRES
    51   24   84 1    
    52   25   26 2    
    53   27   28 2    
    54   27   29 am   BACKBONE|DICT|INTERRES
    55   29   30 1    
    56   29   85 1    
    57   30   31 1    
    58   30   32 1    
    59   30   86 1    
    60   31   87 1    
    61   31   88 1    
    62   31   89 1    
    63   32   33 2    
    64   32   34 am   BACKBONE|DICT|INTERRES
    65   34   35 1    
    66   34   90 1    
    67   35   36 1    
    68   35   37 1    
    69   35   91 1    
    70   36   92 1    
    71   36   93 1    
    72   36   94 1    
    73   37   38 2    
    74   37   39 am   BACKBONE|DICT|INTERRES
    75   39   40 1    
    76   39   95 1    
    77   40   41 1    
    78   40   42 1    
    79   40   96 1    
    80   41   97 1    
    81   41   98 1    
    82   41   99 1    
    83   42   43 2    
    84   42   44 am   BACKBONE|DICT|INTERRES
    85   44   45 1    
    86   44  100 1    
    87   45   46 1    
    88   45   47 1    
    89   45  101 1    
    90   46  102 1    
    91   46  103 1    
    92   46  104 1    
    93   47   48 2    
    94   47   49 am   BACKBONE|DICT|INTERRES
    95   49   50 1    
    96   49  105 1    
    97   50   51 1    
    98   50   52 1    
    99   50  106 1    
   100   51  107 1    
   101   51  108 1    
   102   51  109 1    
   103   52   53 2    
   104   52   54 am   BACKBONE|DICT|INTERRES
   105   54   55 1    
   106   54  110 1    
   107   55   56 1    
   108   55   59 1    
   109   55  111 1    
   110   56   57 am   BACKBONE|DICT|INTERRES
   111   56   58 2    
   112   57  112 1    
   113   57  113 1    
   114   59   60 1    
   115   59  114 1    
   116   59  115 1    
   117   60   61 1    
   118   61  116 1    
   119   61  117 1    
@<TRIPOS>SUBSTRUCTURE
     1 UNK         1 GROUP             0       ****    0 ROOT    
