@<TRIPOS>MOLECULE
3R8
117   119    1
SMALL
USER_CHARGES


@<TRIPOS>ATOM
      1 CA         19.0134  -21.9354  -45.9646 C.3       0 UNK        -0.2013 
      2 C          17.5981  -22.5062  -46.0193 C.2       0 UNK         0.4866 
      3 O          16.6440  -21.7392  -46.1302 O.2       0 UNK        -0.5176 
      4 N          17.3997  -23.8319  -45.9516 N.am      1 UNK        -0.4884 
      5 CA         18.4186  -24.8789  -45.7774 C.3       1 UNK         0.0853 
      6 C6         17.8455  -26.2764  -46.1357 C.3       10 UNK        -0.0849 
      7 S7         19.1056  -27.3843  -46.8461 S.3       10 UNK        -0.2776 
      8 C8         18.2107  -28.9696  -46.8688 C.3       10 UNK         0.0316 
      9 C9         18.5627  -29.8301  -45.6644 C.ar      10 UNK        -0.0863 
     10 C10        19.7291  -30.6019  -45.6883 C.ar      10 UNK        -0.1009 
     11 C11        20.0633  -31.4160  -44.6038 C.ar      10 UNK        -0.0712 
     12 C12        19.2124  -31.4654  -43.4992 C.ar      10 UNK        -0.0894 
     13 C13        18.0448  -30.6996  -43.4563 C.ar      10 UNK        -0.0745 
     14 C14        17.7249  -29.8774  -44.5432 C.ar      10 UNK        -0.0972 
     15 C15        17.1285  -30.7906  -42.2416 C.3       10 UNK         0.0209 
     16 S16        18.0066  -30.4487  -40.6776 S.3       10 UNK        -0.2568 
     17 C17        18.0883  -28.6301  -40.6874 C.3       10 UNK        -0.0983 
     18 CA         19.3370  -28.0640  -41.4144 C.3       3 UNK         0.0876 
     19 N          19.1441  -26.6876  -41.8817 N.am      3 UNK        -0.4424 
     20 C          18.7940  -25.6077  -41.1713 C.2       2 UNK         0.4918 
     21 O          18.6512  -25.6192  -39.9482 O.2       2 UNK        -0.4875 
     22 CA         18.5473  -24.2884  -41.9322 C.3       2 UNK         0.0481 
     23 CB         19.6964  -23.2906  -41.6964 C.3       2 UNK        -0.1831 
     24 N          18.2466  -24.4211  -43.3677 N.am      2 UNK        -0.4498 
     25 C          19.0272  -24.8815  -44.3587 C.2       1 UNK         0.5027 
     26 O          20.1677  -25.3093  -44.1844 O.2       1 UNK        -0.4969 
     27 C          20.6441  -28.2338  -40.6157 C.2       3 UNK         0.5005 
     28 O          21.4852  -29.0497  -40.9954 O.2       3 UNK        -0.5279 
     29 N          20.8316  -27.4180  -39.5697 N.am      4 UNK        -0.4463 
     30 CA         22.0507  -27.3537  -38.7590 C.3       4 UNK         0.0283 
     31 CB         21.8150  -26.4444  -37.5434 C.3       4 UNK        -0.1875 
     32 C          23.2725  -26.8799  -39.5638 C.2       4 UNK         0.4949 
     33 O          24.3589  -27.4321  -39.3964 O.2       4 UNK        -0.5039 
     34 N          23.0626  -25.9102  -40.4675 N.am      5 UNK        -0.4663 
     35 CA         24.0804  -25.4057  -41.3993 C.3       5 UNK         0.0242 
     36 CB         23.5601  -24.1319  -42.0834 C.3       5 UNK        -0.1982 
     37 C          24.4960  -26.4412  -42.4602 C.2       5 UNK         0.5017 
     38 O          25.6189  -26.3792  -42.9602 O.2       5 UNK        -0.5012 
     39 N          23.5905  -27.3807  -42.7617 N.am      6 UNK        -0.4439 
     40 CA         23.8068  -28.5211  -43.6516 C.3       6 UNK         0.0297 
     41 CB         22.4912  -28.8140  -44.3910 C.3       6 UNK        -0.2006 
     42 C          24.3223  -29.7666  -42.8989 C.2       6 UNK         0.4892 
     43 O          24.4610  -30.8214  -43.5190 O.2       6 UNK        -0.5089 
     44 N          24.5968  -29.6268  -41.5909 N.am      7 UNK        -0.4243 
     45 CA         25.1082  -30.6390  -40.6610 C.3       7 UNK         0.0196 
     46 CB         26.5247  -31.0983  -41.0693 C.3       7 UNK        -0.2007 
     47 C          24.1409  -31.8142  -40.4232 C.2       7 UNK         0.5020 
     48 O          24.5960  -32.9295  -40.1658 O.2       7 UNK        -0.5147 
     49 N          22.8269  -31.5556  -40.5084 N.am      8 UNK        -0.4734 
     50 CA         21.6860  -32.4523  -40.2531 C.3       8 UNK         0.0238 
     51 CB         21.6643  -32.9104  -38.7823 C.3       8 UNK        -0.1912 
     52 C          21.5291  -33.6569  -41.2046 C.2       8 UNK         0.5038 
     53 O          20.3972  -34.1006  -41.3904 O.2       8 UNK        -0.5046 
     54 N          22.6356  -34.1513  -41.7743 N.am      9 UNK        -0.4200 
     55 CA         22.8125  -35.1917  -42.8090 C.3       9 UNK         0.0839 
     56 C          22.1111  -36.5742  -42.6289 C.2       9 UNK         0.5513 
     57 N          21.2574  -36.7801  -41.6376 N.am      9 UNK        -0.7519 
     58 O          22.3916  -37.5023  -43.3837 O.2       9 UNK        -0.4960 
     59 C59        22.7073  -34.6335  -44.2584 C.3       10 UNK        -0.0876 
     60 S60        21.0607  -34.0007  -44.7310 S.3       10 UNK        -0.2414 
     61 C61        21.3583  -32.2119  -44.5964 C.3       10 UNK         0.0169 
     62 H62        19.6657  -22.4133  -46.6942 H         1 UNK         0.0903 
     63 H63        19.0000  -20.8694  -46.1913 H         1 UNK         0.0903 
     64 H64        19.4441  -22.0540  -44.9710 H         1 UNK         0.0903 
     65 H65        16.4475  -24.1657  -46.0111 H         1 UNK         0.3096 
     66 H66        19.2314  -24.6587  -46.4722 H         1 UNK         0.1121 
     67 H67        17.0647  -26.1805  -46.8925 H         1 UNK         0.0849 
     68 H68        17.3675  -26.7552  -45.2780 H         1 UNK         0.0849 
     69 H69        17.1343  -28.7995  -46.9234 H         1 UNK         0.0865 
     70 H70        18.4733  -29.5043  -47.7831 H         1 UNK         0.0865 
     71 H71        20.3827  -30.5581  -46.5489 H         1 UNK         0.1346 
     72 H72        19.4618  -32.1009  -42.6629 H         1 UNK         0.1412 
     73 H73        16.8199  -29.2857  -44.5231 H         1 UNK         0.1426 
     74 H74        16.2728  -30.1208  -42.3390 H         1 UNK         0.0716 
     75 H75        16.7210  -31.8013  -42.1946 H         1 UNK         0.0716 
     76 H76        18.0423  -28.2784  -39.6553 H         1 UNK         0.0695 
     77 H77        17.1793  -28.2574  -41.1619 H         1 UNK         0.0695 
     78 H78        19.4749  -28.6374  -42.3317 H         1 UNK         0.0983 
     79 H79        19.3533  -26.5277  -42.8612 H         1 UNK         0.3095 
     80 H80        17.6490  -23.8562  -41.4887 H         1 UNK         0.0454 
     81 H81        19.4667  -22.3154  -42.1252 H         1 UNK         0.0851 
     82 H82        20.6304  -23.6351  -42.1350 H         1 UNK         0.0851 
     83 H83        19.8737  -23.1399  -40.6306 H         1 UNK         0.0851 
     84 H84        17.3180  -24.1211  -43.6330 H         1 UNK         0.2976 
     85 H85        20.0904  -26.7539  -39.3606 H         1 UNK         0.3116 
     86 H86        22.2632  -28.3621  -38.3971 H         1 UNK         0.0646 
     87 H87        21.0043  -26.8200  -36.9188 H         1 UNK         0.0847 
     88 H88        22.7066  -26.3920  -36.9168 H         1 UNK         0.0847 
     89 H89        21.5646  -25.4252  -37.8404 H         1 UNK         0.0847 
     90 H90        22.1396  -25.5074  -40.5339 H         1 UNK         0.3040 
     91 H91        24.9707  -25.1497  -40.8201 H         1 UNK         0.1015 
     92 H92        22.7277  -24.3482  -42.7540 H         1 UNK         0.0786 
     93 H93        24.3439  -23.6698  -42.6852 H         1 UNK         0.0786 
     94 H94        23.2315  -23.3889  -41.3564 H         1 UNK         0.0786 
     95 H95        22.7097  -27.3669  -42.2673 H         1 UNK         0.3172 
     96 H96        24.5599  -28.2594  -44.3975 H         1 UNK         0.0595 
     97 H97        21.7190  -29.1789  -43.7135 H         1 UNK         0.0839 
     98 H98        22.6401  -29.5725  -45.1592 H         1 UNK         0.0839 
     99 H99        22.1037  -27.9256  -44.8909 H         1 UNK         0.0839 
    100 H100       24.4258  -28.7212  -41.1712 H         1 UNK         0.2998 
    101 H101       25.1965  -30.1353  -39.6973 H         1 UNK         0.0822 
    102 H102       26.9701  -31.7278  -40.2980 H         1 UNK         0.0787 
    103 H103       26.5124  -31.6778  -41.9930 H         1 UNK         0.0787 
    104 H104       27.1908  -30.2479  -41.2147 H         1 UNK         0.0787 
    105 H105       22.5528  -30.6069  -40.7609 H         1 UNK         0.3055 
    106 H106       20.8011  -31.8335  -40.4129 H         1 UNK         0.1106 
    107 H107       20.7627  -33.4857  -38.5673 H         1 UNK         0.0828 
    108 H108       22.5178  -33.5439  -38.5394 H         1 UNK         0.0828 
    109 H109       21.6728  -32.0584  -38.1026 H         1 UNK         0.0828 
    110 H110       23.5031  -33.7499  -41.4301 H         1 UNK         0.2931 
    111 H111       23.8647  -35.4510  -42.6846 H         1 UNK         0.0412 
    112 H112       20.8268  -37.6840  -41.5241 H         1 UNK         0.3472 
    113 H113       20.9239  -35.9797  -41.1146 H         1 UNK         0.3472 
    114 H114       22.9906  -35.4013  -44.9806 H         1 UNK         0.0970 
    115 H115       23.4450  -33.8404  -44.3917 H         1 UNK         0.0970 
    116 H116       22.0120  -31.9018  -45.4127 H         1 UNK         0.0612 
    117 H117       21.8958  -31.9956  -43.6722 H         1 UNK         0.0612 
@<TRIPOS>BOND
     1    1    2 1    
     2    1   62 1    
     3    1   63 1    
     4    1   64 1    
     5    2    3 2    
     6    2    4 am   BACKBONE|DICT|INTERRES
     7    4    5 1    
     8    4   65 1    
     9    5    6 1    
    10    5   25 1    
    11    5   66 1    
    12    6    7 1    
    13    6   67 1    
    14    6   68 1    
    15    7    8 1    
    16    8    9 1    
    17    8   69 1    
    18    8   70 1    
    19    9   10 ar   
    20    9   14 ar   
    21   10   11 ar   
    22   10   71 1    
    23   11   12 ar   
    24   11   61 1    
    25   12   13 ar   
    26   12   72 1    
    27   13   14 ar   
    28   13   15 1    
    29   14   73 1    
    30   15   16 1    
    31   15   74 1    
    32   15   75 1    
    33   16   17 1    
    34   17   18 1    
    35   17   76 1    
    36   17   77 1    
    37   18   19 1    
    38   18   27 1    
    39   18   78 1    
    40   19   20 am   BACKBONE|DICT|INTERRES
    41   19   79 1    
    42   20   21 2    
    43   20   22 1    
    44   22   23 1    
    45   22   24 1    
    46   22   80 1    
    47   23   81 1    
    48   23   82 1    
    49   23   83 1    
    50   24   25 am   BACKBONE|DICT|INTERRES
    51   24   84 1    
    52   25   26 2    
    53   27   28 2    
    54   27   29 am   BACKBONE|DICT|INTERRES
    55   29   30 1    
    56   29   85 1    
    57   30   31 1    
    58   30   32 1    
    59   30   86 1    
    60   31   87 1    
    61   31   88 1    
    62   31   89 1    
    63   32   33 2    
    64   32   34 am   BACKBONE|DICT|INTERRES
    65   34   35 1    
    66   34   90 1    
    67   35   36 1    
    68   35   37 1    
    69   35   91 1    
    70   36   92 1    
    71   36   93 1    
    72   36   94 1    
    73   37   38 2    
    74   37   39 am   BACKBONE|DICT|INTERRES
    75   39   40 1    
    76   39   95 1    
    77   40   41 1    
    78   40   42 1    
    79   40   96 1    
    80   41   97 1    
    81   41   98 1    
    82   41   99 1    
    83   42   43 2    
    84   42   44 am   BACKBONE|DICT|INTERRES
    85   44   45 1    
    86   44  100 1    
    87   45   46 1    
    88   45   47 1    
    89   45  101 1    
    90   46  102 1    
    91   46  103 1    
    92   46  104 1    
    93   47   48 2    
    94   47   49 am   BACKBONE|DICT|INTERRES
    95   49   50 1    
    96   49  105 1    
    97   50   51 1    
    98   50   52 1    
    99   50  106 1    
   100   51  107 1    
   101   51  108 1    
   102   51  109 1    
   103   52   53 2    
   104   52   54 am   BACKBONE|DICT|INTERRES
   105   54   55 1    
   106   54  110 1    
   107   55   56 1    
   108   55   59 1    
   109   55  111 1    
   110   56   57 am   BACKBONE|DICT|INTERRES
   111   56   58 2    
   112   57  112 1    
   113   57  113 1    
   114   59   60 1    
   115   59  114 1    
   116   59  115 1    
   117   60   61 1    
   118   61  116 1    
   119   61  117 1    
@<TRIPOS>SUBSTRUCTURE
     1 UNK         1 GROUP             0       ****    0 ROOT    
