@<TRIPOS>MOLECULE
3R8
117   119    1
SMALL
USER_CHARGES


@<TRIPOS>ATOM
      1 CA         19.1759  -27.0538  -38.9249 C.3       0 UNK        -0.2013 
      2 C          18.7490  -26.5177  -40.2827 C.2       0 UNK         0.4866 
      3 O          18.5845  -25.3068  -40.4371 O.2       0 UNK        -0.5176 
      4 N          18.5544  -27.4071  -41.2627 N.am      1 UNK        -0.4884 
      5 CA         18.1830  -27.0625  -42.6380 C.3       1 UNK         0.0853 
      6 C6         17.6354  -28.2832  -43.4139 C.3       10 UNK        -0.0849 
      7 S7         16.1429  -29.0071  -42.6513 S.3       10 UNK        -0.2776 
      8 C8         15.3464  -29.8288  -44.0724 C.3       10 UNK         0.0316 
      9 C9         16.3275  -30.6622  -44.8873 C.ar      10 UNK        -0.0863 
     10 C10        16.8302  -31.8654  -44.3826 C.ar      10 UNK        -0.1009 
     11 C11        17.7633  -32.6130  -45.1143 C.ar      10 UNK        -0.0712 
     12 C12        18.1772  -32.1434  -46.3661 C.ar      10 UNK        -0.0894 
     13 C13        17.6684  -30.9507  -46.8894 C.ar      10 UNK        -0.0745 
     14 C14        16.7394  -30.2189  -46.1466 C.ar      10 UNK        -0.0972 
     15 C15        18.1030  -30.4620  -48.2660 C.3       10 UNK         0.0209 
     16 S16        18.8971  -28.8229  -48.2091 S.3       10 UNK        -0.2568 
     17 C17        20.4194  -29.2063  -47.2848 C.3       10 UNK        -0.0983 
     18 CA         21.2893  -27.9517  -47.0255 C.3       3 UNK         0.0876 
     19 N          20.5512  -26.9290  -46.2784 N.am      3 UNK        -0.4424 
     20 C          20.9546  -25.6703  -46.0645 C.2       2 UNK         0.4918 
     21 O          21.9705  -25.1868  -46.5646 O.2       2 UNK        -0.4875 
     22 CA         20.0893  -24.7996  -45.1295 C.3       2 UNK         0.0481 
     23 CB         19.3579  -23.7151  -45.9376 C.3       2 UNK        -0.1831 
     24 N          19.1063  -25.5299  -44.3147 N.am      2 UNK        -0.4498 
     25 C          19.3869  -26.4618  -43.3906 C.2       1 UNK         0.5027 
     26 O          20.5234  -26.8893  -43.1738 O.2       1 UNK        -0.4969 
     27 C          22.6080  -28.3665  -46.3348 C.2       3 UNK         0.5005 
     28 O          23.5025  -28.8693  -47.0176 O.2       3 UNK        -0.5279 
     29 N          22.7064  -28.1705  -45.0124 N.am      4 UNK        -0.4463 
     30 CA         23.8718  -28.4959  -44.1950 C.3       4 UNK         0.0283 
     31 CB         23.4389  -29.5065  -43.1205 C.3       4 UNK        -0.1875 
     32 C          24.4382  -27.2193  -43.5556 C.2       4 UNK         0.4949 
     33 O          23.7208  -26.2303  -43.3957 O.2       4 UNK        -0.5039 
     34 N          25.7240  -27.2706  -43.1846 N.am      5 UNK        -0.4663 
     35 CA         26.4503  -26.1719  -42.5318 C.3       5 UNK         0.0242 
     36 CB         27.9534  -26.3401  -42.8127 C.3       5 UNK        -0.1982 
     37 C          26.1937  -26.0771  -41.0140 C.2       5 UNK         0.5017 
     38 O          26.6084  -25.0990  -40.3908 O.2       5 UNK        -0.5012 
     39 N          25.5353  -27.0913  -40.4476 N.am      6 UNK        -0.4439 
     40 CA         25.1457  -27.2255  -39.0488 C.3       6 UNK         0.0297 
     41 CB         26.3091  -27.8350  -38.2438 C.3       6 UNK        -0.2006 
     42 C          23.8957  -28.1141  -39.0048 C.2       6 UNK         0.4892 
     43 O          23.4824  -28.6322  -40.0458 O.2       6 UNK        -0.5089 
     44 N          23.3227  -28.3092  -37.8105 N.am      7 UNK        -0.4243 
     45 CA         22.1165  -29.1122  -37.5639 C.3       7 UNK         0.0196 
     46 CB         21.5185  -28.7108  -36.2025 C.3       7 UNK        -0.2007 
     47 C          22.3272  -30.6382  -37.6986 C.2       7 UNK         0.5020 
     48 O          21.9108  -31.4022  -36.8268 O.2       7 UNK        -0.5147 
     49 N          22.9559  -31.0593  -38.8014 N.am      8 UNK        -0.4734 
     50 CA         23.1370  -32.4568  -39.2011 C.3       8 UNK         0.0238 
     51 CB         24.3168  -32.5461  -40.1828 C.3       8 UNK        -0.1912 
     52 C          21.8665  -33.0556  -39.8308 C.2       8 UNK         0.5038 
     53 O          21.7081  -34.2767  -39.8202 O.2       8 UNK        -0.5046 
     54 N          20.9907  -32.1931  -40.3580 N.am      9 UNK        -0.4200 
     55 CA         19.6769  -32.5229  -40.9109 C.3       9 UNK         0.0839 
     56 C          18.7314  -31.3067  -40.7556 C.2       9 UNK         0.5513 
     57 N          17.4328  -31.5407  -40.6441 N.am      9 UNK        -0.7519 
     58 O          19.1655  -30.1559  -40.7466 O.2       9 UNK        -0.4960 
     59 C59        19.7700  -33.0229  -42.3789 C.3       10 UNK        -0.0876 
     60 S60        18.3935  -34.1413  -42.8023 S.3       10 UNK        -0.2414 
     61 C61        18.3078  -33.9529  -44.6157 C.3       10 UNK         0.0169 
     62 H62        20.1950  -26.7386  -38.7030 H         1 UNK         0.0903 
     63 H63        18.5214  -26.6669  -38.1445 H         1 UNK         0.0903 
     64 H64        19.1339  -28.1421  -38.8887 H         1 UNK         0.0903 
     65 H65        18.7377  -28.3949  -41.0923 H         1 UNK         0.3096 
     66 H66        17.3968  -26.3053  -42.5910 H         1 UNK         0.1121 
     67 H67        18.3936  -29.0663  -43.4883 H         1 UNK         0.0849 
     68 H68        17.3880  -27.9937  -44.4368 H         1 UNK         0.0849 
     69 H69        14.5411  -30.4681  -43.7080 H         1 UNK         0.0865 
     70 H70        14.8723  -29.0708  -44.6979 H         1 UNK         0.0865 
     71 H71        16.4940  -32.2084  -43.4143 H         1 UNK         0.1346 
     72 H72        18.8886  -32.7184  -46.9434 H         1 UNK         0.1412 
     73 H73        16.3485  -29.2940  -46.5488 H         1 UNK         0.1426 
     74 H74        17.2258  -30.4045  -48.9119 H         1 UNK         0.0716 
     75 H75        18.7848  -31.1715  -48.7375 H         1 UNK         0.0716 
     76 H76        20.9780  -29.9505  -47.8563 H         1 UNK         0.0695 
     77 H77        20.1467  -29.6820  -46.3403 H         1 UNK         0.0695 
     78 H78        21.5623  -27.5186  -47.9904 H         1 UNK         0.0983 
     79 H79        19.6849  -27.2292  -45.8595 H         1 UNK         0.3095 
     80 H80        20.7747  -24.3037  -44.4392 H         1 UNK         0.0454 
     81 H81        20.0609  -23.1236  -46.5261 H         1 UNK         0.0851 
     82 H82        18.8260  -23.0221  -45.2855 H         1 UNK         0.0851 
     83 H83        18.6364  -24.1471  -46.6322 H         1 UNK         0.0851 
     84 H84        18.1419  -25.2580  -44.4446 H         1 UNK         0.2976 
     85 H85        21.9652  -27.6742  -44.5257 H         1 UNK         0.3116 
     86 H86        24.6583  -28.9481  -44.8027 H         1 UNK         0.0646 
     87 H87        24.2673  -29.7643  -42.4601 H         1 UNK         0.0847 
     88 H88        22.6330  -29.1099  -42.5009 H         1 UNK         0.0847 
     89 H89        23.0841  -30.4340  -43.5700 H         1 UNK         0.0847 
     90 H90        26.2470  -28.1193  -43.3515 H         1 UNK         0.3040 
     91 H91        26.1256  -25.2253  -42.9703 H         1 UNK         0.1015 
     92 H92        28.5271  -25.5191  -42.3799 H         1 UNK         0.0786 
     93 H93        28.1593  -26.3455  -43.8832 H         1 UNK         0.0786 
     94 H94        28.3425  -27.2671  -42.3895 H         1 UNK         0.0786 
     95 H95        25.1421  -27.8075  -41.0458 H         1 UNK         0.3172 
     96 H96        24.8835  -26.2453  -38.6456 H         1 UNK         0.0595 
     97 H97        26.5632  -28.8348  -38.5987 H         1 UNK         0.0839 
     98 H98        26.0623  -27.9163  -37.1849 H         1 UNK         0.0839 
     99 H99        27.2057  -27.2190  -38.3154 H         1 UNK         0.0839 
    100 H100       23.7446  -27.8800  -36.9994 H         1 UNK         0.2998 
    101 H101       21.3861  -28.8504  -38.3307 H         1 UNK         0.0822 
    102 H102       20.5774  -29.2309  -36.0179 H         1 UNK         0.0787 
    103 H103       22.1928  -28.9522  -35.3799 H         1 UNK         0.0787 
    104 H104       21.3051  -27.6424  -36.1615 H         1 UNK         0.0787 
    105 H105       23.2574  -30.3410  -39.4576 H         1 UNK         0.3055 
    106 H106       23.3765  -33.0490  -38.3148 H         1 UNK         0.1106 
    107 H107       25.2360  -32.1698  -39.7336 H         1 UNK         0.0828 
    108 H108       24.5010  -33.5800  -40.4782 H         1 UNK         0.0828 
    109 H109       24.1297  -31.9754  -41.0931 H         1 UNK         0.0828 
    110 H110       21.1796  -31.2013  -40.2997 H         1 UNK         0.2931 
    111 H111       19.2712  -33.3221  -40.2863 H         1 UNK         0.0412 
    112 H112       16.8007  -30.7582  -40.5797 H         1 UNK         0.3472 
    113 H113       17.0726  -32.4816  -40.6709 H         1 UNK         0.3472 
    114 H114       19.8122  -32.1863  -43.0796 H         1 UNK         0.0970 
    115 H115       20.6911  -33.5870  -42.5325 H         1 UNK         0.0970 
    116 H116       17.6686  -34.7441  -45.0091 H         1 UNK         0.0612 
    117 H117       19.3041  -34.1305  -45.0239 H         1 UNK         0.0612 
@<TRIPOS>BOND
     1    1    2 1    
     2    1   62 1    
     3    1   63 1    
     4    1   64 1    
     5    2    3 2    
     6    2    4 am   BACKBONE|DICT|INTERRES
     7    4    5 1    
     8    4   65 1    
     9    5    6 1    
    10    5   25 1    
    11    5   66 1    
    12    6    7 1    
    13    6   67 1    
    14    6   68 1    
    15    7    8 1    
    16    8    9 1    
    17    8   69 1    
    18    8   70 1    
    19    9   10 ar   
    20    9   14 ar   
    21   10   11 ar   
    22   10   71 1    
    23   11   12 ar   
    24   11   61 1    
    25   12   13 ar   
    26   12   72 1    
    27   13   14 ar   
    28   13   15 1    
    29   14   73 1    
    30   15   16 1    
    31   15   74 1    
    32   15   75 1    
    33   16   17 1    
    34   17   18 1    
    35   17   76 1    
    36   17   77 1    
    37   18   19 1    
    38   18   27 1    
    39   18   78 1    
    40   19   20 am   BACKBONE|DICT|INTERRES
    41   19   79 1    
    42   20   21 2    
    43   20   22 1    
    44   22   23 1    
    45   22   24 1    
    46   22   80 1    
    47   23   81 1    
    48   23   82 1    
    49   23   83 1    
    50   24   25 am   BACKBONE|DICT|INTERRES
    51   24   84 1    
    52   25   26 2    
    53   27   28 2    
    54   27   29 am   BACKBONE|DICT|INTERRES
    55   29   30 1    
    56   29   85 1    
    57   30   31 1    
    58   30   32 1    
    59   30   86 1    
    60   31   87 1    
    61   31   88 1    
    62   31   89 1    
    63   32   33 2    
    64   32   34 am   BACKBONE|DICT|INTERRES
    65   34   35 1    
    66   34   90 1    
    67   35   36 1    
    68   35   37 1    
    69   35   91 1    
    70   36   92 1    
    71   36   93 1    
    72   36   94 1    
    73   37   38 2    
    74   37   39 am   BACKBONE|DICT|INTERRES
    75   39   40 1    
    76   39   95 1    
    77   40   41 1    
    78   40   42 1    
    79   40   96 1    
    80   41   97 1    
    81   41   98 1    
    82   41   99 1    
    83   42   43 2    
    84   42   44 am   BACKBONE|DICT|INTERRES
    85   44   45 1    
    86   44  100 1    
    87   45   46 1    
    88   45   47 1    
    89   45  101 1    
    90   46  102 1    
    91   46  103 1    
    92   46  104 1    
    93   47   48 2    
    94   47   49 am   BACKBONE|DICT|INTERRES
    95   49   50 1    
    96   49  105 1    
    97   50   51 1    
    98   50   52 1    
    99   50  106 1    
   100   51  107 1    
   101   51  108 1    
   102   51  109 1    
   103   52   53 2    
   104   52   54 am   BACKBONE|DICT|INTERRES
   105   54   55 1    
   106   54  110 1    
   107   55   56 1    
   108   55   59 1    
   109   55  111 1    
   110   56   57 am   BACKBONE|DICT|INTERRES
   111   56   58 2    
   112   57  112 1    
   113   57  113 1    
   114   59   60 1    
   115   59  114 1    
   116   59  115 1    
   117   60   61 1    
   118   61  116 1    
   119   61  117 1    
@<TRIPOS>SUBSTRUCTURE
     1 UNK         1 GROUP             0       ****    0 ROOT    
