@<TRIPOS>MOLECULE
3R8
117   119    1
SMALL
USER_CHARGES


@<TRIPOS>ATOM
      1 CA         15.0265  -22.0508  -43.8688 C.3       0 UNK        -0.2013 
      2 C          15.8088  -23.0108  -44.7525 C.2       0 UNK         0.4866 
      3 O          16.0555  -22.7039  -45.9190 O.2       0 UNK        -0.5176 
      4 N          16.1951  -24.1720  -44.2068 N.am      1 UNK        -0.4884 
      5 CA         16.9623  -25.2144  -44.9011 C.3       1 UNK         0.0853 
      6 C6         17.0015  -26.5329  -44.0820 C.3       10 UNK        -0.0849 
      7 S7         15.5909  -27.6183  -44.4779 S.3       10 UNK        -0.2776 
      8 C8         15.9921  -29.1432  -43.5435 C.3       10 UNK         0.0316 
      9 C9         17.3465  -29.7868  -43.8581 C.ar      10 UNK        -0.0863 
     10 C10        17.9571  -30.5853  -42.8848 C.ar      10 UNK        -0.1009 
     11 C11        19.2135  -31.1574  -43.1092 C.ar      10 UNK        -0.0712 
     12 C12        19.8713  -30.9166  -44.3192 C.ar      10 UNK        -0.0894 
     13 C13        19.2662  -30.1423  -45.3116 C.ar      10 UNK        -0.0745 
     14 C14        17.9953  -29.6065  -45.0858 C.ar      10 UNK        -0.0972 
     15 C15        19.9644  -29.8971  -46.6404 C.3       10 UNK         0.0209 
     16 S16        20.3101  -28.1280  -46.9078 S.3       10 UNK        -0.2568 
     17 C17        22.0078  -27.9199  -46.2667 C.3       10 UNK        -0.0983 
     18 CA         22.1425  -27.0316  -45.0011 C.3       3 UNK         0.0876 
     19 N          21.3401  -25.7998  -45.0580 N.am      3 UNK        -0.4424 
     20 C          21.4727  -24.7487  -44.2360 C.2       2 UNK         0.4918 
     21 O          22.3212  -24.6959  -43.3460 O.2       2 UNK        -0.4875 
     22 CA         20.4566  -23.5975  -44.3686 C.3       2 UNK         0.0481 
     23 CB         20.7676  -22.7062  -45.5867 C.3       2 UNK        -0.1831 
     24 N          19.0526  -24.0400  -44.3428 N.am      2 UNK        -0.4498 
     25 C          18.3929  -24.7640  -45.2603 C.2       1 UNK         0.5027 
     26 O          18.8801  -25.1133  -46.3350 O.2       1 UNK        -0.4969 
     27 C          21.9607  -27.8308  -43.6929 C.2       3 UNK         0.5005 
     28 O          22.8568  -28.5951  -43.3342 O.2       3 UNK        -0.5279 
     29 N          20.8724  -27.5726  -42.9526 N.am      4 UNK        -0.4463 
     30 CA         20.6255  -28.0636  -41.5926 C.3       4 UNK         0.0283 
     31 CB         19.2136  -27.6396  -41.1570 C.3       4 UNK        -0.1875 
     32 C          21.6595  -27.5941  -40.5487 C.2       4 UNK         0.4949 
     33 O          21.7602  -28.2117  -39.4894 O.2       4 UNK        -0.5039 
     34 N          22.4012  -26.5163  -40.8449 N.am      5 UNK        -0.4663 
     35 CA         23.5170  -26.0405  -40.0241 C.3       5 UNK         0.0242 
     36 CB         23.6548  -24.5193  -40.2029 C.3       5 UNK        -0.1982 
     37 C          24.8459  -26.7422  -40.3635 C.2       5 UNK         0.5017 
     38 O          25.7894  -26.6274  -39.5802 O.2       5 UNK        -0.5012 
     39 N          24.9146  -27.4249  -41.5157 N.am      6 UNK        -0.4439 
     40 CA         26.1099  -28.1021  -42.0186 C.3       6 UNK         0.0297 
     41 CB         26.3079  -27.7574  -43.5054 C.3       6 UNK        -0.2006 
     42 C          26.0071  -29.6192  -41.8158 C.2       6 UNK         0.4892 
     43 O          26.9175  -30.2140  -41.2375 O.2       6 UNK        -0.5089 
     44 N          24.9083  -30.2169  -42.2923 N.am      7 UNK        -0.4243 
     45 CA         24.6059  -31.6379  -42.1426 C.3       7 UNK         0.0196 
     46 CB         23.7358  -32.0875  -43.3264 C.3       7 UNK        -0.2007 
     47 C          23.8725  -31.8813  -40.8182 C.2       7 UNK         0.5020 
     48 O          23.0286  -31.0730  -40.4306 O.2       7 UNK        -0.5147 
     49 N          24.1820  -33.0041  -40.1599 N.am      8 UNK        -0.4734 
     50 CA         23.5324  -33.4103  -38.9102 C.3       8 UNK         0.0238 
     51 CB         24.4494  -34.3819  -38.1486 C.3       8 UNK        -0.1912 
     52 C          22.1484  -34.0415  -39.1360 C.2       8 UNK         0.5038 
     53 O          21.2646  -33.8592  -38.2981 O.2       8 UNK        -0.5046 
     54 N          21.9983  -34.7844  -40.2437 N.am      9 UNK        -0.4200 
     55 CA         20.8029  -35.5688  -40.6088 C.3       9 UNK         0.0839 
     56 C          20.4391  -36.7048  -39.5999 C.2       9 UNK         0.5513 
     57 N          21.3780  -37.1996  -38.8016 N.am      9 UNK        -0.7519 
     58 O          19.3037  -37.1722  -39.5576 O.2       9 UNK        -0.4960 
     59 C59        19.5877  -34.6749  -40.9921 C.3       10 UNK        -0.0876 
     60 S60        19.8584  -33.7783  -42.5590 S.3       10 UNK        -0.2414 
     61 C61        19.8583  -32.0330  -42.0439 C.3       10 UNK         0.0169 
     62 H62        15.5589  -21.1041  -43.7804 H         1 UNK         0.0903 
     63 H63        14.0482  -21.8519  -44.3055 H         1 UNK         0.0903 
     64 H64        14.8749  -22.4493  -42.8658 H         1 UNK         0.0903 
     65 H65        15.9344  -24.3777  -43.2525 H         1 UNK         0.3096 
     66 H66        16.4678  -25.4051  -45.8569 H         1 UNK         0.1121 
     67 H67        17.0123  -26.3336  -43.0092 H         1 UNK         0.0849 
     68 H68        17.9152  -27.0931  -44.2828 H         1 UNK         0.0849 
     69 H69        15.9378  -28.9069  -42.4795 H         1 UNK         0.0865 
     70 H70        15.2100  -29.8793  -43.7332 H         1 UNK         0.0865 
     71 H71        17.4551  -30.7558  -41.9420 H         1 UNK         0.1346 
     72 H72        20.8441  -31.3517  -44.4957 H         1 UNK         0.1412 
     73 H73        17.5319  -29.0181  -45.8654 H         1 UNK         0.1426 
     74 H74        20.8827  -30.4799  -46.7236 H         1 UNK         0.0716 
     75 H75        19.3125  -30.2457  -47.4425 H         1 UNK         0.0716 
     76 H76        22.4764  -28.8943  -46.1155 H         1 UNK         0.0695 
     77 H77        22.5798  -27.4576  -47.0726 H         1 UNK         0.0695 
     78 H78        23.1842  -26.7033  -44.9724 H         1 UNK         0.0983 
     79 H79        20.5955  -25.7759  -45.7508 H         1 UNK         0.3095 
     80 H80        20.5762  -22.9747  -43.4806 H         1 UNK         0.0454 
     81 H81        20.7152  -23.2549  -46.5272 H         1 UNK         0.0851 
     82 H82        20.0745  -21.8675  -45.6501 H         1 UNK         0.0851 
     83 H83        21.7732  -22.2903  -45.5141 H         1 UNK         0.0851 
     84 H84        18.5477  -23.8064  -43.4988 H         1 UNK         0.2976 
     85 H85        20.1948  -26.9306  -43.3321 H         1 UNK         0.3116 
     86 H86        20.6709  -29.1535  -41.6212 H         1 UNK         0.0646 
     87 H87        19.1140  -26.5546  -41.1076 H         1 UNK         0.0847 
     88 H88        18.9770  -28.0336  -40.1676 H         1 UNK         0.0847 
     89 H89        18.4548  -28.0168  -41.8395 H         1 UNK         0.0847 
     90 H90        22.2450  -26.0279  -41.7201 H         1 UNK         0.3040 
     91 H91        23.3037  -26.2380  -38.9710 H         1 UNK         0.1015 
     92 H92        22.7261  -24.0039  -39.9574 H         1 UNK         0.0786 
     93 H93        23.9259  -24.2549  -41.2256 H         1 UNK         0.0786 
     94 H94        24.4300  -24.1186  -39.5483 H         1 UNK         0.0786 
     95 H95        24.0664  -27.5476  -42.0568 H         1 UNK         0.3172 
     96 H96        26.9948  -27.7539  -41.4814 H         1 UNK         0.0595 
     97 H97        26.4399  -26.6847  -43.6469 H         1 UNK         0.0839 
     98 H98        25.4625  -28.0725  -44.1179 H         1 UNK         0.0839 
     99 H99        27.1976  -28.2478  -43.9027 H         1 UNK         0.0839 
    100 H100       24.1694  -29.6447  -42.6985 H         1 UNK         0.2998 
    101 H101       25.5342  -32.2133  -42.1543 H         1 UNK         0.0822 
    102 H102       24.2639  -31.9714  -44.2729 H         1 UNK         0.0787 
    103 H103       23.4526  -33.1369  -43.2352 H         1 UNK         0.0787 
    104 H104       22.8182  -31.5032  -43.3832 H         1 UNK         0.0787 
    105 H105       24.8940  -33.6169  -40.5323 H         1 UNK         0.3055 
    106 H106       23.3876  -32.5251  -38.2855 H         1 UNK         0.1106 
    107 H107       23.9929  -34.6915  -37.2071 H         1 UNK         0.0828 
    108 H108       24.6551  -35.2853  -38.7237 H         1 UNK         0.0828 
    109 H109       25.4039  -33.9154  -37.9040 H         1 UNK         0.0828 
    110 H110       22.7846  -34.8708  -40.8697 H         1 UNK         0.2931 
    111 H111       21.0888  -36.1150  -41.5086 H         1 UNK         0.0412 
    112 H112       21.1394  -37.9403  -38.1606 H         1 UNK         0.3472 
    113 H113       22.3197  -36.8445  -38.8344 H         1 UNK         0.3472 
    114 H114       19.3385  -33.9893  -40.1818 H         1 UNK         0.0970 
    115 H115       18.6936  -35.2807  -41.1475 H         1 UNK         0.0970 
    116 H116       20.8842  -31.7102  -41.8712 H         1 UNK         0.0612 
    117 H117       19.3350  -31.9151  -41.0945 H         1 UNK         0.0612 
@<TRIPOS>BOND
     1    1    2 1    
     2    1   62 1    
     3    1   63 1    
     4    1   64 1    
     5    2    3 2    
     6    2    4 am   BACKBONE|DICT|INTERRES
     7    4    5 1    
     8    4   65 1    
     9    5    6 1    
    10    5   25 1    
    11    5   66 1    
    12    6    7 1    
    13    6   67 1    
    14    6   68 1    
    15    7    8 1    
    16    8    9 1    
    17    8   69 1    
    18    8   70 1    
    19    9   10 ar   
    20    9   14 ar   
    21   10   11 ar   
    22   10   71 1    
    23   11   12 ar   
    24   11   61 1    
    25   12   13 ar   
    26   12   72 1    
    27   13   14 ar   
    28   13   15 1    
    29   14   73 1    
    30   15   16 1    
    31   15   74 1    
    32   15   75 1    
    33   16   17 1    
    34   17   18 1    
    35   17   76 1    
    36   17   77 1    
    37   18   19 1    
    38   18   27 1    
    39   18   78 1    
    40   19   20 am   BACKBONE|DICT|INTERRES
    41   19   79 1    
    42   20   21 2    
    43   20   22 1    
    44   22   23 1    
    45   22   24 1    
    46   22   80 1    
    47   23   81 1    
    48   23   82 1    
    49   23   83 1    
    50   24   25 am   BACKBONE|DICT|INTERRES
    51   24   84 1    
    52   25   26 2    
    53   27   28 2    
    54   27   29 am   BACKBONE|DICT|INTERRES
    55   29   30 1    
    56   29   85 1    
    57   30   31 1    
    58   30   32 1    
    59   30   86 1    
    60   31   87 1    
    61   31   88 1    
    62   31   89 1    
    63   32   33 2    
    64   32   34 am   BACKBONE|DICT|INTERRES
    65   34   35 1    
    66   34   90 1    
    67   35   36 1    
    68   35   37 1    
    69   35   91 1    
    70   36   92 1    
    71   36   93 1    
    72   36   94 1    
    73   37   38 2    
    74   37   39 am   BACKBONE|DICT|INTERRES
    75   39   40 1    
    76   39   95 1    
    77   40   41 1    
    78   40   42 1    
    79   40   96 1    
    80   41   97 1    
    81   41   98 1    
    82   41   99 1    
    83   42   43 2    
    84   42   44 am   BACKBONE|DICT|INTERRES
    85   44   45 1    
    86   44  100 1    
    87   45   46 1    
    88   45   47 1    
    89   45  101 1    
    90   46  102 1    
    91   46  103 1    
    92   46  104 1    
    93   47   48 2    
    94   47   49 am   BACKBONE|DICT|INTERRES
    95   49   50 1    
    96   49  105 1    
    97   50   51 1    
    98   50   52 1    
    99   50  106 1    
   100   51  107 1    
   101   51  108 1    
   102   51  109 1    
   103   52   53 2    
   104   52   54 am   BACKBONE|DICT|INTERRES
   105   54   55 1    
   106   54  110 1    
   107   55   56 1    
   108   55   59 1    
   109   55  111 1    
   110   56   57 am   BACKBONE|DICT|INTERRES
   111   56   58 2    
   112   57  112 1    
   113   57  113 1    
   114   59   60 1    
   115   59  114 1    
   116   59  115 1    
   117   60   61 1    
   118   61  116 1    
   119   61  117 1    
@<TRIPOS>SUBSTRUCTURE
     1 UNK         1 GROUP             0       ****    0 ROOT    
