@<TRIPOS>MOLECULE
3R8
117   119    1
SMALL
USER_CHARGES


@<TRIPOS>ATOM
      1 CA         14.1625  -23.8864  -45.7937 C.3       0 UNK        -0.2013 
      2 C          15.6731  -23.7451  -45.6802 C.2       0 UNK         0.4866 
      3 O          16.1639  -22.6711  -45.3300 O.2       0 UNK        -0.5176 
      4 N          16.4145  -24.8174  -45.9825 N.am      1 UNK        -0.4884 
      5 CA         17.8729  -24.8942  -45.8531 C.3       1 UNK         0.0853 
      6 C6         18.4612  -26.0422  -46.7154 C.3       10 UNK        -0.0849 
      7 S7         17.7412  -27.6854  -46.3644 S.3       10 UNK        -0.2776 
      8 C8         19.1012  -28.4574  -45.4391 C.3       10 UNK         0.0316 
      9 C9         18.6116  -29.6612  -44.6538 C.ar      10 UNK        -0.0863 
     10 C10        18.5574  -30.9234  -45.2521 C.ar      10 UNK        -0.1009 
     11 C11        18.1129  -32.0319  -44.5253 C.ar      10 UNK        -0.0712 
     12 C12        17.7424  -31.8730  -43.1863 C.ar      10 UNK        -0.0894 
     13 C13        17.7896  -30.6149  -42.5785 C.ar      10 UNK        -0.0745 
     14 C14        18.2107  -29.5098  -43.3235 C.ar      10 UNK        -0.0972 
     15 C15        17.3599  -30.4532  -41.1274 C.3       10 UNK         0.0209 
     16 S16        18.7822  -30.1906  -40.0185 S.3       10 UNK        -0.2568 
     17 C17        18.9335  -28.3710  -40.0023 C.3       10 UNK        -0.0983 
     18 CA         20.1587  -27.8429  -40.7953 C.3       3 UNK         0.0876 
     19 N          19.8647  -26.5213  -41.3695 N.am      3 UNK        -0.4424 
     20 C          20.5695  -25.9017  -42.3234 C.2       2 UNK         0.4918 
     21 O          21.5812  -26.3685  -42.8495 O.2       2 UNK        -0.4875 
     22 CA         20.0825  -24.4993  -42.7213 C.3       2 UNK         0.0481 
     23 CB         21.2220  -23.4693  -42.6527 C.3       2 UNK        -0.1831 
     24 N          19.5064  -24.4970  -44.0648 N.am      2 UNK        -0.4498 
     25 C          18.3005  -24.9934  -44.3710 C.2       1 UNK         0.5027 
     26 O          17.5503  -25.5163  -43.5414 O.2       1 UNK        -0.4969 
     27 C          21.4474  -27.8682  -39.9383 C.2       3 UNK         0.5005 
     28 O          21.9501  -28.9496  -39.6325 O.2       3 UNK        -0.5279 
     29 N          21.9589  -26.6877  -39.5580 N.am      4 UNK        -0.4463 
     30 CA         23.2565  -26.5175  -38.9028 C.3       4 UNK         0.0283 
     31 CB         23.2463  -25.2205  -38.0776 C.3       4 UNK        -0.1875 
     32 C          24.4184  -26.5005  -39.9118 C.2       4 UNK         0.4949 
     33 O          25.5013  -26.9835  -39.5829 O.2       4 UNK        -0.5039 
     34 N          24.1845  -25.9420  -41.1102 N.am      5 UNK        -0.4663 
     35 CA         25.1671  -25.8797  -42.1966 C.3       5 UNK         0.0242 
     36 CB         24.8189  -24.7351  -43.1620 C.3       5 UNK        -0.1982 
     37 C          25.2358  -27.2221  -42.9331 C.2       5 UNK         0.5017 
     38 O          26.3157  -27.8019  -43.0513 O.2       5 UNK        -0.5012 
     39 N          24.0661  -27.7296  -43.3440 N.am      6 UNK        -0.4439 
     40 CA         23.8658  -29.1046  -43.7945 C.3       6 UNK         0.0297 
     41 CB         22.6943  -29.1396  -44.7930 C.3       6 UNK        -0.2006 
     42 C          23.6067  -29.9685  -42.5515 C.2       6 UNK         0.4892 
     43 O          22.4720  -30.3958  -42.3420 O.2       6 UNK        -0.5089 
     44 N          24.6593  -30.1213  -41.7314 N.am      7 UNK        -0.4243 
     45 CA         24.6978  -30.6685  -40.3699 C.3       7 UNK         0.0196 
     46 CB         26.1693  -30.8514  -39.9580 C.3       7 UNK        -0.2007 
     47 C          23.8977  -31.9684  -40.1884 C.2       7 UNK         0.5020 
     48 O          24.4240  -33.0486  -40.4607 O.2       7 UNK        -0.5147 
     49 N          22.6289  -31.8300  -39.7777 N.am      8 UNK        -0.4734 
     50 CA         21.6267  -32.8971  -39.6332 C.3       8 UNK         0.0238 
     51 CB         21.9683  -33.7958  -38.4258 C.3       8 UNK        -0.1912 
     52 C          21.4000  -33.7021  -40.9332 C.2       8 UNK         0.5038 
     53 O          21.1892  -34.9152  -40.8767 O.2       8 UNK        -0.5046 
     54 N          21.4724  -33.0106  -42.0778 N.am      9 UNK        -0.4200 
     55 CA         21.4716  -33.5555  -43.4434 C.3       9 UNK         0.0839 
     56 C          22.8099  -34.2338  -43.8729 C.2       9 UNK         0.5513 
     57 N          23.8808  -34.1774  -43.0902 N.am      9 UNK        -0.7519 
     58 O          22.8974  -34.8045  -44.9568 O.2       9 UNK        -0.4960 
     59 C59        20.2178  -34.4250  -43.7598 C.3       10 UNK        -0.0876 
     60 S60        19.6175  -34.1792  -45.4669 S.3       10 UNK        -0.2414 
     61 C61        17.9988  -33.3944  -45.1951 C.3       10 UNK         0.0169 
     62 H62        13.6951  -23.7004  -44.8270 H         1 UNK         0.0903 
     63 H63        13.7701  -23.1624  -46.5074 H         1 UNK         0.0903 
     64 H64        13.8699  -24.8824  -46.1256 H         1 UNK         0.0903 
     65 H65        15.9639  -25.6889  -46.2257 H         1 UNK         0.3096 
     66 H66        18.2799  -23.9565  -46.2396 H         1 UNK         0.1121 
     67 H67        18.2754  -25.8259  -47.7687 H         1 UNK         0.0849 
     68 H68        19.5484  -26.0810  -46.6217 H         1 UNK         0.0849 
     69 H69        19.8902  -28.7524  -46.1326 H         1 UNK         0.0865 
     70 H70        19.5461  -27.7318  -44.7565 H         1 UNK         0.0865 
     71 H71        18.8506  -31.0430  -46.2863 H         1 UNK         0.1346 
     72 H72        17.4017  -32.7289  -42.6199 H         1 UNK         0.1412 
     73 H73        18.2288  -28.5295  -42.8680 H         1 UNK         0.1426 
     74 H74        16.6408  -29.6381  -41.0383 H         1 UNK         0.0716 
     75 H75        16.8329  -31.3477  -40.7918 H         1 UNK         0.0716 
     76 H76        18.0118  -27.9536  -40.4095 H         1 UNK         0.0695 
     77 H77        18.9585  -28.0335  -38.9642 H         1 UNK         0.0695 
     78 H78        20.3489  -28.5137  -41.6368 H         1 UNK         0.0983 
     79 H79        19.0391  -26.0599  -41.0140 H         1 UNK         0.3095 
     80 H80        19.3138  -24.1806  -42.0136 H         1 UNK         0.0454 
     81 H81        21.9777  -23.6480  -43.4165 H         1 UNK         0.0851 
     82 H82        20.8444  -22.4566  -42.7945 H         1 UNK         0.0851 
     83 H83        21.7208  -23.4923  -41.6830 H         1 UNK         0.0851 
     84 H84        20.0837  -24.1137  -44.7997 H         1 UNK         0.2976 
     85 H85        21.4489  -25.8499  -39.7942 H         1 UNK         0.3116 
     86 H86        23.4218  -27.3514  -38.2168 H         1 UNK         0.0646 
     87 H87        23.0860  -24.3406  -38.7018 H         1 UNK         0.0847 
     88 H88        22.4656  -25.2404  -37.3170 H         1 UNK         0.0847 
     89 H89        24.1964  -25.0824  -37.5596 H         1 UNK         0.0847 
     90 H90        23.2531  -25.6183  -41.3233 H         1 UNK         0.3040 
     91 H91        26.1523  -25.6752  -41.7705 H         1 UNK         0.1015 
     92 H92        23.8843  -24.9184  -43.6917 H         1 UNK         0.0786 
     93 H93        25.5976  -24.6178  -43.9167 H         1 UNK         0.0786 
     94 H94        24.7305  -23.7835  -42.6377 H         1 UNK         0.0786 
     95 H95        23.2173  -27.1957  -43.1668 H         1 UNK         0.3172 
     96 H96        24.7596  -29.4769  -44.2996 H         1 UNK         0.0595 
     97 H97        22.5075  -30.1563  -45.1411 H         1 UNK         0.0839 
     98 H98        22.8997  -28.5252  -45.6695 H         1 UNK         0.0839 
     99 H99        21.7725  -28.7770  -44.3377 H         1 UNK         0.0839 
    100 H100       25.5212  -29.6899  -42.0396 H         1 UNK         0.2998 
    101 H101       24.2762  -29.9144  -39.7054 H         1 UNK         0.0822 
    102 H102       26.2446  -31.2664  -38.9519 H         1 UNK         0.0787 
    103 H103       26.6964  -31.5287  -40.6313 H         1 UNK         0.0787 
    104 H104       26.7003  -29.8990  -39.9544 H         1 UNK         0.0787 
    105 H105       22.2810  -30.8772  -39.6722 H         1 UNK         0.3055 
    106 H106       20.6788  -32.4026  -39.4187 H         1 UNK         0.1106 
    107 H107       22.1004  -33.2072  -37.5181 H         1 UNK         0.0828 
    108 H108       21.1688  -34.5119  -38.2317 H         1 UNK         0.0828 
    109 H109       22.8824  -34.3665  -38.5926 H         1 UNK         0.0828 
    110 H110       21.7032  -32.0192  -42.0231 H         1 UNK         0.2931 
    111 H111       21.4139  -32.6557  -44.0573 H         1 UNK         0.0412 
    112 H112       23.8555  -33.7299  -42.1792 H         1 UNK         0.3472 
    113 H113       24.7322  -34.6173  -43.4005 H         1 UNK         0.3472 
    114 H114       20.4246  -35.4851  -43.6024 H         1 UNK         0.0970 
    115 H115       19.4069  -34.1907  -43.0705 H         1 UNK         0.0970 
    116 H116       17.5008  -33.2786  -46.1588 H         1 UNK         0.0612 
    117 H117       17.3700  -34.0653  -44.6076 H         1 UNK         0.0612 
@<TRIPOS>BOND
     1    1    2 1    
     2    1   62 1    
     3    1   63 1    
     4    1   64 1    
     5    2    3 2    
     6    2    4 am   BACKBONE|DICT|INTERRES
     7    4    5 1    
     8    4   65 1    
     9    5    6 1    
    10    5   25 1    
    11    5   66 1    
    12    6    7 1    
    13    6   67 1    
    14    6   68 1    
    15    7    8 1    
    16    8    9 1    
    17    8   69 1    
    18    8   70 1    
    19    9   10 ar   
    20    9   14 ar   
    21   10   11 ar   
    22   10   71 1    
    23   11   12 ar   
    24   11   61 1    
    25   12   13 ar   
    26   12   72 1    
    27   13   14 ar   
    28   13   15 1    
    29   14   73 1    
    30   15   16 1    
    31   15   74 1    
    32   15   75 1    
    33   16   17 1    
    34   17   18 1    
    35   17   76 1    
    36   17   77 1    
    37   18   19 1    
    38   18   27 1    
    39   18   78 1    
    40   19   20 am   BACKBONE|DICT|INTERRES
    41   19   79 1    
    42   20   21 2    
    43   20   22 1    
    44   22   23 1    
    45   22   24 1    
    46   22   80 1    
    47   23   81 1    
    48   23   82 1    
    49   23   83 1    
    50   24   25 am   BACKBONE|DICT|INTERRES
    51   24   84 1    
    52   25   26 2    
    53   27   28 2    
    54   27   29 am   BACKBONE|DICT|INTERRES
    55   29   30 1    
    56   29   85 1    
    57   30   31 1    
    58   30   32 1    
    59   30   86 1    
    60   31   87 1    
    61   31   88 1    
    62   31   89 1    
    63   32   33 2    
    64   32   34 am   BACKBONE|DICT|INTERRES
    65   34   35 1    
    66   34   90 1    
    67   35   36 1    
    68   35   37 1    
    69   35   91 1    
    70   36   92 1    
    71   36   93 1    
    72   36   94 1    
    73   37   38 2    
    74   37   39 am   BACKBONE|DICT|INTERRES
    75   39   40 1    
    76   39   95 1    
    77   40   41 1    
    78   40   42 1    
    79   40   96 1    
    80   41   97 1    
    81   41   98 1    
    82   41   99 1    
    83   42   43 2    
    84   42   44 am   BACKBONE|DICT|INTERRES
    85   44   45 1    
    86   44  100 1    
    87   45   46 1    
    88   45   47 1    
    89   45  101 1    
    90   46  102 1    
    91   46  103 1    
    92   46  104 1    
    93   47   48 2    
    94   47   49 am   BACKBONE|DICT|INTERRES
    95   49   50 1    
    96   49  105 1    
    97   50   51 1    
    98   50   52 1    
    99   50  106 1    
   100   51  107 1    
   101   51  108 1    
   102   51  109 1    
   103   52   53 2    
   104   52   54 am   BACKBONE|DICT|INTERRES
   105   54   55 1    
   106   54  110 1    
   107   55   56 1    
   108   55   59 1    
   109   55  111 1    
   110   56   57 am   BACKBONE|DICT|INTERRES
   111   56   58 2    
   112   57  112 1    
   113   57  113 1    
   114   59   60 1    
   115   59  114 1    
   116   59  115 1    
   117   60   61 1    
   118   61  116 1    
   119   61  117 1    
@<TRIPOS>SUBSTRUCTURE
     1 UNK         1 GROUP             0       ****    0 ROOT    
