@<TRIPOS>MOLECULE
3R8
117   119    1
SMALL
USER_CHARGES


@<TRIPOS>ATOM
      1 CA         16.2511  -21.2656  -43.0836 C.3       0 UNK        -0.2013 
      2 C          16.0425  -22.4833  -43.9710 C.2       0 UNK         0.4866 
      3 O          15.6428  -22.3382  -45.1263 O.2       0 UNK        -0.5176 
      4 N          16.3097  -23.6839  -43.4403 N.am      1 UNK        -0.4884 
      5 CA         16.1872  -24.9669  -44.1462 C.3       1 UNK         0.0853 
      6 C6         16.1043  -26.1694  -43.1689 C.3       10 UNK        -0.0849 
      7 S7         17.3071  -26.1421  -41.7883 S.3       10 UNK        -0.2776 
      8 C8         18.7588  -27.0102  -42.4613 C.3       10 UNK         0.0316 
      9 C9         18.4894  -28.4771  -42.7567 C.ar      10 UNK        -0.0863 
     10 C10        18.6087  -29.4328  -41.7438 C.ar      10 UNK        -0.1009 
     11 C11        18.4014  -30.7876  -42.0199 C.ar      10 UNK        -0.0712 
     12 C12        18.0682  -31.1823  -43.3197 C.ar      10 UNK        -0.0894 
     13 C13        17.9407  -30.2339  -44.3394 C.ar      10 UNK        -0.0745 
     14 C14        18.1526  -28.8848  -44.0503 C.ar      10 UNK        -0.0972 
     15 C15        17.5542  -30.6641  -45.7467 C.3       10 UNK         0.0209 
     16 S16        18.9826  -30.6635  -46.8768 S.3       10 UNK        -0.2568 
     17 C17        18.9647  -28.9597  -47.5606 C.3       10 UNK        -0.0983 
     18 CA         20.1297  -27.9702  -47.2131 C.3       3 UNK         0.0876 
     19 N          19.6108  -26.7137  -46.6484 N.am      3 UNK        -0.4424 
     20 C          20.2790  -25.5583  -46.5483 C.2       2 UNK         0.4918 
     21 O          21.4676  -25.4377  -46.8451 O.2       2 UNK        -0.4875 
     22 CA         19.5103  -24.3065  -46.0718 C.3       2 UNK         0.0481 
     23 CB         19.0178  -23.4986  -47.2873 C.3       2 UNK        -0.1831 
     24 N          18.4097  -24.4944  -45.1098 N.am      2 UNK        -0.4498 
     25 C          17.2568  -25.1704  -45.2428 C.2       1 UNK         0.5027 
     26 O          17.0090  -25.9229  -46.1855 O.2       1 UNK        -0.4969 
     27 C          21.3155  -28.5723  -46.4190 C.2       3 UNK         0.5005 
     28 O          22.1368  -29.2819  -47.0043 O.2       3 UNK        -0.5279 
     29 N          21.4013  -28.2627  -45.1217 N.am      4 UNK        -0.4463 
     30 CA         22.4543  -28.6833  -44.2061 C.3       4 UNK         0.0283 
     31 CB         22.0758  -30.0379  -43.5802 C.3       4 UNK        -0.1875 
     32 C          22.6431  -27.5968  -43.1407 C.2       4 UNK         0.4949 
     33 O          21.8745  -26.6327  -43.0969 O.2       4 UNK        -0.5039 
     34 N          23.6584  -27.7795  -42.2949 N.am      5 UNK        -0.4663 
     35 CA         23.9600  -26.9443  -41.1373 C.3       5 UNK         0.0242 
     36 CB         25.0311  -25.9076  -41.5186 C.3       5 UNK        -0.1982 
     37 C          24.4480  -27.8545  -40.0048 C.2       5 UNK         0.5017 
     38 O          24.8741  -28.9828  -40.2737 O.2       5 UNK        -0.5012 
     39 N          24.3870  -27.3466  -38.7653 N.am      6 UNK        -0.4439 
     40 CA         24.7544  -28.0311  -37.5196 C.3       6 UNK         0.0297 
     41 CB         26.2884  -28.2078  -37.4270 C.3       6 UNK        -0.2006 
     42 C          23.9560  -29.3386  -37.3490 C.2       6 UNK         0.4892 
     43 O          22.7574  -29.2724  -37.0724 O.2       6 UNK        -0.5089 
     44 N          24.6189  -30.4830  -37.5482 N.am      7 UNK        -0.4243 
     45 CA         24.0207  -31.8165  -37.5675 C.3       7 UNK         0.0196 
     46 CB         24.3348  -32.5340  -36.2407 C.3       7 UNK        -0.2007 
     47 C          24.4933  -32.6159  -38.7950 C.2       7 UNK         0.5020 
     48 O          24.4849  -33.8468  -38.7506 O.2       7 UNK        -0.5147 
     49 N          24.8948  -31.9289  -39.8789 N.am      8 UNK        -0.4734 
     50 CA         25.4160  -32.5483  -41.1085 C.3       8 UNK         0.0238 
     51 CB         25.9785  -31.4593  -42.0363 C.3       8 UNK        -0.1912 
     52 C          24.3951  -33.4239  -41.8603 C.2       8 UNK         0.5038 
     53 O          24.8007  -34.3173  -42.6046 O.2       8 UNK        -0.5046 
     54 N          23.1014  -33.1670  -41.6354 N.am      9 UNK        -0.4200 
     55 CA         21.9767  -34.0024  -42.0768 C.3       9 UNK         0.0839 
     56 C          21.7994  -35.3325  -41.2839 C.2       9 UNK         0.5513 
     57 N          22.5207  -35.5738  -40.1946 N.am      9 UNK        -0.7519 
     58 O          20.9961  -36.1739  -41.6785 O.2       9 UNK        -0.4960 
     59 C59        20.6599  -33.1851  -42.1507 C.3       10 UNK        -0.0876 
     60 S60        20.2643  -32.2829  -40.6106 S.3       10 UNK        -0.2414 
     61 C61        18.5302  -31.8213  -40.9105 C.3       10 UNK         0.0169 
     62 H62        16.6032  -21.5405  -42.0894 H         1 UNK         0.0903 
     63 H63        16.9862  -20.5970  -43.5309 H         1 UNK         0.0903 
     64 H64        15.3156  -20.7181  -42.9723 H         1 UNK         0.0903 
     65 H65        16.6250  -23.7533  -42.4816 H         1 UNK         0.3096 
     66 H66        15.2375  -24.9384  -44.6862 H         1 UNK         0.1121 
     67 H67        15.1167  -26.1601  -42.7052 H         1 UNK         0.0849 
     68 H68        16.1431  -27.1209  -43.6988 H         1 UNK         0.0849 
     69 H69        19.1193  -26.4997  -43.3532 H         1 UNK         0.0865 
     70 H70        19.5676  -26.9344  -41.7331 H         1 UNK         0.0865 
     71 H71        18.8720  -29.1242  -40.7412 H         1 UNK         0.1346 
     72 H72        17.9053  -32.2292  -43.5363 H         1 UNK         0.1412 
     73 H73        18.0522  -28.1537  -44.8375 H         1 UNK         0.1426 
     74 H74        16.7591  -30.0240  -46.1312 H         1 UNK         0.0716 
     75 H75        17.1382  -31.6725  -45.7261 H         1 UNK         0.0716 
     76 H76        17.9981  -28.5081  -47.3333 H         1 UNK         0.0695 
     77 H77        18.9423  -29.0841  -48.6444 H         1 UNK         0.0695 
     78 H78        20.5753  -27.6807  -48.1679 H         1 UNK         0.0983 
     79 H79        18.6114  -26.6703  -46.4629 H         1 UNK         0.3095 
     80 H80        20.2411  -23.6889  -45.5472 H         1 UNK         0.0454 
     81 H81        18.5721  -22.5522  -46.9805 H         1 UNK         0.0851 
     82 H82        18.2724  -24.0472  -47.8641 H         1 UNK         0.0851 
     83 H83        19.8417  -23.2635  -47.9626 H         1 UNK         0.0851 
     84 H84        18.4979  -23.9466  -44.2650 H         1 UNK         0.2976 
     85 H85        20.7498  -27.5970  -44.7286 H         1 UNK         0.3116 
     86 H86        23.3957  -28.7813  -44.7507 H         1 UNK         0.0646 
     87 H87        21.1491  -29.9687  -43.0105 H         1 UNK         0.0847 
     88 H88        21.9381  -30.8004  -44.3469 H         1 UNK         0.0847 
     89 H89        22.8478  -30.3997  -42.9019 H         1 UNK         0.0847 
     90 H90        24.2117  -28.6254  -42.3441 H         1 UNK         0.3040 
     91 H91        23.0545  -26.4338  -40.8006 H         1 UNK         0.1015 
     92 H92        25.2749  -25.2626  -40.6735 H         1 UNK         0.0786 
     93 H93        24.6863  -25.2634  -42.3277 H         1 UNK         0.0786 
     94 H94        25.9563  -26.3860  -41.8431 H         1 UNK         0.0786 
     95 H95        23.9996  -26.4201  -38.6498 H         1 UNK         0.3172 
     96 H96        24.4501  -27.3774  -36.7006 H         1 UNK         0.0595 
     97 H97        26.6959  -28.7892  -38.2547 H         1 UNK         0.0839 
     98 H98        26.5724  -28.7047  -36.4982 H         1 UNK         0.0839 
     99 H99        26.7902  -27.2401  -37.4340 H         1 UNK         0.0839 
    100 H100       25.5971  -30.4308  -37.7975 H         1 UNK         0.2998 
    101 H101       22.9357  -31.7374  -37.6652 H         1 UNK         0.0822 
    102 H102       23.8523  -33.5113  -36.1965 H         1 UNK         0.0787 
    103 H103       23.9754  -31.9601  -35.3864 H         1 UNK         0.0787 
    104 H104       25.4065  -32.6906  -36.1130 H         1 UNK         0.0787 
    105 H105       24.8491  -30.9125  -39.8710 H         1 UNK         0.3055 
    106 H106       26.2397  -33.2048  -40.8191 H         1 UNK         0.1106 
    107 H107       26.7535  -30.8752  -41.5396 H         1 UNK         0.0828 
    108 H108       26.4269  -31.8991  -42.9283 H         1 UNK         0.0828 
    109 H109       25.2022  -30.7709  -42.3686 H         1 UNK         0.0828 
    110 H110       22.8648  -32.4249  -40.9938 H         1 UNK         0.2931 
    111 H111       22.2006  -34.3137  -43.0991 H         1 UNK         0.0412 
    112 H112       22.3896  -36.4449  -39.7055 H         1 UNK         0.3472 
    113 H113       23.1922  -34.8998  -39.8430 H         1 UNK         0.3472 
    114 H114       20.7333  -32.4573  -42.9583 H         1 UNK         0.0970 
    115 H115       19.8201  -33.8285  -42.4199 H         1 UNK         0.0970 
    116 H116       17.9494  -32.7150  -41.1443 H         1 UNK         0.0612 
    117 H117       18.1104  -31.4188  -39.9875 H         1 UNK         0.0612 
@<TRIPOS>BOND
     1    1    2 1    
     2    1   62 1    
     3    1   63 1    
     4    1   64 1    
     5    2    3 2    
     6    2    4 am   BACKBONE|DICT|INTERRES
     7    4    5 1    
     8    4   65 1    
     9    5    6 1    
    10    5   25 1    
    11    5   66 1    
    12    6    7 1    
    13    6   67 1    
    14    6   68 1    
    15    7    8 1    
    16    8    9 1    
    17    8   69 1    
    18    8   70 1    
    19    9   10 ar   
    20    9   14 ar   
    21   10   11 ar   
    22   10   71 1    
    23   11   12 ar   
    24   11   61 1    
    25   12   13 ar   
    26   12   72 1    
    27   13   14 ar   
    28   13   15 1    
    29   14   73 1    
    30   15   16 1    
    31   15   74 1    
    32   15   75 1    
    33   16   17 1    
    34   17   18 1    
    35   17   76 1    
    36   17   77 1    
    37   18   19 1    
    38   18   27 1    
    39   18   78 1    
    40   19   20 am   BACKBONE|DICT|INTERRES
    41   19   79 1    
    42   20   21 2    
    43   20   22 1    
    44   22   23 1    
    45   22   24 1    
    46   22   80 1    
    47   23   81 1    
    48   23   82 1    
    49   23   83 1    
    50   24   25 am   BACKBONE|DICT|INTERRES
    51   24   84 1    
    52   25   26 2    
    53   27   28 2    
    54   27   29 am   BACKBONE|DICT|INTERRES
    55   29   30 1    
    56   29   85 1    
    57   30   31 1    
    58   30   32 1    
    59   30   86 1    
    60   31   87 1    
    61   31   88 1    
    62   31   89 1    
    63   32   33 2    
    64   32   34 am   BACKBONE|DICT|INTERRES
    65   34   35 1    
    66   34   90 1    
    67   35   36 1    
    68   35   37 1    
    69   35   91 1    
    70   36   92 1    
    71   36   93 1    
    72   36   94 1    
    73   37   38 2    
    74   37   39 am   BACKBONE|DICT|INTERRES
    75   39   40 1    
    76   39   95 1    
    77   40   41 1    
    78   40   42 1    
    79   40   96 1    
    80   41   97 1    
    81   41   98 1    
    82   41   99 1    
    83   42   43 2    
    84   42   44 am   BACKBONE|DICT|INTERRES
    85   44   45 1    
    86   44  100 1    
    87   45   46 1    
    88   45   47 1    
    89   45  101 1    
    90   46  102 1    
    91   46  103 1    
    92   46  104 1    
    93   47   48 2    
    94   47   49 am   BACKBONE|DICT|INTERRES
    95   49   50 1    
    96   49  105 1    
    97   50   51 1    
    98   50   52 1    
    99   50  106 1    
   100   51  107 1    
   101   51  108 1    
   102   51  109 1    
   103   52   53 2    
   104   52   54 am   BACKBONE|DICT|INTERRES
   105   54   55 1    
   106   54  110 1    
   107   55   56 1    
   108   55   59 1    
   109   55  111 1    
   110   56   57 am   BACKBONE|DICT|INTERRES
   111   56   58 2    
   112   57  112 1    
   113   57  113 1    
   114   59   60 1    
   115   59  114 1    
   116   59  115 1    
   117   60   61 1    
   118   61  116 1    
   119   61  117 1    
@<TRIPOS>SUBSTRUCTURE
     1 UNK         1 GROUP             0       ****    0 ROOT    
