@<TRIPOS>MOLECULE
3R8
117   119    1
SMALL
USER_CHARGES


@<TRIPOS>ATOM
      1 CA         19.7529  -24.4270  -39.4569 C.3       0 UNK        -0.2013 
      2 C          19.2678  -24.5273  -40.8954 C.2       0 UNK         0.4866 
      3 O          18.8810  -23.5172  -41.4843 O.2       0 UNK        -0.5176 
      4 N          19.2730  -25.7409  -41.4587 N.am      1 UNK        -0.4884 
      5 CA         18.8716  -26.0295  -42.8400 C.3       1 UNK         0.0853 
      6 C6         18.6231  -27.5438  -43.0519 C.3       10 UNK        -0.0849 
      7 S7         17.3116  -28.1994  -41.9608 S.3       10 UNK        -0.2776 
      8 C8         16.1544  -28.9800  -43.1365 C.3       10 UNK         0.0316 
      9 C9         16.8309  -30.0368  -44.0007 C.ar      10 UNK        -0.0863 
     10 C10        17.4758  -31.1292  -43.4103 C.ar      10 UNK        -0.1009 
     11 C11        18.1557  -32.0607  -44.1994 C.ar      10 UNK        -0.0712 
     12 C12        18.1617  -31.9144  -45.5884 C.ar      10 UNK        -0.0894 
     13 C13        17.5219  -30.8270  -46.1893 C.ar      10 UNK        -0.0745 
     14 C14        16.8459  -29.8988  -45.3926 C.ar      10 UNK        -0.0972 
     15 C15        17.6224  -30.6223  -47.6939 C.3       10 UNK         0.0209 
     16 S16        18.7164  -29.2260  -48.1220 S.3       10 UNK        -0.2568 
     17 C17        20.2679  -29.6714  -47.2632 C.3       10 UNK        -0.0983 
     18 CA         21.2825  -28.5046  -47.2035 C.3       3 UNK         0.0876 
     19 N          20.6870  -27.2856  -46.6432 N.am      3 UNK        -0.4424 
     20 C          21.2027  -26.0539  -46.7572 C.2       2 UNK         0.4918 
     21 O          22.2854  -25.8100  -47.2899 O.2       2 UNK        -0.4875 
     22 CA         20.3558  -24.8905  -46.2072 C.3       2 UNK         0.0481 
     23 CB         19.5005  -24.2804  -47.3293 C.3       2 UNK        -0.1831 
     24 N          19.4845  -25.2870  -45.0958 N.am      2 UNK        -0.4498 
     25 C          19.9208  -25.5150  -43.8493 C.2       1 UNK         0.5027 
     26 O          21.0962  -25.3691  -43.5062 O.2       1 UNK        -0.4969 
     27 C          22.5530  -28.9479  -46.4485 C.2       3 UNK         0.5005 
     28 O          23.4653  -29.4939  -47.0717 O.2       3 UNK        -0.5279 
     29 N          22.5936  -28.7085  -45.1319 N.am      4 UNK        -0.4463 
     30 CA         23.7208  -28.9940  -44.2522 C.3       4 UNK         0.0283 
     31 CB         23.6557  -30.4428  -43.7390 C.3       4 UNK        -0.1875 
     32 C          23.6535  -28.0025  -43.0917 C.2       4 UNK         0.4949 
     33 O          22.5851  -27.8535  -42.4924 O.2       4 UNK        -0.5039 
     34 N          24.7885  -27.3535  -42.8005 N.am      5 UNK        -0.4663 
     35 CA         24.9356  -26.3218  -41.7705 C.3       5 UNK         0.0242 
     36 CB         26.3930  -25.8341  -41.7433 C.3       5 UNK        -0.1982 
     37 C          24.5062  -26.8128  -40.3794 C.2       5 UNK         0.5017 
     38 O          24.8735  -27.9219  -39.9861 O.2       5 UNK        -0.5012 
     39 N          23.7114  -25.9857  -39.6861 N.am      6 UNK        -0.4439 
     40 CA         23.0989  -26.2413  -38.3751 C.3       6 UNK         0.0297 
     41 CB         24.1803  -26.3376  -37.2771 C.3       6 UNK        -0.2006 
     42 C          22.1297  -27.4448  -38.3469 C.2       6 UNK         0.4892 
     43 O          21.8249  -27.9357  -37.2593 O.2       6 UNK        -0.5089 
     44 N          21.6552  -27.8863  -39.5261 N.am      7 UNK        -0.4243 
     45 CA         20.7911  -29.0529  -39.7487 C.3       7 UNK         0.0196 
     46 CB         19.4014  -28.8445  -39.1079 C.3       7 UNK        -0.2007 
     47 C          21.4579  -30.3712  -39.3078 C.2       7 UNK         0.5020 
     48 O          20.7953  -31.2300  -38.7240 O.2       7 UNK        -0.5147 
     49 N          22.7630  -30.5107  -39.5906 N.am      8 UNK        -0.4734 
     50 CA         23.6121  -31.6356  -39.1696 C.3       8 UNK         0.0238 
     51 CB         25.0538  -31.3815  -39.6383 C.3       8 UNK        -0.1912 
     52 C          23.1391  -33.0300  -39.6253 C.2       8 UNK         0.5038 
     53 O          23.4452  -34.0159  -38.9533 O.2       8 UNK        -0.5046 
     54 N          22.4001  -33.0862  -40.7388 N.am      9 UNK        -0.4200 
     55 CA         21.7160  -34.2847  -41.2453 C.3       9 UNK         0.0839 
     56 C          20.4254  -34.6823  -40.4688 C.2       9 UNK         0.5513 
     57 N          19.9209  -33.8820  -39.5372 N.am      9 UNK        -0.7519 
     58 O          19.8751  -35.7532  -40.7118 O.2       9 UNK        -0.4960 
     59 C59        21.4745  -34.1991  -42.7758 C.3       10 UNK        -0.0876 
     60 S60        20.6672  -32.6521  -43.3124 S.3       10 UNK        -0.2414 
     61 C61        18.9475  -33.1849  -43.5558 C.3       10 UNK         0.0169 
     62 H62        19.8808  -25.4081  -39.0009 H         1 UNK         0.0903 
     63 H63        20.7063  -23.9012  -39.4185 H         1 UNK         0.0903 
     64 H64        19.0334  -23.8710  -38.8563 H         1 UNK         0.0903 
     65 H65        19.6061  -26.5355  -40.9346 H         1 UNK         0.3096 
     66 H66        17.9377  -25.4959  -43.0322 H         1 UNK         0.1121 
     67 H67        19.5355  -28.1153  -42.8690 H         1 UNK         0.0849 
     68 H68        18.3504  -27.7399  -44.0897 H         1 UNK         0.0849 
     69 H69        15.3412  -29.4451  -42.5778 H         1 UNK         0.0865 
     70 H70        15.6987  -28.2027  -43.7519 H         1 UNK         0.0865 
     71 H71        17.4871  -31.2274  -42.3331 H         1 UNK         0.1346 
     72 H72        18.7095  -32.6212  -46.1968 H         1 UNK         0.1412 
     73 H73        16.3663  -29.0489  -45.8591 H         1 UNK         0.1426 
     74 H74        16.6284  -30.4342  -48.1021 H         1 UNK         0.0716 
     75 H75        17.9904  -31.5246  -48.1847 H         1 UNK         0.0716 
     76 H76        20.7023  -30.5342  -47.7721 H         1 UNK         0.0695 
     77 H77        20.0366  -29.9967  -46.2482 H         1 UNK         0.0695 
     78 H78        21.5868  -28.2764  -48.2276 H         1 UNK         0.0983 
     79 H79        19.7725  -27.3905  -46.2322 H         1 UNK         0.3095 
     80 H80        21.0429  -24.1194  -45.8519 H         1 UNK         0.0454 
     81 H81        18.9453  -23.4106  -46.9779 H         1 UNK         0.0851 
     82 H82        18.7839  -24.9984  -47.7304 H         1 UNK         0.0851 
     83 H83        20.1261  -23.9483  -48.1590 H         1 UNK         0.0851 
     84 H84        18.5034  -25.4044  -45.3074 H         1 UNK         0.2976 
     85 H85        21.8289  -28.2154  -44.6892 H         1 UNK         0.3116 
     86 H86        24.6537  -28.8464  -44.8010 H         1 UNK         0.0646 
     87 H87        22.7708  -30.6070  -43.1243 H         1 UNK         0.0847 
     88 H88        24.5263  -30.6775  -43.1260 H         1 UNK         0.0847 
     89 H89        23.6321  -31.1598  -44.5597 H         1 UNK         0.0847 
     90 H90        25.6190  -27.5744  -43.3305 H         1 UNK         0.3040 
     91 H91        24.2952  -25.4866  -42.0634 H         1 UNK         0.1015 
     92 H92        27.0826  -26.6411  -41.4914 H         1 UNK         0.0786 
     93 H93        26.5281  -25.0470  -40.9999 H         1 UNK         0.0786 
     94 H94        26.6939  -25.4220  -42.7067 H         1 UNK         0.0786 
     95 H95        23.4663  -25.1011  -40.1103 H         1 UNK         0.3172 
     96 H96        22.4889  -25.3646  -38.1538 H         1 UNK         0.0595 
     97 H97        24.7848  -27.2392  -37.3816 H         1 UNK         0.0839 
     98 H98        23.7305  -26.3641  -36.2838 H         1 UNK         0.0839 
     99 H99        24.8509  -25.4789  -37.3024 H         1 UNK         0.0839 
    100 H100       22.0186  -27.4592  -40.3710 H         1 UNK         0.2998 
    101 H101       20.6500  -29.1304  -40.8279 H         1 UNK         0.0822 
    102 H102       18.9603  -27.8924  -39.3988 H         1 UNK         0.0787 
    103 H103       18.7105  -29.6288  -39.4202 H         1 UNK         0.0787 
    104 H104       19.4470  -28.8708  -38.0189 H         1 UNK         0.0787 
    105 H105       23.2380  -29.7346  -40.0345 H         1 UNK         0.3055 
    106 H106       23.6062  -31.6473  -38.0776 H         1 UNK         0.1106 
    107 H107       25.1159  -31.2890  -40.7229 H         1 UNK         0.0828 
    108 H108       25.4581  -30.4688  -39.2001 H         1 UNK         0.0828 
    109 H109       25.7136  -32.1981  -39.3414 H         1 UNK         0.0828 
    110 H110       22.1786  -32.2246  -41.2146 H         1 UNK         0.2931 
    111 H111       22.3989  -35.1229  -41.0935 H         1 UNK         0.0412 
    112 H112       19.0894  -34.1676  -39.0458 H         1 UNK         0.3472 
    113 H113       20.3498  -32.9876  -39.3161 H         1 UNK         0.3472 
    114 H114       22.4370  -34.2495  -43.2870 H         1 UNK         0.0970 
    115 H115       20.9149  -35.0631  -43.1394 H         1 UNK         0.0970 
    116 H116       18.9198  -34.0731  -44.1889 H         1 UNK         0.0612 
    117 H117       18.5093  -33.4646  -42.5966 H         1 UNK         0.0612 
@<TRIPOS>BOND
     1    1    2 1    
     2    1   62 1    
     3    1   63 1    
     4    1   64 1    
     5    2    3 2    
     6    2    4 am   BACKBONE|DICT|INTERRES
     7    4    5 1    
     8    4   65 1    
     9    5    6 1    
    10    5   25 1    
    11    5   66 1    
    12    6    7 1    
    13    6   67 1    
    14    6   68 1    
    15    7    8 1    
    16    8    9 1    
    17    8   69 1    
    18    8   70 1    
    19    9   10 ar   
    20    9   14 ar   
    21   10   11 ar   
    22   10   71 1    
    23   11   12 ar   
    24   11   61 1    
    25   12   13 ar   
    26   12   72 1    
    27   13   14 ar   
    28   13   15 1    
    29   14   73 1    
    30   15   16 1    
    31   15   74 1    
    32   15   75 1    
    33   16   17 1    
    34   17   18 1    
    35   17   76 1    
    36   17   77 1    
    37   18   19 1    
    38   18   27 1    
    39   18   78 1    
    40   19   20 am   BACKBONE|DICT|INTERRES
    41   19   79 1    
    42   20   21 2    
    43   20   22 1    
    44   22   23 1    
    45   22   24 1    
    46   22   80 1    
    47   23   81 1    
    48   23   82 1    
    49   23   83 1    
    50   24   25 am   BACKBONE|DICT|INTERRES
    51   24   84 1    
    52   25   26 2    
    53   27   28 2    
    54   27   29 am   BACKBONE|DICT|INTERRES
    55   29   30 1    
    56   29   85 1    
    57   30   31 1    
    58   30   32 1    
    59   30   86 1    
    60   31   87 1    
    61   31   88 1    
    62   31   89 1    
    63   32   33 2    
    64   32   34 am   BACKBONE|DICT|INTERRES
    65   34   35 1    
    66   34   90 1    
    67   35   36 1    
    68   35   37 1    
    69   35   91 1    
    70   36   92 1    
    71   36   93 1    
    72   36   94 1    
    73   37   38 2    
    74   37   39 am   BACKBONE|DICT|INTERRES
    75   39   40 1    
    76   39   95 1    
    77   40   41 1    
    78   40   42 1    
    79   40   96 1    
    80   41   97 1    
    81   41   98 1    
    82   41   99 1    
    83   42   43 2    
    84   42   44 am   BACKBONE|DICT|INTERRES
    85   44   45 1    
    86   44  100 1    
    87   45   46 1    
    88   45   47 1    
    89   45  101 1    
    90   46  102 1    
    91   46  103 1    
    92   46  104 1    
    93   47   48 2    
    94   47   49 am   BACKBONE|DICT|INTERRES
    95   49   50 1    
    96   49  105 1    
    97   50   51 1    
    98   50   52 1    
    99   50  106 1    
   100   51  107 1    
   101   51  108 1    
   102   51  109 1    
   103   52   53 2    
   104   52   54 am   BACKBONE|DICT|INTERRES
   105   54   55 1    
   106   54  110 1    
   107   55   56 1    
   108   55   59 1    
   109   55  111 1    
   110   56   57 am   BACKBONE|DICT|INTERRES
   111   56   58 2    
   112   57  112 1    
   113   57  113 1    
   114   59   60 1    
   115   59  114 1    
   116   59  115 1    
   117   60   61 1    
   118   61  116 1    
   119   61  117 1    
@<TRIPOS>SUBSTRUCTURE
     1 UNK         1 GROUP             0       ****    0 ROOT    
