@<TRIPOS>MOLECULE
3R8
117   119    1
SMALL
USER_CHARGES


@<TRIPOS>ATOM
      1 CA         14.8878  -23.2188  -42.5979 C.3       0 UNK        -0.2013 
      2 C          15.7544  -23.4513  -43.8266 C.2       0 UNK         0.4866 
      3 O          16.0318  -22.5084  -44.5688 O.2       0 UNK        -0.5176 
      4 N          16.1755  -24.7017  -44.0518 N.am      1 UNK        -0.4884 
      5 CA         17.0585  -25.1030  -45.1524 C.3       1 UNK         0.0853 
      6 C6         17.1204  -26.6463  -45.3145 C.3       10 UNK        -0.0849 
      7 S7         15.4998  -27.4670  -45.4785 S.3       10 UNK        -0.2776 
      8 C8         15.4577  -28.5271  -43.9827 C.3       10 UNK         0.0316 
      9 C9         16.5298  -29.6211  -43.8855 C.ar      10 UNK        -0.0863 
     10 C10        16.7097  -30.2696  -42.6576 C.ar      10 UNK        -0.1009 
     11 C11        17.6527  -31.2929  -42.5146 C.ar      10 UNK        -0.0712 
     12 C12        18.4458  -31.6532  -43.6071 C.ar      10 UNK        -0.0894 
     13 C13        18.2815  -31.0209  -44.8413 C.ar      10 UNK        -0.0745 
     14 C14        17.3121  -30.0214  -44.9782 C.ar      10 UNK        -0.0972 
     15 C15        19.1245  -31.4504  -46.0359 C.3       10 UNK         0.0209 
     16 S16        20.8038  -30.7406  -46.0036 S.3       10 UNK        -0.2568 
     17 C17        20.4635  -28.9709  -46.2987 C.3       10 UNK        -0.0983 
     18 CA         21.1978  -27.9564  -45.3796 C.3       3 UNK         0.0876 
     19 N          20.8210  -26.6055  -45.7951 N.am      3 UNK        -0.4424 
     20 C          21.4400  -25.4557  -45.5005 C.2       2 UNK         0.4918 
     21 O          22.4983  -25.3782  -44.8786 O.2       2 UNK        -0.4875 
     22 CA         20.7085  -24.1731  -45.9554 C.3       2 UNK         0.0481 
     23 CB         21.2249  -23.7158  -47.3285 C.3       2 UNK        -0.1831 
     24 N          19.2471  -24.3528  -46.0111 N.am      2 UNK        -0.4498 
     25 C          18.4923  -24.5795  -44.9253 C.2       1 UNK         0.5027 
     26 O          18.9373  -24.5133  -43.7783 O.2       1 UNK        -0.4969 
     27 C          20.9683  -28.2083  -43.8657 C.2       3 UNK         0.5005 
     28 O          21.5670  -29.1380  -43.3231 O.2       3 UNK        -0.5279 
     29 N          20.1541  -27.3816  -43.1834 N.am      4 UNK        -0.4463 
     30 CA         19.8190  -27.5135  -41.7583 C.3       4 UNK         0.0283 
     31 CB         18.4881  -26.8008  -41.4563 C.3       4 UNK        -0.1875 
     32 C          20.9634  -27.0542  -40.8302 C.2       4 UNK         0.4949 
     33 O          20.7725  -26.1691  -39.9948 O.2       4 UNK        -0.5039 
     34 N          22.1348  -27.6704  -40.9982 N.am      5 UNK        -0.4663 
     35 CA         23.3389  -27.4954  -40.1954 C.3       5 UNK         0.0242 
     36 CB         24.3746  -26.7064  -41.0132 C.3       5 UNK        -0.1982 
     37 C          23.8800  -28.8823  -39.8333 C.2       5 UNK         0.5017 
     38 O          23.6527  -29.8382  -40.5805 O.2       5 UNK        -0.5012 
     39 N          24.6212  -28.9591  -38.7194 N.am      6 UNK        -0.4439 
     40 CA         25.1490  -30.1888  -38.1074 C.3       6 UNK         0.0297 
     41 CB         25.9042  -29.8190  -36.8197 C.3       6 UNK        -0.2006 
     42 C          26.0378  -31.0674  -39.0107 C.2       6 UNK         0.4892 
     43 O          26.2093  -32.2507  -38.7161 O.2       6 UNK        -0.5089 
     44 N          26.5810  -30.4855  -40.0877 N.am      7 UNK        -0.4243 
     45 CA         27.3588  -31.1767  -41.1157 C.3       7 UNK         0.0196 
     46 CB         28.0707  -30.1281  -41.9864 C.3       7 UNK        -0.2007 
     47 C          26.5261  -32.1277  -41.9983 C.2       7 UNK         0.5020 
     48 O          27.1139  -33.0172  -42.6150 O.2       7 UNK        -0.5147 
     49 N          25.2013  -31.9291  -42.0682 N.am      8 UNK        -0.4734 
     50 CA         24.2961  -32.7212  -42.9085 C.3       8 UNK         0.0238 
     51 CB         23.9660  -31.9362  -44.1896 C.3       8 UNK        -0.1912 
     52 C          23.0104  -33.1313  -42.1776 C.2       8 UNK         0.5038 
     53 O          22.5662  -34.2682  -42.3437 O.2       8 UNK        -0.5046 
     54 N          22.4293  -32.2130  -41.4003 N.am      9 UNK        -0.4200 
     55 CA         21.1857  -32.4028  -40.6519 C.3       9 UNK         0.0839 
     56 C          21.4984  -32.9280  -39.2287 C.2       9 UNK         0.5513 
     57 N          20.9856  -34.0960  -38.8665 N.am      9 UNK        -0.7519 
     58 O          22.1809  -32.2748  -38.4440 O.2       9 UNK        -0.4960 
     59 C59        20.3884  -31.0760  -40.6517 C.3       10 UNK        -0.0876 
     60 S60        18.7167  -31.1596  -39.9268 S.3       10 UNK        -0.2414 
     61 C61        17.7725  -32.0545  -41.2007 C.3       10 UNK         0.0169 
     62 H62        14.7136  -24.1392  -42.0408 H         1 UNK         0.0903 
     63 H63        15.3689  -22.5047  -41.9300 H         1 UNK         0.0903 
     64 H64        13.9205  -22.8124  -42.8921 H         1 UNK         0.0903 
     65 H65        15.9184  -25.4356  -43.4093 H         1 UNK         0.3096 
     66 H66        16.6682  -24.6652  -46.0741 H         1 UNK         0.1121 
     67 H67        17.6914  -26.9045  -46.2077 H         1 UNK         0.0849 
     68 H68        17.6552  -27.0999  -44.4795 H         1 UNK         0.0849 
     69 H69        15.5162  -27.8838  -43.1038 H         1 UNK         0.0865 
     70 H70        14.4797  -29.0083  -43.9402 H         1 UNK         0.0865 
     71 H71        16.0984  -29.9924  -41.8093 H         1 UNK         0.1346 
     72 H72        19.1814  -32.4394  -43.5042 H         1 UNK         0.1412 
     73 H73        17.1712  -29.5618  -45.9455 H         1 UNK         0.1426 
     74 H74        18.6356  -31.1764  -46.9722 H         1 UNK         0.0716 
     75 H75        19.2067  -32.5382  -46.0464 H         1 UNK         0.0716 
     76 H76        19.3899  -28.7989  -46.2458 H         1 UNK         0.0695 
     77 H77        20.7342  -28.7737  -47.3373 H         1 UNK         0.0695 
     78 H78        22.2714  -28.0659  -45.5479 H         1 UNK         0.0983 
     79 H79        19.9856  -26.5429  -46.3551 H         1 UNK         0.3095 
     80 H80        20.9299  -23.3880  -45.2292 H         1 UNK         0.0454 
     81 H81        22.3035  -23.5534  -47.3040 H         1 UNK         0.0851 
     82 H82        20.7655  -22.7750  -47.6322 H         1 UNK         0.0851 
     83 H83        21.0253  -24.4543  -48.1058 H         1 UNK         0.0851 
     84 H84        18.8265  -24.3990  -46.9293 H         1 UNK         0.2976 
     85 H85        19.7913  -26.5588  -43.6454 H         1 UNK         0.3116 
     86 H86        19.6469  -28.5688  -41.5541 H         1 UNK         0.0646 
     87 H87        17.6882  -27.1552  -42.1039 H         1 UNK         0.0847 
     88 H88        18.5676  -25.7199  -41.5672 H         1 UNK         0.0847 
     89 H89        18.1743  -26.9937  -40.4297 H         1 UNK         0.0847 
     90 H90        22.1825  -28.4053  -41.7033 H         1 UNK         0.3040 
     91 H91        23.1051  -26.9562  -39.2745 H         1 UNK         0.1015 
     92 H92        25.2898  -26.5454  -40.4421 H         1 UNK         0.0786 
     93 H93        23.9904  -25.7251  -41.2928 H         1 UNK         0.0786 
     94 H94        24.6468  -27.2299  -41.9310 H         1 UNK         0.0786 
     95 H95        24.7795  -28.1087  -38.1974 H         1 UNK         0.3172 
     96 H96        24.2885  -30.7980  -37.8277 H         1 UNK         0.0595 
     97 H97        26.7597  -29.1742  -37.0247 H         1 UNK         0.0839 
     98 H98        26.2826  -30.7109  -36.3178 H         1 UNK         0.0839 
     99 H99        25.2556  -29.3051  -36.1100 H         1 UNK         0.0839 
    100 H100       26.3832  -29.5086  -40.2459 H         1 UNK         0.2998 
    101 H101       28.1191  -31.7804  -40.6151 H         1 UNK         0.0822 
    102 H102       28.7270  -29.4944  -41.3895 H         1 UNK         0.0787 
    103 H103       28.6898  -30.6068  -42.7466 H         1 UNK         0.0787 
    104 H104       27.3590  -29.4838  -42.5046 H         1 UNK         0.0787 
    105 H105       24.7876  -31.1864  -41.5128 H         1 UNK         0.3055 
    106 H106       24.7837  -33.6534  -43.2032 H         1 UNK         0.1106 
    107 H107       24.8636  -31.7354  -44.7742 H         1 UNK         0.0828 
    108 H108       23.2816  -32.4968  -44.8279 H         1 UNK         0.0828 
    109 H109       23.4912  -30.9801  -43.9655 H         1 UNK         0.0828 
    110 H110       22.8801  -31.3126  -41.2588 H         1 UNK         0.2931 
    111 H111       20.5800  -33.1453  -41.1745 H         1 UNK         0.0412 
    112 H112       20.4240  -34.6375  -39.5051 H         1 UNK         0.3472 
    113 H113       21.1708  -34.4467  -37.9397 H         1 UNK         0.3472 
    114 H114       20.9452  -30.3020  -40.1209 H         1 UNK         0.0970 
    115 H115       20.2927  -30.7222  -41.6775 H         1 UNK         0.0970 
    116 H116       16.7725  -32.2501  -40.8111 H         1 UNK         0.0612 
    117 H117       18.2229  -33.0342  -41.3641 H         1 UNK         0.0612 
@<TRIPOS>BOND
     1    1    2 1    
     2    1   62 1    
     3    1   63 1    
     4    1   64 1    
     5    2    3 2    
     6    2    4 am   BACKBONE|DICT|INTERRES
     7    4    5 1    
     8    4   65 1    
     9    5    6 1    
    10    5   25 1    
    11    5   66 1    
    12    6    7 1    
    13    6   67 1    
    14    6   68 1    
    15    7    8 1    
    16    8    9 1    
    17    8   69 1    
    18    8   70 1    
    19    9   10 ar   
    20    9   14 ar   
    21   10   11 ar   
    22   10   71 1    
    23   11   12 ar   
    24   11   61 1    
    25   12   13 ar   
    26   12   72 1    
    27   13   14 ar   
    28   13   15 1    
    29   14   73 1    
    30   15   16 1    
    31   15   74 1    
    32   15   75 1    
    33   16   17 1    
    34   17   18 1    
    35   17   76 1    
    36   17   77 1    
    37   18   19 1    
    38   18   27 1    
    39   18   78 1    
    40   19   20 am   BACKBONE|DICT|INTERRES
    41   19   79 1    
    42   20   21 2    
    43   20   22 1    
    44   22   23 1    
    45   22   24 1    
    46   22   80 1    
    47   23   81 1    
    48   23   82 1    
    49   23   83 1    
    50   24   25 am   BACKBONE|DICT|INTERRES
    51   24   84 1    
    52   25   26 2    
    53   27   28 2    
    54   27   29 am   BACKBONE|DICT|INTERRES
    55   29   30 1    
    56   29   85 1    
    57   30   31 1    
    58   30   32 1    
    59   30   86 1    
    60   31   87 1    
    61   31   88 1    
    62   31   89 1    
    63   32   33 2    
    64   32   34 am   BACKBONE|DICT|INTERRES
    65   34   35 1    
    66   34   90 1    
    67   35   36 1    
    68   35   37 1    
    69   35   91 1    
    70   36   92 1    
    71   36   93 1    
    72   36   94 1    
    73   37   38 2    
    74   37   39 am   BACKBONE|DICT|INTERRES
    75   39   40 1    
    76   39   95 1    
    77   40   41 1    
    78   40   42 1    
    79   40   96 1    
    80   41   97 1    
    81   41   98 1    
    82   41   99 1    
    83   42   43 2    
    84   42   44 am   BACKBONE|DICT|INTERRES
    85   44   45 1    
    86   44  100 1    
    87   45   46 1    
    88   45   47 1    
    89   45  101 1    
    90   46  102 1    
    91   46  103 1    
    92   46  104 1    
    93   47   48 2    
    94   47   49 am   BACKBONE|DICT|INTERRES
    95   49   50 1    
    96   49  105 1    
    97   50   51 1    
    98   50   52 1    
    99   50  106 1    
   100   51  107 1    
   101   51  108 1    
   102   51  109 1    
   103   52   53 2    
   104   52   54 am   BACKBONE|DICT|INTERRES
   105   54   55 1    
   106   54  110 1    
   107   55   56 1    
   108   55   59 1    
   109   55  111 1    
   110   56   57 am   BACKBONE|DICT|INTERRES
   111   56   58 2    
   112   57  112 1    
   113   57  113 1    
   114   59   60 1    
   115   59  114 1    
   116   59  115 1    
   117   60   61 1    
   118   61  116 1    
   119   61  117 1    
@<TRIPOS>SUBSTRUCTURE
     1 UNK         1 GROUP             0       ****    0 ROOT    
