@<TRIPOS>MOLECULE
3R8
117   119    1
SMALL
USER_CHARGES


@<TRIPOS>ATOM
      1 CA         15.1654  -22.7191  -43.7122 C.3       0 UNK        -0.2013 
      2 C          16.1646  -23.7911  -44.1190 C.2       0 UNK         0.4866 
      3 O          16.5781  -23.8372  -45.2781 O.2       0 UNK        -0.5176 
      4 N          16.5727  -24.6466  -43.1735 N.am      1 UNK        -0.4884 
      5 CA         17.4975  -25.7737  -43.3639 C.3       1 UNK         0.0853 
      6 C6         17.3050  -26.8551  -42.2666 C.3       10 UNK        -0.0849 
      7 S7         15.6766  -27.6691  -42.3950 S.3       10 UNK        -0.2776 
      8 C8         16.1186  -29.4400  -42.2490 C.3       10 UNK         0.0316 
      9 C9         17.0569  -29.9803  -43.3313 C.ar      10 UNK        -0.0863 
     10 C10        17.8918  -31.0605  -43.0255 C.ar      10 UNK        -0.1009 
     11 C11        18.7567  -31.5948  -43.9858 C.ar      10 UNK        -0.0712 
     12 C12        18.7960  -31.0305  -45.2650 C.ar      10 UNK        -0.0894 
     13 C13        17.9492  -29.9682  -45.5968 C.ar      10 UNK        -0.0745 
     14 C14        17.0783  -29.4557  -44.6294 C.ar      10 UNK        -0.0972 
     15 C15        17.9150  -29.4201  -47.0176 C.3       10 UNK         0.0209 
     16 S16        18.3058  -27.6414  -47.0886 S.3       10 UNK        -0.2568 
     17 C17        19.9817  -27.6030  -47.8262 C.3       10 UNK        -0.0983 
     18 CA         21.0831  -27.0607  -46.8782 C.3       3 UNK         0.0876 
     19 N          20.6439  -25.8375  -46.2039 N.am      3 UNK        -0.4424 
     20 C          21.3802  -25.0068  -45.4560 C.2       2 UNK         0.4918 
     21 O          22.5908  -25.1313  -45.2721 O.2       2 UNK        -0.4875 
     22 CA         20.5974  -23.8973  -44.7278 C.3       2 UNK         0.0481 
     23 CB         20.5125  -22.6334  -45.5965 C.3       2 UNK        -0.1831 
     24 N          19.2436  -24.3289  -44.3526 N.am      2 UNK        -0.4498 
     25 C          18.9712  -25.3194  -43.4910 C.2       1 UNK         0.5027 
     26 O          19.8507  -25.8918  -42.8476 O.2       1 UNK        -0.4969 
     27 C          21.6131  -28.1593  -45.9294 C.2       3 UNK         0.5005 
     28 O          22.3225  -29.0501  -46.4001 O.2       3 UNK        -0.5279 
     29 N          21.3044  -28.0781  -44.6251 N.am      4 UNK        -0.4463 
     30 CA         21.8607  -28.9648  -43.6011 C.3       4 UNK         0.0283 
     31 CB         21.0047  -28.8878  -42.3268 C.3       4 UNK        -0.1875 
     32 C          23.3257  -28.6461  -43.2598 C.2       4 UNK         0.4949 
     33 O          23.9980  -29.5000  -42.6852 O.2       4 UNK        -0.5039 
     34 N          23.7874  -27.4203  -43.5658 N.am      5 UNK        -0.4663 
     35 CA         25.1296  -26.8866  -43.2799 C.3       5 UNK         0.0242 
     36 CB         26.1812  -27.5775  -44.1734 C.3       5 UNK        -0.1982 
     37 C          25.5026  -26.9301  -41.7812 C.2       5 UNK         0.5017 
     38 O          26.6761  -27.0895  -41.4420 O.2       5 UNK        -0.5012 
     39 N          24.4799  -26.8135  -40.9199 N.am      6 UNK        -0.4439 
     40 CA         24.5054  -26.9385  -39.4575 C.3       6 UNK         0.0297 
     41 CB         25.3816  -25.8387  -38.8197 C.3       6 UNK        -0.2006 
     42 C          24.8585  -28.3493  -38.9339 C.2       6 UNK         0.4892 
     43 O          25.1323  -28.4853  -37.7397 O.2       6 UNK        -0.5089 
     44 N          24.8263  -29.3770  -39.7959 N.am      7 UNK        -0.4243 
     45 CA         25.0023  -30.7770  -39.4064 C.3       7 UNK         0.0196 
     46 CB         25.5287  -31.5795  -40.6078 C.3       7 UNK        -0.2007 
     47 C          23.6740  -31.3696  -38.9140 C.2       7 UNK         0.5020 
     48 O          22.6017  -30.9333  -39.3391 O.2       7 UNK        -0.5147 
     49 N          23.7628  -32.3993  -38.0649 N.am      8 UNK        -0.4734 
     50 CA         22.6198  -33.1476  -37.5316 C.3       8 UNK         0.0238 
     51 CB         23.0028  -33.7274  -36.1563 C.3       8 UNK        -0.1912 
     52 C          22.1369  -34.2289  -38.5201 C.2       8 UNK         0.5038 
     53 O          22.0731  -35.4067  -38.1621 O.2       8 UNK        -0.5046 
     54 N          21.8311  -33.8142  -39.7553 N.am      9 UNK        -0.4200 
     55 CA         21.3497  -34.6782  -40.8448 C.3       9 UNK         0.0839 
     56 C          19.8625  -35.1246  -40.7273 C.2       9 UNK         0.5513 
     57 N          19.0706  -34.5766  -39.8131 N.am      9 UNK        -0.7519 
     58 O          19.4239  -35.9948  -41.4750 O.2       9 UNK        -0.4960 
     59 C59        21.6801  -34.0791  -42.2378 C.3       10 UNK        -0.0876 
     60 S60        20.9655  -32.4227  -42.5201 S.3       10 UNK        -0.2414 
     61 C61        19.6007  -32.8179  -43.6536 C.3       10 UNK         0.0169 
     62 H62        14.2601  -22.8041  -44.3126 H         1 UNK         0.0903 
     63 H63        14.8844  -22.8004  -42.6623 H         1 UNK         0.0903 
     64 H64        15.5904  -21.7290  -43.8746 H         1 UNK         0.0903 
     65 H65        16.2079  -24.5482  -42.2363 H         1 UNK         0.3096 
     66 H66        17.2609  -26.2415  -44.3227 H         1 UNK         0.1121 
     67 H67        17.4109  -26.4217  -41.2706 H         1 UNK         0.0849 
     68 H68        18.0751  -27.6238  -42.3409 H         1 UNK         0.0849 
     69 H69        16.5609  -29.5964  -41.2636 H         1 UNK         0.0865 
     70 H70        15.1998  -30.0273  -42.2684 H         1 UNK         0.0865 
     71 H71        17.8663  -31.4988  -42.0367 H         1 UNK         0.1346 
     72 H72        19.4591  -31.4435  -46.0128 H         1 UNK         0.1412 
     73 H73        16.4118  -28.6484  -44.8987 H         1 UNK         0.1426 
     74 H74        16.9097  -29.5639  -47.4157 H         1 UNK         0.0716 
     75 H75        18.5773  -29.9863  -47.6733 H         1 UNK         0.0716 
     76 H76        19.9210  -26.9495  -48.6978 H         1 UNK         0.0695 
     77 H77        20.2521  -28.5808  -48.2286 H         1 UNK         0.0695 
     78 H78        21.9377  -26.7800  -47.4979 H         1 UNK         0.0983 
     79 H79        19.6539  -25.6518  -46.2787 H         1 UNK         0.3095 
     80 H80        21.1401  -23.6503  -43.8131 H         1 UNK         0.0454 
     81 H81        21.5078  -22.2840  -45.8748 H         1 UNK         0.0851 
     82 H82        20.0221  -21.8187  -45.0636 H         1 UNK         0.0851 
     83 H83        19.9591  -22.8115  -46.5194 H         1 UNK         0.0851 
     84 H84        18.4579  -23.9153  -44.8486 H         1 UNK         0.2976 
     85 H85        20.7209  -27.3187  -44.2976 H         1 UNK         0.3116 
     86 H86        21.8221  -29.9886  -43.9776 H         1 UNK         0.0646 
     87 H87        21.0523  -27.9057  -41.8583 H         1 UNK         0.0847 
     88 H88        19.9611  -29.1180  -42.5357 H         1 UNK         0.0847 
     89 H89        21.3510  -29.6077  -41.5839 H         1 UNK         0.0847 
     90 H90        23.1652  -26.7820  -44.0500 H         1 UNK         0.3040 
     91 H91        25.1048  -25.8304  -43.5539 H         1 UNK         0.1015 
     92 H92        27.1570  -27.1007  -44.0727 H         1 UNK         0.0786 
     93 H93        25.9032  -27.5233  -45.2260 H         1 UNK         0.0786 
     94 H94        26.3043  -28.6293  -43.9127 H         1 UNK         0.0786 
     95 H95        23.5619  -26.6944  -41.3254 H         1 UNK         0.3172 
     96 H96        23.4789  -26.7597  -39.1345 H         1 UNK         0.0595 
     97 H97        26.4411  -25.9934  -39.0250 H         1 UNK         0.0839 
     98 H98        25.2631  -25.8227  -37.7356 H         1 UNK         0.0839 
     99 H99        25.1087  -24.8493  -39.1866 H         1 UNK         0.0839 
    100 H100       24.5482  -29.2159  -40.7591 H         1 UNK         0.2998 
    101 H101       25.7392  -30.8356  -38.6023 H         1 UNK         0.0822 
    102 H102       25.7826  -32.5991  -40.3156 H         1 UNK         0.0787 
    103 H103       26.4284  -31.1274  -41.0258 H         1 UNK         0.0787 
    104 H104       24.7870  -31.6487  -41.4047 H         1 UNK         0.0787 
    105 H105       24.6793  -32.7318  -37.7988 H         1 UNK         0.3055 
    106 H106       21.7830  -32.4619  -37.3778 H         1 UNK         0.1106 
    107 H107       23.2954  -32.9402  -35.4613 H         1 UNK         0.0828 
    108 H108       22.1611  -34.2557  -35.7061 H         1 UNK         0.0828 
    109 H109       23.8298  -34.4347  -36.2305 H         1 UNK         0.0828 
    110 H110       21.9026  -32.8243  -39.9642 H         1 UNK         0.2931 
    111 H111       21.9220  -35.6056  -40.7776 H         1 UNK         0.0412 
    112 H112       19.4192  -33.8575  -39.2006 H         1 UNK         0.3472 
    113 H113       18.1119  -34.8799  -39.7435 H         1 UNK         0.3472 
    114 H114       22.7625  -33.9884  -42.3405 H         1 UNK         0.0970 
    115 H115       21.3737  -34.7597  -43.0345 H         1 UNK         0.0970 
    116 H116       18.9628  -33.5780  -43.2006 H         1 UNK         0.0612 
    117 H117       20.0108  -33.2599  -44.5630 H         1 UNK         0.0612 
@<TRIPOS>BOND
     1    1    2 1    
     2    1   62 1    
     3    1   63 1    
     4    1   64 1    
     5    2    3 2    
     6    2    4 am   BACKBONE|DICT|INTERRES
     7    4    5 1    
     8    4   65 1    
     9    5    6 1    
    10    5   25 1    
    11    5   66 1    
    12    6    7 1    
    13    6   67 1    
    14    6   68 1    
    15    7    8 1    
    16    8    9 1    
    17    8   69 1    
    18    8   70 1    
    19    9   10 ar   
    20    9   14 ar   
    21   10   11 ar   
    22   10   71 1    
    23   11   12 ar   
    24   11   61 1    
    25   12   13 ar   
    26   12   72 1    
    27   13   14 ar   
    28   13   15 1    
    29   14   73 1    
    30   15   16 1    
    31   15   74 1    
    32   15   75 1    
    33   16   17 1    
    34   17   18 1    
    35   17   76 1    
    36   17   77 1    
    37   18   19 1    
    38   18   27 1    
    39   18   78 1    
    40   19   20 am   BACKBONE|DICT|INTERRES
    41   19   79 1    
    42   20   21 2    
    43   20   22 1    
    44   22   23 1    
    45   22   24 1    
    46   22   80 1    
    47   23   81 1    
    48   23   82 1    
    49   23   83 1    
    50   24   25 am   BACKBONE|DICT|INTERRES
    51   24   84 1    
    52   25   26 2    
    53   27   28 2    
    54   27   29 am   BACKBONE|DICT|INTERRES
    55   29   30 1    
    56   29   85 1    
    57   30   31 1    
    58   30   32 1    
    59   30   86 1    
    60   31   87 1    
    61   31   88 1    
    62   31   89 1    
    63   32   33 2    
    64   32   34 am   BACKBONE|DICT|INTERRES
    65   34   35 1    
    66   34   90 1    
    67   35   36 1    
    68   35   37 1    
    69   35   91 1    
    70   36   92 1    
    71   36   93 1    
    72   36   94 1    
    73   37   38 2    
    74   37   39 am   BACKBONE|DICT|INTERRES
    75   39   40 1    
    76   39   95 1    
    77   40   41 1    
    78   40   42 1    
    79   40   96 1    
    80   41   97 1    
    81   41   98 1    
    82   41   99 1    
    83   42   43 2    
    84   42   44 am   BACKBONE|DICT|INTERRES
    85   44   45 1    
    86   44  100 1    
    87   45   46 1    
    88   45   47 1    
    89   45  101 1    
    90   46  102 1    
    91   46  103 1    
    92   46  104 1    
    93   47   48 2    
    94   47   49 am   BACKBONE|DICT|INTERRES
    95   49   50 1    
    96   49  105 1    
    97   50   51 1    
    98   50   52 1    
    99   50  106 1    
   100   51  107 1    
   101   51  108 1    
   102   51  109 1    
   103   52   53 2    
   104   52   54 am   BACKBONE|DICT|INTERRES
   105   54   55 1    
   106   54  110 1    
   107   55   56 1    
   108   55   59 1    
   109   55  111 1    
   110   56   57 am   BACKBONE|DICT|INTERRES
   111   56   58 2    
   112   57  112 1    
   113   57  113 1    
   114   59   60 1    
   115   59  114 1    
   116   59  115 1    
   117   60   61 1    
   118   61  116 1    
   119   61  117 1    
@<TRIPOS>SUBSTRUCTURE
     1 UNK         1 GROUP             0       ****    0 ROOT    
