@<TRIPOS>MOLECULE
3R8
117   119    1
SMALL
USER_CHARGES


@<TRIPOS>ATOM
      1 CA         20.8722  -32.7476  -47.8280 C.3       0 UNK        -0.2013 
      2 C          20.3292  -31.6206  -46.9636 C.2       0 UNK         0.4866 
      3 O          20.9327  -31.2878  -45.9443 O.2       0 UNK        -0.5176 
      4 N          19.2014  -31.0209  -47.3666 N.am      1 UNK        -0.4884 
      5 CA         18.4751  -29.9513  -46.6643 C.3       1 UNK         0.0853 
      6 C6         17.0034  -29.8724  -47.1488 C.3       10 UNK        -0.0849 
      7 S7         16.0288  -31.2745  -46.5035 S.3       10 UNK        -0.2776 
      8 C8         14.7178  -30.4345  -45.5509 C.3       10 UNK         0.0316 
      9 C9         15.2619  -29.5544  -44.4306 C.ar      10 UNK        -0.0863 
     10 C10        15.7659  -30.1276  -43.2590 C.ar      10 UNK        -0.1009 
     11 C11        16.2415  -29.3174  -42.2222 C.ar      10 UNK        -0.0712 
     12 C12        16.2094  -27.9266  -42.3606 C.ar      10 UNK        -0.0894 
     13 C13        15.7041  -27.3431  -43.5238 C.ar      10 UNK        -0.0745 
     14 C14        15.2309  -28.1612  -44.5537 C.ar      10 UNK        -0.0972 
     15 C15        15.6433  -25.8307  -43.6652 C.3       10 UNK         0.0209 
     16 S16        17.1171  -25.1821  -44.5105 S.3       10 UNK        -0.2568 
     17 C17        18.2213  -24.7195  -43.1274 C.3       10 UNK        -0.0983 
     18 CA         19.4145  -25.6902  -42.8912 C.3       3 UNK         0.0876 
     19 N          20.0881  -26.0227  -44.1504 N.am      3 UNK        -0.4424 
     20 C          20.8141  -27.1189  -44.3843 C.2       2 UNK         0.4918 
     21 O          21.1342  -27.9357  -43.5175 O.2       2 UNK        -0.4875 
     22 CA         21.1902  -27.3802  -45.8478 C.3       2 UNK         0.0481 
     23 CB         22.6976  -27.6207  -46.0155 C.3       2 UNK        -0.1831 
     24 N          20.4598  -28.5704  -46.2625 N.am      2 UNK        -0.4498 
     25 C          19.2031  -28.5863  -46.7178 C.2       1 UNK         0.5027 
     26 O          18.6242  -27.5818  -47.1354 O.2       1 UNK        -0.4969 
     27 C          20.4046  -25.1385  -41.8344 C.2       3 UNK         0.5005 
     28 O          20.2056  -24.0312  -41.3283 O.2       3 UNK        -0.5279 
     29 N          21.4713  -25.8891  -41.5342 N.am      4 UNK        -0.4463 
     30 CA         22.5327  -25.5069  -40.6060 C.3       4 UNK         0.0283 
     31 CB         23.6908  -24.8645  -41.3888 C.3       4 UNK        -0.1875 
     32 C          23.0216  -26.7398  -39.8447 C.2       4 UNK         0.4949 
     33 O          23.1029  -27.8246  -40.4240 O.2       4 UNK        -0.5039 
     34 N          23.4002  -26.5397  -38.5757 N.am      5 UNK        -0.4663 
     35 CA         23.9067  -27.5796  -37.6705 C.3       5 UNK         0.0242 
     36 CB         24.0048  -27.0054  -36.2479 C.3       5 UNK        -0.1982 
     37 C          25.2545  -28.1890  -38.0978 C.2       5 UNK         0.5017 
     38 O          25.5512  -29.3170  -37.7059 O.2       5 UNK        -0.5012 
     39 N          26.0309  -27.4491  -38.9033 N.am      6 UNK        -0.4439 
     40 CA         27.2735  -27.9139  -39.5256 C.3       6 UNK         0.0297 
     41 CB         28.0118  -26.7193  -40.1509 C.3       6 UNK        -0.2006 
     42 C          27.0380  -29.0147  -40.5764 C.2       6 UNK         0.4892 
     43 O          27.8593  -29.9254  -40.6878 O.2       6 UNK        -0.5089 
     44 N          25.9214  -28.9171  -41.3120 N.am      7 UNK        -0.4243 
     45 CA         25.4567  -29.9425  -42.2481 C.3       7 UNK         0.0196 
     46 CB         24.6582  -29.2738  -43.3767 C.3       7 UNK        -0.2007 
     47 C          24.5941  -31.0001  -41.5425 C.2       7 UNK         0.5020 
     48 O          24.6032  -32.1603  -41.9541 O.2       7 UNK        -0.5147 
     49 N          23.8519  -30.5718  -40.5096 N.am      8 UNK        -0.4734 
     50 CA         22.9385  -31.3566  -39.6696 C.3       8 UNK         0.0238 
     51 CB         23.7114  -32.4178  -38.8581 C.3       8 UNK        -0.1912 
     52 C          21.7481  -31.9471  -40.4495 C.2       8 UNK         0.5038 
     53 O          21.1934  -32.9666  -40.0348 O.2       8 UNK        -0.5046 
     54 N          21.3792  -31.2890  -41.5577 N.am      9 UNK        -0.4200 
     55 CA         20.2881  -31.6602  -42.4735 C.3       9 UNK         0.0839 
     56 C          20.5151  -33.0078  -43.2283 C.2       9 UNK         0.5513 
     57 N          21.7382  -33.5212  -43.3126 N.am      9 UNK        -0.7519 
     58 O          19.5737  -33.5946  -43.7569 O.2       9 UNK        -0.4960 
     59 C59        18.8847  -31.5796  -41.8065 C.3       10 UNK        -0.0876 
     60 S60        18.5882  -29.9992  -40.9389 S.3       10 UNK        -0.2414 
     61 C61        16.7732  -29.9316  -40.9381 C.3       10 UNK         0.0169 
     62 H62        20.9378  -33.6652  -47.2438 H         1 UNK         0.0903 
     63 H63        20.2393  -32.9407  -48.6939 H         1 UNK         0.0903 
     64 H64        21.8712  -32.4985  -48.1847 H         1 UNK         0.0903 
     65 H65        18.7673  -31.3346  -48.2232 H         1 UNK         0.3096 
     66 H66        18.4534  -30.2097  -45.6021 H         1 UNK         0.1121 
     67 H67        16.9526  -29.8702  -48.2389 H         1 UNK         0.0849 
     68 H68        16.5266  -28.9441  -46.8352 H         1 UNK         0.0849 
     69 H69        14.1016  -29.8494  -46.2355 H         1 UNK         0.0865 
     70 H70        14.0561  -31.1894  -45.1239 H         1 UNK         0.0865 
     71 H71        15.7821  -31.2039  -43.1553 H         1 UNK         0.1346 
     72 H72        16.5737  -27.2992  -41.5586 H         1 UNK         0.1412 
     73 H73        14.8352  -27.7081  -45.4527 H         1 UNK         0.1426 
     74 H74        15.5135  -25.3544  -42.6925 H         1 UNK         0.0716 
     75 H75        14.7632  -25.5564  -44.2489 H         1 UNK         0.0716 
     76 H76        18.5913  -23.7190  -43.3605 H         1 UNK         0.0695 
     77 H77        17.6372  -24.6124  -42.2120 H         1 UNK         0.0695 
     78 H78        19.0047  -26.6159  -42.4803 H         1 UNK         0.0983 
     79 H79        19.8605  -25.4213  -44.9289 H         1 UNK         0.3095 
     80 H80        20.9059  -26.5246  -46.4641 H         1 UNK         0.0454 
     81 H81        23.2768  -26.7896  -45.6113 H         1 UNK         0.0851 
     82 H82        23.0174  -28.5269  -45.5034 H         1 UNK         0.0851 
     83 H83        22.9644  -27.7243  -47.0671 H         1 UNK         0.0851 
     84 H84        20.8403  -29.4641  -45.9548 H         1 UNK         0.2976 
     85 H85        21.5649  -26.8061  -41.9669 H         1 UNK         0.3116 
     86 H86        22.1491  -24.7879  -39.8788 H         1 UNK         0.0646 
     87 H87        24.5013  -24.5668  -40.7224 H         1 UNK         0.0847 
     88 H88        23.3621  -23.9684  -41.9154 H         1 UNK         0.0847 
     89 H89        24.1074  -25.5508  -42.1274 H         1 UNK         0.0847 
     90 H90        23.3131  -25.6111  -38.1862 H         1 UNK         0.3040 
     91 H91        23.1786  -28.3938  -37.6608 H         1 UNK         0.1015 
     92 H92        23.0352  -26.6565  -35.8921 H         1 UNK         0.0786 
     93 H93        24.7038  -26.1696  -36.1963 H         1 UNK         0.0786 
     94 H94        24.3511  -27.7634  -35.5436 H         1 UNK         0.0786 
     95 H95        25.7135  -26.5214  -39.1425 H         1 UNK         0.3172 
     96 H96        27.9067  -28.3334  -38.7408 H         1 UNK         0.0595 
     97 H97        28.2539  -25.9651  -39.4019 H         1 UNK         0.0839 
     98 H98        27.4216  -26.2401  -40.9332 H         1 UNK         0.0839 
     99 H99        28.9526  -27.0372  -40.6026 H         1 UNK         0.0839 
    100 H100       25.2877  -28.1508  -41.1316 H         1 UNK         0.2998 
    101 H101       26.3157  -30.4506  -42.6922 H         1 UNK         0.0822 
    102 H102       24.3024  -30.0183  -44.0904 H         1 UNK         0.0787 
    103 H103       23.7849  -28.7413  -42.9973 H         1 UNK         0.0787 
    104 H104       25.2715  -28.5615  -43.9285 H         1 UNK         0.0787 
    105 H105       23.8297  -29.5698  -40.3383 H         1 UNK         0.3055 
    106 H106       22.5033  -30.6523  -38.9590 H         1 UNK         0.1106 
    107 H107       24.1149  -33.2029  -39.4980 H         1 UNK         0.0828 
    108 H108       24.5413  -31.9698  -38.3113 H         1 UNK         0.0828 
    109 H109       23.0637  -32.8984  -38.1240 H         1 UNK         0.0828 
    110 H110       21.8939  -30.4578  -41.8097 H         1 UNK         0.2931 
    111 H111       20.3087  -30.8986  -43.2541 H         1 UNK         0.0412 
    112 H112       21.8767  -34.3874  -43.8078 H         1 UNK         0.3472 
    113 H113       22.5230  -33.0512  -42.8844 H         1 UNK         0.3472 
    114 H114       18.7507  -32.3943  -41.0931 H         1 UNK         0.0970 
    115 H115       18.1121  -31.7106  -42.5651 H         1 UNK         0.0970 
    116 H116       16.4467  -29.3324  -40.0869 H         1 UNK         0.0612 
    117 H117       16.3624  -30.9304  -40.7820 H         1 UNK         0.0612 
@<TRIPOS>BOND
     1    1    2 1    
     2    1   62 1    
     3    1   63 1    
     4    1   64 1    
     5    2    3 2    
     6    2    4 am   BACKBONE|DICT|INTERRES
     7    4    5 1    
     8    4   65 1    
     9    5    6 1    
    10    5   25 1    
    11    5   66 1    
    12    6    7 1    
    13    6   67 1    
    14    6   68 1    
    15    7    8 1    
    16    8    9 1    
    17    8   69 1    
    18    8   70 1    
    19    9   10 ar   
    20    9   14 ar   
    21   10   11 ar   
    22   10   71 1    
    23   11   12 ar   
    24   11   61 1    
    25   12   13 ar   
    26   12   72 1    
    27   13   14 ar   
    28   13   15 1    
    29   14   73 1    
    30   15   16 1    
    31   15   74 1    
    32   15   75 1    
    33   16   17 1    
    34   17   18 1    
    35   17   76 1    
    36   17   77 1    
    37   18   19 1    
    38   18   27 1    
    39   18   78 1    
    40   19   20 am   BACKBONE|DICT|INTERRES
    41   19   79 1    
    42   20   21 2    
    43   20   22 1    
    44   22   23 1    
    45   22   24 1    
    46   22   80 1    
    47   23   81 1    
    48   23   82 1    
    49   23   83 1    
    50   24   25 am   BACKBONE|DICT|INTERRES
    51   24   84 1    
    52   25   26 2    
    53   27   28 2    
    54   27   29 am   BACKBONE|DICT|INTERRES
    55   29   30 1    
    56   29   85 1    
    57   30   31 1    
    58   30   32 1    
    59   30   86 1    
    60   31   87 1    
    61   31   88 1    
    62   31   89 1    
    63   32   33 2    
    64   32   34 am   BACKBONE|DICT|INTERRES
    65   34   35 1    
    66   34   90 1    
    67   35   36 1    
    68   35   37 1    
    69   35   91 1    
    70   36   92 1    
    71   36   93 1    
    72   36   94 1    
    73   37   38 2    
    74   37   39 am   BACKBONE|DICT|INTERRES
    75   39   40 1    
    76   39   95 1    
    77   40   41 1    
    78   40   42 1    
    79   40   96 1    
    80   41   97 1    
    81   41   98 1    
    82   41   99 1    
    83   42   43 2    
    84   42   44 am   BACKBONE|DICT|INTERRES
    85   44   45 1    
    86   44  100 1    
    87   45   46 1    
    88   45   47 1    
    89   45  101 1    
    90   46  102 1    
    91   46  103 1    
    92   46  104 1    
    93   47   48 2    
    94   47   49 am   BACKBONE|DICT|INTERRES
    95   49   50 1    
    96   49  105 1    
    97   50   51 1    
    98   50   52 1    
    99   50  106 1    
   100   51  107 1    
   101   51  108 1    
   102   51  109 1    
   103   52   53 2    
   104   52   54 am   BACKBONE|DICT|INTERRES
   105   54   55 1    
   106   54  110 1    
   107   55   56 1    
   108   55   59 1    
   109   55  111 1    
   110   56   57 am   BACKBONE|DICT|INTERRES
   111   56   58 2    
   112   57  112 1    
   113   57  113 1    
   114   59   60 1    
   115   59  114 1    
   116   59  115 1    
   117   60   61 1    
   118   61  116 1    
   119   61  117 1    
@<TRIPOS>SUBSTRUCTURE
     1 UNK         1 GROUP             0       ****    0 ROOT    
