@<TRIPOS>MOLECULE
3R8
117   119    1
SMALL
USER_CHARGES


@<TRIPOS>ATOM
      1 CA         14.4699  -25.1294  -41.6946 C.3       0 UNK        -0.2013 
      2 C          14.5717  -24.9556  -43.2025 C.2       0 UNK         0.4866 
      3 O          13.5535  -24.9837  -43.8939 O.2       0 UNK        -0.5176 
      4 N          15.7928  -24.7779  -43.7138 N.am      1 UNK        -0.4884 
      5 CA         16.1144  -24.5508  -45.1222 C.3       1 UNK         0.0853 
      6 C6         15.8881  -25.8060  -46.0244 C.3       10 UNK        -0.0849 
      7 S7         17.0959  -27.1657  -45.8319 S.3       10 UNK        -0.2776 
      8 C8         16.3456  -28.2131  -44.5424 C.3       10 UNK         0.0316 
      9 C9         17.4270  -28.6243  -43.5588 C.ar      10 UNK        -0.0863 
     10 C10        18.1337  -29.8190  -43.7275 C.ar      10 UNK        -0.1009 
     11 C11        19.2383  -30.1074  -42.9180 C.ar      10 UNK        -0.0712 
     12 C12        19.6288  -29.1963  -41.9318 C.ar      10 UNK        -0.0894 
     13 C13        18.9247  -28.0005  -41.7579 C.ar      10 UNK        -0.0745 
     14 C14        17.8007  -27.7415  -42.5452 C.ar      10 UNK        -0.0972 
     15 C15        19.4471  -26.9175  -40.8289 C.3       10 UNK         0.0209 
     16 S16        19.9796  -25.4540  -41.7855 S.3       10 UNK        -0.2568 
     17 C17        21.3280  -26.1336  -42.8132 C.3       10 UNK        -0.0983 
     18 CA         20.8713  -26.6671  -44.2047 C.3       3 UNK         0.0876 
     19 N          20.1840  -25.6990  -45.0580 N.am      3 UNK        -0.4424 
     20 C          20.6403  -24.5316  -45.5278 C.2       2 UNK         0.4918 
     21 O          21.7687  -24.0923  -45.3017 O.2       2 UNK        -0.4875 
     22 CA         19.6725  -23.7133  -46.4110 C.3       2 UNK         0.0481 
     23 CB         20.0818  -23.8235  -47.8885 C.3       2 UNK        -0.1831 
     24 N          18.2636  -24.1110  -46.2727 N.am      2 UNK        -0.4498 
     25 C          17.5209  -23.9119  -45.1735 C.2       1 UNK         0.5027 
     26 O          17.9226  -23.2673  -44.2005 O.2       1 UNK        -0.4969 
     27 C          22.0072  -27.3926  -44.9435 C.2       3 UNK         0.5005 
     28 O          21.8304  -28.5492  -45.3306 O.2       3 UNK        -0.5279 
     29 N          23.1614  -26.7235  -45.0841 N.am      4 UNK        -0.4463 
     30 CA         24.4666  -27.2377  -45.5243 C.3       4 UNK         0.0283 
     31 CB         24.4286  -27.7566  -46.9760 C.3       4 UNK        -0.1875 
     32 C          25.0412  -28.2818  -44.5488 C.2       4 UNK         0.4949 
     33 O          26.0520  -28.0172  -43.8989 O.2       4 UNK        -0.5039 
     34 N          24.3499  -29.4177  -44.4038 N.am      5 UNK        -0.4663 
     35 CA         24.6185  -30.4766  -43.4287 C.3       5 UNK         0.0242 
     36 CB         24.1664  -31.8220  -44.0294 C.3       5 UNK        -0.1982 
     37 C          23.9370  -30.1637  -42.0813 C.2       5 UNK         0.5017 
     38 O          23.2062  -31.0025  -41.5488 O.2       5 UNK        -0.5012 
     39 N          24.1726  -28.9482  -41.5656 N.am      6 UNK        -0.4439 
     40 CA         23.5965  -28.3956  -40.3370 C.3       6 UNK         0.0297 
     41 CB         24.1186  -26.9639  -40.1292 C.3       6 UNK        -0.2006 
     42 C          23.8840  -29.2781  -39.1119 C.2       6 UNK         0.4892 
     43 O          25.0375  -29.3733  -38.6897 O.2       6 UNK        -0.5089 
     44 N          22.8277  -29.9380  -38.6139 N.am      7 UNK        -0.4243 
     45 CA         22.8085  -30.9344  -37.5330 C.3       7 UNK         0.0196 
     46 CB         23.2844  -30.3187  -36.1999 C.3       7 UNK        -0.2007 
     47 C          23.5458  -32.2523  -37.8570 C.2       7 UNK         0.5020 
     48 O          23.6546  -33.1050  -36.9750 O.2       7 UNK        -0.5147 
     49 N          24.0153  -32.4222  -39.1000 N.am      8 UNK        -0.4734 
     50 CA         24.7115  -33.6198  -39.5739 C.3       8 UNK         0.0238 
     51 CB         25.8908  -33.2025  -40.4672 C.3       8 UNK        -0.1912 
     52 C          23.7680  -34.5719  -40.3235 C.2       8 UNK         0.5038 
     53 O          24.0413  -35.7724  -40.3541 O.2       8 UNK        -0.5046 
     54 N          22.6782  -34.0410  -40.8980 N.am      9 UNK        -0.4200 
     55 CA         21.6252  -34.8252  -41.5640 C.3       9 UNK         0.0839 
     56 C          20.6972  -35.6387  -40.6121 C.2       9 UNK         0.5513 
     57 N          20.7633  -35.4582  -39.2980 N.am      9 UNK        -0.7519 
     58 O          19.9125  -36.4615  -41.0773 O.2       9 UNK        -0.4960 
     59 C59        20.8243  -33.9748  -42.5837 C.3       10 UNK        -0.0876 
     60 S60        19.8984  -32.5813  -41.8479 S.3       10 UNK        -0.2414 
     61 C61        20.0720  -31.3521  -43.1746 C.3       10 UNK         0.0169 
     62 H62        13.8293  -24.3569  -41.2700 H         1 UNK         0.0903 
     63 H63        14.0359  -26.1005  -41.4581 H         1 UNK         0.0903 
     64 H64        15.4439  -25.0665  -41.2093 H         1 UNK         0.0903 
     65 H65        16.5912  -24.6615  -43.1014 H         1 UNK         0.3096 
     66 H66        15.4377  -23.7703  -45.4774 H         1 UNK         0.1121 
     67 H67        15.9062  -25.5033  -47.0726 H         1 UNK         0.0849 
     68 H68        14.8839  -26.2046  -45.8755 H         1 UNK         0.0849 
     69 H69        15.5504  -27.6799  -44.0207 H         1 UNK         0.0865 
     70 H70        15.8837  -29.0877  -45.0029 H         1 UNK         0.0865 
     71 H71        17.8596  -30.4951  -44.5259 H         1 UNK         0.1346 
     72 H72        20.5131  -29.4002  -41.3449 H         1 UNK         0.1412 
     73 H73        17.2814  -26.8004  -42.4364 H         1 UNK         0.1426 
     74 H74        20.2780  -27.2801  -40.2226 H         1 UNK         0.0716 
     75 H75        18.6585  -26.6245  -40.1345 H         1 UNK         0.0716 
     76 H76        21.8138  -26.9308  -42.2506 H         1 UNK         0.0695 
     77 H77        22.0769  -25.3483  -42.9235 H         1 UNK         0.0695 
     78 H78        20.1247  -27.4384  -44.0346 H         1 UNK         0.0983 
     79 H79        19.2501  -25.9731  -45.3313 H         1 UNK         0.3095 
     80 H80        19.7620  -22.6674  -46.1105 H         1 UNK         0.0454 
     81 H81        20.0055  -24.8482  -48.2545 H         1 UNK         0.0851 
     82 H82        21.1147  -23.5032  -48.0324 H         1 UNK         0.0851 
     83 H83        19.4590  -23.1918  -48.5221 H         1 UNK         0.0851 
     84 H84        17.8721  -24.6571  -47.0272 H         1 UNK         0.2976 
     85 H85        23.1555  -25.7524  -44.7928 H         1 UNK         0.3116 
     86 H86        25.1440  -26.3823  -45.5056 H         1 UNK         0.0646 
     87 H87        23.7772  -28.6226  -47.0944 H         1 UNK         0.0847 
     88 H88        25.4242  -28.0566  -47.3051 H         1 UNK         0.0847 
     89 H89        24.0811  -26.9836  -47.6612 H         1 UNK         0.0847 
     90 H90        23.4626  -29.4711  -44.8988 H         1 UNK         0.3040 
     91 H91        25.6926  -30.5364  -43.2392 H         1 UNK         0.1015 
     92 H92        23.1082  -31.8125  -44.2891 H         1 UNK         0.0786 
     93 H93        24.3230  -32.6471  -43.3342 H         1 UNK         0.0786 
     94 H94        24.7268  -32.0552  -44.9347 H         1 UNK         0.0786 
     95 H95        24.8263  -28.3579  -42.0648 H         1 UNK         0.3172 
     96 H96        22.5168  -28.3399  -40.4795 H         1 UNK         0.0595 
     97 H97        25.2031  -26.9423  -40.0137 H         1 UNK         0.0839 
     98 H98        23.6873  -26.5191  -39.2313 H         1 UNK         0.0839 
     99 H99        23.8592  -26.3156  -40.9660 H         1 UNK         0.0839 
    100 H100       21.9390  -29.8052  -39.0760 H         1 UNK         0.2998 
    101 H101       21.7606  -31.2108  -37.4071 H         1 UNK         0.0822 
    102 H102       23.1192  -31.0066  -35.3697 H         1 UNK         0.0787 
    103 H103       24.3493  -30.0851  -36.2167 H         1 UNK         0.0787 
    104 H104       22.7424  -29.4013  -35.9699 H         1 UNK         0.0787 
    105 H105       23.8437  -31.6952  -39.7873 H         1 UNK         0.3055 
    106 H106       25.1187  -34.1733  -38.7245 H         1 UNK         0.1106 
    107 H107       26.4380  -34.0758  -40.8250 H         1 UNK         0.0828 
    108 H108       25.5626  -32.6431  -41.3414 H         1 UNK         0.0828 
    109 H109       26.5982  -32.5794  -39.9196 H         1 UNK         0.0828 
    110 H110       22.5346  -33.0400  -40.8602 H         1 UNK         0.2931 
    111 H111       22.1416  -35.5833  -42.1564 H         1 UNK         0.0412 
    112 H112       21.4067  -34.7898  -38.9063 H         1 UNK         0.3472 
    113 H113       20.1612  -35.9957  -38.6942 H         1 UNK         0.3472 
    114 H114       20.1207  -34.6016  -43.1348 H         1 UNK         0.0970 
    115 H115       21.5147  -33.5873  -43.3344 H         1 UNK         0.0970 
    116 H116       21.1188  -31.0640  -43.2676 H         1 UNK         0.0612 
    117 H117       19.7921  -31.8097  -44.1248 H         1 UNK         0.0612 
@<TRIPOS>BOND
     1    1    2 1    
     2    1   62 1    
     3    1   63 1    
     4    1   64 1    
     5    2    3 2    
     6    2    4 am   BACKBONE|DICT|INTERRES
     7    4    5 1    
     8    4   65 1    
     9    5    6 1    
    10    5   25 1    
    11    5   66 1    
    12    6    7 1    
    13    6   67 1    
    14    6   68 1    
    15    7    8 1    
    16    8    9 1    
    17    8   69 1    
    18    8   70 1    
    19    9   10 ar   
    20    9   14 ar   
    21   10   11 ar   
    22   10   71 1    
    23   11   12 ar   
    24   11   61 1    
    25   12   13 ar   
    26   12   72 1    
    27   13   14 ar   
    28   13   15 1    
    29   14   73 1    
    30   15   16 1    
    31   15   74 1    
    32   15   75 1    
    33   16   17 1    
    34   17   18 1    
    35   17   76 1    
    36   17   77 1    
    37   18   19 1    
    38   18   27 1    
    39   18   78 1    
    40   19   20 am   BACKBONE|DICT|INTERRES
    41   19   79 1    
    42   20   21 2    
    43   20   22 1    
    44   22   23 1    
    45   22   24 1    
    46   22   80 1    
    47   23   81 1    
    48   23   82 1    
    49   23   83 1    
    50   24   25 am   BACKBONE|DICT|INTERRES
    51   24   84 1    
    52   25   26 2    
    53   27   28 2    
    54   27   29 am   BACKBONE|DICT|INTERRES
    55   29   30 1    
    56   29   85 1    
    57   30   31 1    
    58   30   32 1    
    59   30   86 1    
    60   31   87 1    
    61   31   88 1    
    62   31   89 1    
    63   32   33 2    
    64   32   34 am   BACKBONE|DICT|INTERRES
    65   34   35 1    
    66   34   90 1    
    67   35   36 1    
    68   35   37 1    
    69   35   91 1    
    70   36   92 1    
    71   36   93 1    
    72   36   94 1    
    73   37   38 2    
    74   37   39 am   BACKBONE|DICT|INTERRES
    75   39   40 1    
    76   39   95 1    
    77   40   41 1    
    78   40   42 1    
    79   40   96 1    
    80   41   97 1    
    81   41   98 1    
    82   41   99 1    
    83   42   43 2    
    84   42   44 am   BACKBONE|DICT|INTERRES
    85   44   45 1    
    86   44  100 1    
    87   45   46 1    
    88   45   47 1    
    89   45  101 1    
    90   46  102 1    
    91   46  103 1    
    92   46  104 1    
    93   47   48 2    
    94   47   49 am   BACKBONE|DICT|INTERRES
    95   49   50 1    
    96   49  105 1    
    97   50   51 1    
    98   50   52 1    
    99   50  106 1    
   100   51  107 1    
   101   51  108 1    
   102   51  109 1    
   103   52   53 2    
   104   52   54 am   BACKBONE|DICT|INTERRES
   105   54   55 1    
   106   54  110 1    
   107   55   56 1    
   108   55   59 1    
   109   55  111 1    
   110   56   57 am   BACKBONE|DICT|INTERRES
   111   56   58 2    
   112   57  112 1    
   113   57  113 1    
   114   59   60 1    
   115   59  114 1    
   116   59  115 1    
   117   60   61 1    
   118   61  116 1    
   119   61  117 1    
@<TRIPOS>SUBSTRUCTURE
     1 UNK         1 GROUP             0       ****    0 ROOT    
