@<TRIPOS>MOLECULE
3R8
117   119    1
SMALL
USER_CHARGES


@<TRIPOS>ATOM
      1 CA         15.1767  -24.6104  -39.3327 C.3       0 UNK        -0.2013 
      2 C          16.0528  -24.7219  -40.5715 C.2       0 UNK         0.4866 
      3 O          17.0548  -24.0141  -40.6794 O.2       0 UNK        -0.5176 
      4 N          15.6787  -25.5977  -41.5117 N.am      1 UNK        -0.4884 
      5 CA         16.4405  -25.9024  -42.7263 C.3       1 UNK         0.0853 
      6 C6         15.5473  -26.5735  -43.8028 C.3       10 UNK        -0.0849 
      7 S7         14.6886  -28.0913  -43.2377 S.3       10 UNK        -0.2776 
      8 C8         14.6827  -29.1350  -44.7324 C.3       10 UNK         0.0316 
      9 C9         16.0877  -29.5000  -45.1895 C.ar      10 UNK        -0.0863 
     10 C10        16.8422  -30.4418  -44.4849 C.ar      10 UNK        -0.1009 
     11 C11        18.1391  -30.7633  -44.8975 C.ar      10 UNK        -0.0712 
     12 C12        18.6854  -30.1281  -46.0175 C.ar      10 UNK        -0.0894 
     13 C13        17.9404  -29.1814  -46.7261 C.ar      10 UNK        -0.0745 
     14 C14        16.6359  -28.8893  -46.3193 C.ar      10 UNK        -0.0972 
     15 C15        18.5332  -28.4567  -47.9241 C.3       10 UNK         0.0209 
     16 S16        18.6591  -26.6724  -47.5847 S.3       10 UNK        -0.2568 
     17 C17        20.4541  -26.3734  -47.7090 C.3       10 UNK        -0.0983 
     18 CA         21.3193  -26.7385  -46.4624 C.3       3 UNK         0.0876 
     19 N          20.5526  -26.9076  -45.2151 N.am      3 UNK        -0.4424 
     20 C          21.0830  -26.8582  -43.9844 C.2       2 UNK         0.4918 
     21 O          22.2864  -26.6896  -43.7857 O.2       2 UNK        -0.4875 
     22 CA         20.1314  -27.0356  -42.7902 C.3       2 UNK         0.0481 
     23 CB         20.7431  -26.5212  -41.4685 C.3       2 UNK        -0.1831 
     24 N          18.8304  -26.4074  -43.0375 N.am      2 UNK        -0.4498 
     25 C          17.7024  -26.7296  -42.3885 C.2       1 UNK         0.5027 
     26 O          17.6356  -27.6228  -41.5392 O.2       1 UNK        -0.4969 
     27 C          22.3140  -27.8872  -46.7554 C.2       3 UNK         0.5005 
     28 O          23.2001  -27.7067  -47.5922 O.2       3 UNK        -0.5279 
     29 N          22.1957  -29.0202  -46.0467 N.am      4 UNK        -0.4463 
     30 CA         23.1832  -30.1060  -46.0513 C.3       4 UNK         0.0283 
     31 CB         22.4900  -31.4281  -45.6815 C.3       4 UNK        -0.1875 
     32 C          24.3775  -29.8435  -45.1089 C.2       4 UNK         0.4949 
     33 O          25.2903  -30.6693  -45.0732 O.2       4 UNK        -0.5039 
     34 N          24.3502  -28.7296  -44.3581 N.am      5 UNK        -0.4663 
     35 CA         25.2809  -28.3495  -43.2913 C.3       5 UNK         0.0242 
     36 CB         26.7107  -28.1256  -43.8373 C.3       5 UNK        -0.1982 
     37 C          25.1804  -29.3328  -42.1107 C.2       5 UNK         0.5017 
     38 O          24.0605  -29.6654  -41.7164 O.2       5 UNK        -0.5012 
     39 N          26.3284  -29.7591  -41.5588 N.am      6 UNK        -0.4439 
     40 CA         26.4775  -30.7242  -40.4585 C.3       6 UNK         0.0297 
     41 CB         26.1626  -32.1486  -40.9605 C.3       6 UNK        -0.2006 
     42 C          25.6667  -30.3348  -39.2059 C.2       6 UNK         0.4892 
     43 O          24.9299  -31.1612  -38.6608 O.2       6 UNK        -0.5089 
     44 N          25.7790  -29.0532  -38.8231 N.am      7 UNK        -0.4243 
     45 CA         25.0342  -28.3297  -37.7822 C.3       7 UNK         0.0196 
     46 CB         25.2663  -28.9347  -36.3828 C.3       7 UNK        -0.2007 
     47 C          23.5342  -28.1825  -38.0963 C.2       7 UNK         0.5020 
     48 O          23.0371  -27.0591  -38.1722 O.2       7 UNK        -0.5147 
     49 N          22.8516  -29.3132  -38.2853 N.am      8 UNK        -0.4734 
     50 CA         21.4412  -29.4253  -38.6395 C.3       8 UNK         0.0238 
     51 CB         20.5556  -29.1961  -37.3968 C.3       8 UNK        -0.1912 
     52 C          21.2041  -30.7841  -39.3136 C.2       8 UNK         0.5038 
     53 O          20.3749  -31.5649  -38.8423 O.2       8 UNK        -0.5046 
     54 N          21.9558  -31.0488  -40.3912 N.am      9 UNK        -0.4200 
     55 CA         21.8867  -32.2679  -41.2152 C.3       9 UNK         0.0839 
     56 C          22.4014  -33.5535  -40.4981 C.2       9 UNK         0.5513 
     57 N          23.2654  -33.4522  -39.4949 N.am      9 UNK        -0.7519 
     58 O          22.0329  -34.6664  -40.8661 O.2       9 UNK        -0.4960 
     59 C59        20.4987  -32.4738  -41.8933 C.3       10 UNK        -0.0876 
     60 S60        19.9130  -31.0074  -42.8089 S.3       10 UNK        -0.2414 
     61 C61        18.9453  -31.7954  -44.1273 C.3       10 UNK         0.0169 
     62 H62        14.8035  -23.5921  -39.2270 H         1 UNK         0.0903 
     63 H63        14.3199  -25.2826  -39.3773 H         1 UNK         0.0903 
     64 H64        15.7542  -24.8562  -38.4420 H         1 UNK         0.0903 
     65 H65        14.8717  -26.1867  -41.3591 H         1 UNK         0.3096 
     66 H66        16.7777  -24.9486  -43.1393 H         1 UNK         0.1121 
     67 H67        14.7815  -25.8667  -44.1259 H         1 UNK         0.0849 
     68 H68        16.1396  -26.7784  -44.6940 H         1 UNK         0.0849 
     69 H69        14.1243  -30.0485  -44.5229 H         1 UNK         0.0865 
     70 H70        14.1363  -28.6216  -45.5253 H         1 UNK         0.0865 
     71 H71        16.4228  -30.9162  -43.6080 H         1 UNK         0.1346 
     72 H72        19.6882  -30.3712  -46.3361 H         1 UNK         0.1412 
     73 H73        16.0589  -28.1583  -46.8699 H         1 UNK         0.1426 
     74 H74        17.8911  -28.6098  -48.7926 H         1 UNK         0.0716 
     75 H75        19.5097  -28.8670  -48.1857 H         1 UNK         0.0716 
     76 H76        20.5606  -25.3037  -47.8962 H         1 UNK         0.0695 
     77 H77        20.8194  -26.8431  -48.6249 H         1 UNK         0.0695 
     78 H78        21.9694  -25.8771  -46.2890 H         1 UNK         0.0983 
     79 H79        19.5627  -27.0774  -45.3314 H         1 UNK         0.3095 
     80 H80        19.9778  -28.1105  -42.6931 H         1 UNK         0.0454 
     81 H81        21.6930  -27.0136  -41.2544 H         1 UNK         0.0851 
     82 H82        20.0886  -26.7132  -40.6187 H         1 UNK         0.0851 
     83 H83        20.9328  -25.4482  -41.5073 H         1 UNK         0.0851 
     84 H84        18.8229  -25.6492  -43.7068 H         1 UNK         0.2976 
     85 H85        21.4532  -29.0828  -45.3655 H         1 UNK         0.3116 
     86 H86        23.5873  -30.2139  -47.0601 H         1 UNK         0.0646 
     87 H87        22.1040  -31.4076  -44.6633 H         1 UNK         0.0847 
     88 H88        21.6672  -31.6545  -46.3585 H         1 UNK         0.0847 
     89 H89        23.1882  -32.2641  -45.7413 H         1 UNK         0.0847 
     90 H90        23.5358  -28.1286  -44.4246 H         1 UNK         0.3040 
     91 H91        24.9219  -27.3924  -42.9091 H         1 UNK         0.1015 
     92 H92        27.3573  -27.6759  -43.0829 H         1 UNK         0.0786 
     93 H93        26.6991  -27.4433  -44.6874 H         1 UNK         0.0786 
     94 H94        27.1793  -29.0529  -44.1687 H         1 UNK         0.0786 
     95 H95        27.1904  -29.4129  -41.9571 H         1 UNK         0.3172 
     96 H96        27.5268  -30.7037  -40.1604 H         1 UNK         0.0595 
     97 H97        25.1334  -32.2347  -41.3082 H         1 UNK         0.0839 
     98 H98        26.3053  -32.8874  -40.1710 H         1 UNK         0.0839 
     99 H99        26.8151  -32.4293  -41.7871 H         1 UNK         0.0839 
    100 H100       26.3917  -28.4725  -39.3787 H         1 UNK         0.2998 
    101 H101       25.4499  -27.3206  -37.7699 H         1 UNK         0.0822 
    102 H102       24.7721  -28.3366  -35.6161 H         1 UNK         0.0787 
    103 H103       26.3276  -28.9641  -36.1365 H         1 UNK         0.0787 
    104 H104       24.8765  -29.9495  -36.2998 H         1 UNK         0.0787 
    105 H105       23.3850  -30.1805  -38.2650 H         1 UNK         0.3055 
    106 H106       21.2000  -28.6612  -39.3809 H         1 UNK         0.1106 
    107 H107       20.7028  -28.2002  -36.9791 H         1 UNK         0.0828 
    108 H108       19.4982  -29.2848  -37.6495 H         1 UNK         0.0828 
    109 H109       20.7687  -29.9235  -36.6128 H         1 UNK         0.0828 
    110 H110       22.6491  -30.3720  -40.7023 H         1 UNK         0.2931 
    111 H111       22.6036  -32.1008  -42.0198 H         1 UNK         0.0412 
    112 H112       23.6462  -32.5553  -39.2140 H         1 UNK         0.3472 
    113 H113       23.5893  -34.2925  -39.0438 H         1 UNK         0.3472 
    114 H114       20.5499  -33.3145  -42.5875 H         1 UNK         0.0970 
    115 H115       19.7431  -32.7420  -41.1533 H         1 UNK         0.0970 
    116 H116       19.6138  -32.3352  -44.7994 H         1 UNK         0.0612 
    117 H117       18.2763  -32.5388  -43.6907 H         1 UNK         0.0612 
@<TRIPOS>BOND
     1    1    2 1    
     2    1   62 1    
     3    1   63 1    
     4    1   64 1    
     5    2    3 2    
     6    2    4 am   BACKBONE|DICT|INTERRES
     7    4    5 1    
     8    4   65 1    
     9    5    6 1    
    10    5   25 1    
    11    5   66 1    
    12    6    7 1    
    13    6   67 1    
    14    6   68 1    
    15    7    8 1    
    16    8    9 1    
    17    8   69 1    
    18    8   70 1    
    19    9   10 ar   
    20    9   14 ar   
    21   10   11 ar   
    22   10   71 1    
    23   11   12 ar   
    24   11   61 1    
    25   12   13 ar   
    26   12   72 1    
    27   13   14 ar   
    28   13   15 1    
    29   14   73 1    
    30   15   16 1    
    31   15   74 1    
    32   15   75 1    
    33   16   17 1    
    34   17   18 1    
    35   17   76 1    
    36   17   77 1    
    37   18   19 1    
    38   18   27 1    
    39   18   78 1    
    40   19   20 am   BACKBONE|DICT|INTERRES
    41   19   79 1    
    42   20   21 2    
    43   20   22 1    
    44   22   23 1    
    45   22   24 1    
    46   22   80 1    
    47   23   81 1    
    48   23   82 1    
    49   23   83 1    
    50   24   25 am   BACKBONE|DICT|INTERRES
    51   24   84 1    
    52   25   26 2    
    53   27   28 2    
    54   27   29 am   BACKBONE|DICT|INTERRES
    55   29   30 1    
    56   29   85 1    
    57   30   31 1    
    58   30   32 1    
    59   30   86 1    
    60   31   87 1    
    61   31   88 1    
    62   31   89 1    
    63   32   33 2    
    64   32   34 am   BACKBONE|DICT|INTERRES
    65   34   35 1    
    66   34   90 1    
    67   35   36 1    
    68   35   37 1    
    69   35   91 1    
    70   36   92 1    
    71   36   93 1    
    72   36   94 1    
    73   37   38 2    
    74   37   39 am   BACKBONE|DICT|INTERRES
    75   39   40 1    
    76   39   95 1    
    77   40   41 1    
    78   40   42 1    
    79   40   96 1    
    80   41   97 1    
    81   41   98 1    
    82   41   99 1    
    83   42   43 2    
    84   42   44 am   BACKBONE|DICT|INTERRES
    85   44   45 1    
    86   44  100 1    
    87   45   46 1    
    88   45   47 1    
    89   45  101 1    
    90   46  102 1    
    91   46  103 1    
    92   46  104 1    
    93   47   48 2    
    94   47   49 am   BACKBONE|DICT|INTERRES
    95   49   50 1    
    96   49  105 1    
    97   50   51 1    
    98   50   52 1    
    99   50  106 1    
   100   51  107 1    
   101   51  108 1    
   102   51  109 1    
   103   52   53 2    
   104   52   54 am   BACKBONE|DICT|INTERRES
   105   54   55 1    
   106   54  110 1    
   107   55   56 1    
   108   55   59 1    
   109   55  111 1    
   110   56   57 am   BACKBONE|DICT|INTERRES
   111   56   58 2    
   112   57  112 1    
   113   57  113 1    
   114   59   60 1    
   115   59  114 1    
   116   59  115 1    
   117   60   61 1    
   118   61  116 1    
   119   61  117 1    
@<TRIPOS>SUBSTRUCTURE
     1 UNK         1 GROUP             0       ****    0 ROOT    
