@<TRIPOS>MOLECULE
3R8
117   119    1
SMALL
USER_CHARGES


@<TRIPOS>ATOM
      1 CA         14.4689  -22.6751  -45.8499 C.3       0 UNK        -0.2013 
      2 C          15.3991  -23.5086  -44.9807 C.2       0 UNK         0.4866 
      3 O          15.5899  -23.1822  -43.8092 O.2       0 UNK        -0.5176 
      4 N          15.9741  -24.5772  -45.5513 N.am      1 UNK        -0.4884 
      5 CA         16.8953  -25.5260  -44.9091 C.3       1 UNK         0.0853 
      6 C6         16.2241  -26.4164  -43.8242 C.3       10 UNK        -0.0849 
      7 S7         15.1013  -27.6412  -44.5764 S.3       10 UNK        -0.2776 
      8 C8         15.3476  -29.1042  -43.5071 C.3       10 UNK         0.0316 
      9 C9         16.7618  -29.6842  -43.5419 C.ar      10 UNK        -0.0863 
     10 C10        17.4178  -29.9857  -42.3421 C.ar      10 UNK        -0.1009 
     11 C11        18.6935  -30.5581  -42.3502 C.ar      10 UNK        -0.0712 
     12 C12        19.3209  -30.8145  -43.5709 C.ar      10 UNK        -0.0894 
     13 C13        18.6797  -30.5288  -44.7774 C.ar      10 UNK        -0.0745 
     14 C14        17.3974  -29.9676  -44.7573 C.ar      10 UNK        -0.0972 
     15 C15        19.3689  -30.8516  -46.0990 C.3       10 UNK         0.0209 
     16 S16        20.9910  -30.0320  -46.2769 S.3       10 UNK        -0.2568 
     17 C17        20.4983  -28.2768  -46.2677 C.3       10 UNK        -0.0983 
     18 CA         21.3871  -27.3153  -45.4345 C.3       3 UNK         0.0876 
     19 N          20.8492  -25.9634  -45.5933 N.am      3 UNK        -0.4424 
     20 C          21.2455  -24.8198  -45.0201 C.2       2 UNK         0.4918 
     21 O          22.2747  -24.6966  -44.3576 O.2       2 UNK        -0.4875 
     22 CA         20.2512  -23.6427  -45.1463 C.3       2 UNK         0.0481 
     23 CB         20.6454  -22.7258  -46.3141 C.3       2 UNK        -0.1831 
     24 N          18.8568  -24.0941  -45.3186 N.am      2 UNK        -0.4498 
     25 C          18.1961  -24.8500  -44.4243 C.2       1 UNK         0.5027 
     26 O          18.6355  -25.0869  -43.2996 O.2       1 UNK        -0.4969 
     27 C          21.5421  -27.7509  -43.9522 C.2       3 UNK         0.5005 
     28 O          22.4656  -28.5058  -43.6436 O.2       3 UNK        -0.5279 
     29 N          20.7083  -27.2207  -43.0392 N.am      4 UNK        -0.4463 
     30 CA         20.7736  -27.4773  -41.5942 C.3       4 UNK         0.0283 
     31 CB         19.4815  -26.9926  -40.9169 C.3       4 UNK        -0.1875 
     32 C          22.0176  -26.9047  -40.8851 C.2       4 UNK         0.4949 
     33 O          22.1907  -27.1594  -39.6936 O.2       4 UNK        -0.5039 
     34 N          22.8786  -26.1764  -41.6115 N.am      5 UNK        -0.4663 
     35 CA         24.2292  -25.8092  -41.1780 C.3       5 UNK         0.0242 
     36 CB         24.7952  -24.7545  -42.1422 C.3       5 UNK        -0.1982 
     37 C          25.1871  -27.0158  -41.0732 C.2       5 UNK         0.5017 
     38 O          26.2180  -26.8974  -40.4089 O.2       5 UNK        -0.5012 
     39 N          24.8475  -28.1431  -41.7200 N.am      6 UNK        -0.4439 
     40 CA         25.5534  -29.4225  -41.6074 C.3       6 UNK         0.0297 
     41 CB         24.9999  -30.3898  -42.6666 C.3       6 UNK        -0.2006 
     42 C          25.4225  -30.0406  -40.2019 C.2       6 UNK         0.4892 
     43 O          24.4581  -29.7584  -39.4877 O.2       6 UNK        -0.5089 
     44 N          26.3860  -30.9019  -39.8451 N.am      7 UNK        -0.4243 
     45 CA         26.4579  -31.5934  -38.5505 C.3       7 UNK         0.0196 
     46 CB         27.8177  -32.3013  -38.4322 C.3       7 UNK        -0.2007 
     47 C          25.3106  -32.5911  -38.2981 C.2       7 UNK         0.5020 
     48 O          24.9850  -32.8556  -37.1403 O.2       7 UNK        -0.5147 
     49 N          24.7173  -33.1176  -39.3730 N.am      8 UNK        -0.4734 
     50 CA         23.5346  -33.9714  -39.3705 C.3       8 UNK         0.0238 
     51 CB         23.9485  -35.4429  -39.1890 C.3       8 UNK        -0.1912 
     52 C          22.8034  -33.7580  -40.7000 C.2       8 UNK         0.5038 
     53 O          23.4377  -33.3521  -41.6785 O.2       8 UNK        -0.5046 
     54 N          21.4958  -34.0413  -40.7189 N.am      9 UNK        -0.4200 
     55 CA         20.6401  -33.8823  -41.9071 C.3       9 UNK         0.0839 
     56 C          20.8159  -34.9829  -42.9943 C.2       9 UNK         0.5513 
     57 N          21.5403  -36.0656  -42.7379 N.am      9 UNK        -0.7519 
     58 O          20.2867  -34.8477  -44.0941 O.2       9 UNK        -0.4960 
     59 C59        19.1409  -33.6994  -41.5428 C.3       10 UNK        -0.0876 
     60 S60        18.7972  -32.4260  -40.2764 S.3       10 UNK        -0.2414 
     61 C61        19.4037  -30.8893  -41.0445 C.3       10 UNK         0.0169 
     62 H62        13.4711  -22.6493  -45.4128 H         1 UNK         0.0903 
     63 H63        14.3853  -23.0745  -46.8604 H         1 UNK         0.0903 
     64 H64        14.8370  -21.6519  -45.9192 H         1 UNK         0.0903 
     65 H65        15.7567  -24.7835  -46.5172 H         1 UNK         0.3096 
     66 H66        17.2281  -26.1980  -45.7024 H         1 UNK         0.1121 
     67 H67        16.9736  -26.9658  -43.2528 H         1 UNK         0.0849 
     68 H68        15.6759  -25.8142  -43.0983 H         1 UNK         0.0849 
     69 H69        14.6497  -29.8824  -43.8184 H         1 UNK         0.0865 
     70 H70        15.0661  -28.8354  -42.4876 H         1 UNK         0.0865 
     71 H71        16.9331  -29.7883  -41.3956 H         1 UNK         0.1346 
     72 H72        20.3160  -31.2339  -43.5924 H         1 UNK         0.1412 
     73 H73        16.8888  -29.7535  -45.6874 H         1 UNK         0.1426 
     74 H74        19.5128  -31.9310  -46.1642 H         1 UNK         0.0716 
     75 H75        18.7385  -30.5734  -46.9451 H         1 UNK         0.0716 
     76 H76        19.4639  -28.1975  -45.9301 H         1 UNK         0.0695 
     77 H77        20.4894  -27.9518  -47.3095 H         1 UNK         0.0695 
     78 H78        22.3901  -27.3128  -45.8660 H         1 UNK         0.0983 
     79 H79        20.0102  -25.9094  -46.1494 H         1 UNK         0.3095 
     80 H80        20.3053  -23.0646  -44.2216 H         1 UNK         0.0454 
     81 H81        19.9964  -21.8516  -46.3691 H         1 UNK         0.0851 
     82 H82        20.5954  -23.2434  -47.2727 H         1 UNK         0.0851 
     83 H83        21.6665  -22.3608  -46.1943 H         1 UNK         0.0851 
     84 H84        18.4198  -23.9053  -46.2101 H         1 UNK         0.2976 
     85 H85        20.0046  -26.5519  -43.3339 H         1 UNK         0.3116 
     86 H86        20.8311  -28.5582  -41.4692 H         1 UNK         0.0646 
     87 H87        18.5967  -27.4023  -41.4029 H         1 UNK         0.0847 
     88 H88        19.4481  -27.3044  -39.8723 H         1 UNK         0.0847 
     89 H89        19.4034  -25.9052  -40.9309 H         1 UNK         0.0847 
     90 H90        22.6391  -25.9602  -42.5720 H         1 UNK         0.3040 
     91 H91        24.1582  -25.3648  -40.1827 H         1 UNK         0.1015 
     92 H92        24.1605  -23.8687  -42.1786 H         1 UNK         0.0786 
     93 H93        24.8839  -25.1437  -43.1574 H         1 UNK         0.0786 
     94 H94        25.7880  -24.4291  -41.8284 H         1 UNK         0.0786 
     95 H95        23.9777  -28.1569  -42.2433 H         1 UNK         0.3172 
     96 H96        26.6108  -29.2433  -41.8129 H         1 UNK         0.0595 
     97 H97        25.0948  -29.9779  -43.6715 H         1 UNK         0.0839 
     98 H98        23.9446  -30.6104  -42.4965 H         1 UNK         0.0839 
     99 H99        25.5342  -31.3406  -42.6549 H         1 UNK         0.0839 
    100 H100       27.1358  -31.0869  -40.4964 H         1 UNK         0.2998 
    101 H101       26.3997  -30.8336  -37.7681 H         1 UNK         0.0822 
    102 H102       28.6433  -31.5938  -38.5123 H         1 UNK         0.0787 
    103 H103       27.9149  -32.8008  -37.4670 H         1 UNK         0.0787 
    104 H104       27.9465  -33.0599  -39.2054 H         1 UNK         0.0787 
    105 H105       25.0046  -32.8162  -40.2964 H         1 UNK         0.3055 
    106 H106       22.8714  -33.6685  -38.5566 H         1 UNK         0.1106 
    107 H107       24.6045  -35.7783  -39.9934 H         1 UNK         0.0828 
    108 H108       24.4736  -35.5936  -38.2457 H         1 UNK         0.0828 
    109 H109       23.0773  -36.0988  -39.1805 H         1 UNK         0.0828 
    110 H110       21.0412  -34.3787  -39.8831 H         1 UNK         0.2931 
    111 H111       20.9628  -32.9634  -42.3941 H         1 UNK         0.0412 
    112 H112       21.9834  -36.1854  -41.8416 H         1 UNK         0.3472 
    113 H113       21.6481  -36.7680  -43.4530 H         1 UNK         0.3472 
    114 H114       18.5599  -33.4534  -42.4340 H         1 UNK         0.0970 
    115 H115       18.7307  -34.6418  -41.1755 H         1 UNK         0.0970 
    116 H116       20.4815  -30.9637  -41.1967 H         1 UNK         0.0612 
    117 H117       19.2552  -30.0722  -40.3374 H         1 UNK         0.0612 
@<TRIPOS>BOND
     1    1    2 1    
     2    1   62 1    
     3    1   63 1    
     4    1   64 1    
     5    2    3 2    
     6    2    4 am   BACKBONE|DICT|INTERRES
     7    4    5 1    
     8    4   65 1    
     9    5    6 1    
    10    5   25 1    
    11    5   66 1    
    12    6    7 1    
    13    6   67 1    
    14    6   68 1    
    15    7    8 1    
    16    8    9 1    
    17    8   69 1    
    18    8   70 1    
    19    9   10 ar   
    20    9   14 ar   
    21   10   11 ar   
    22   10   71 1    
    23   11   12 ar   
    24   11   61 1    
    25   12   13 ar   
    26   12   72 1    
    27   13   14 ar   
    28   13   15 1    
    29   14   73 1    
    30   15   16 1    
    31   15   74 1    
    32   15   75 1    
    33   16   17 1    
    34   17   18 1    
    35   17   76 1    
    36   17   77 1    
    37   18   19 1    
    38   18   27 1    
    39   18   78 1    
    40   19   20 am   BACKBONE|DICT|INTERRES
    41   19   79 1    
    42   20   21 2    
    43   20   22 1    
    44   22   23 1    
    45   22   24 1    
    46   22   80 1    
    47   23   81 1    
    48   23   82 1    
    49   23   83 1    
    50   24   25 am   BACKBONE|DICT|INTERRES
    51   24   84 1    
    52   25   26 2    
    53   27   28 2    
    54   27   29 am   BACKBONE|DICT|INTERRES
    55   29   30 1    
    56   29   85 1    
    57   30   31 1    
    58   30   32 1    
    59   30   86 1    
    60   31   87 1    
    61   31   88 1    
    62   31   89 1    
    63   32   33 2    
    64   32   34 am   BACKBONE|DICT|INTERRES
    65   34   35 1    
    66   34   90 1    
    67   35   36 1    
    68   35   37 1    
    69   35   91 1    
    70   36   92 1    
    71   36   93 1    
    72   36   94 1    
    73   37   38 2    
    74   37   39 am   BACKBONE|DICT|INTERRES
    75   39   40 1    
    76   39   95 1    
    77   40   41 1    
    78   40   42 1    
    79   40   96 1    
    80   41   97 1    
    81   41   98 1    
    82   41   99 1    
    83   42   43 2    
    84   42   44 am   BACKBONE|DICT|INTERRES
    85   44   45 1    
    86   44  100 1    
    87   45   46 1    
    88   45   47 1    
    89   45  101 1    
    90   46  102 1    
    91   46  103 1    
    92   46  104 1    
    93   47   48 2    
    94   47   49 am   BACKBONE|DICT|INTERRES
    95   49   50 1    
    96   49  105 1    
    97   50   51 1    
    98   50   52 1    
    99   50  106 1    
   100   51  107 1    
   101   51  108 1    
   102   51  109 1    
   103   52   53 2    
   104   52   54 am   BACKBONE|DICT|INTERRES
   105   54   55 1    
   106   54  110 1    
   107   55   56 1    
   108   55   59 1    
   109   55  111 1    
   110   56   57 am   BACKBONE|DICT|INTERRES
   111   56   58 2    
   112   57  112 1    
   113   57  113 1    
   114   59   60 1    
   115   59  114 1    
   116   59  115 1    
   117   60   61 1    
   118   61  116 1    
   119   61  117 1    
@<TRIPOS>SUBSTRUCTURE
     1 UNK         1 GROUP             0       ****    0 ROOT    
