@<TRIPOS>MOLECULE
3R8
117   119    1
SMALL
USER_CHARGES


@<TRIPOS>ATOM
      1 CA         11.7299  -26.3828  -44.8956 C.3       0 UNK        -0.2013 
      2 C          13.1964  -26.0790  -45.1639 C.2       0 UNK         0.4866 
      3 O          13.5968  -24.9147  -45.1322 O.2       0 UNK        -0.5176 
      4 N          13.9977  -27.1151  -45.4380 N.am      1 UNK        -0.4884 
      5 CA         15.4473  -27.0261  -45.6396 C.3       1 UNK         0.0853 
      6 C6         15.9990  -28.2595  -46.4040 C.3       10 UNK        -0.0849 
      7 S7         15.5348  -29.8701  -45.6721 S.3       10 UNK        -0.2776 
      8 C8         17.1191  -30.7748  -45.6982 C.3       10 UNK         0.0316 
      9 C9         18.1624  -30.2189  -44.7340 C.ar      10 UNK        -0.0863 
     10 C10        17.8407  -29.9693  -43.3966 C.ar      10 UNK        -0.1009 
     11 C11        18.8095  -29.5048  -42.5030 C.ar      10 UNK        -0.0712 
     12 C12        20.1212  -29.3131  -42.9470 C.ar      10 UNK        -0.0894 
     13 C13        20.4576  -29.5608  -44.2816 C.ar      10 UNK        -0.0745 
     14 C14        19.4728  -30.0027  -45.1710 C.ar      10 UNK        -0.0972 
     15 C15        21.8889  -29.3863  -44.7652 C.3       10 UNK         0.0209 
     16 S16        22.2256  -27.6886  -45.3250 S.3       10 UNK        -0.2568 
     17 C17        22.8179  -26.9126  -43.7851 C.3       10 UNK        -0.0983 
     18 CA         22.0984  -25.5872  -43.4291 C.3       3 UNK         0.0876 
     19 N          20.6919  -25.7903  -43.0876 N.am      3 UNK        -0.4424 
     20 C          19.6573  -25.5801  -43.9041 C.2       2 UNK         0.4918 
     21 O          19.7576  -25.1865  -45.0699 O.2       2 UNK        -0.4875 
     22 CA         18.2671  -25.8274  -43.3102 C.3       2 UNK         0.0481 
     23 CB         17.7716  -24.5996  -42.5242 C.3       2 UNK        -0.1831 
     24 N          17.3564  -26.1302  -44.4079 N.am      2 UNK        -0.4498 
     25 C          16.1912  -26.7768  -44.3092 C.2       1 UNK         0.5027 
     26 O          15.7119  -27.1707  -43.2417 O.2       1 UNK        -0.4969 
     27 C          22.7849  -24.9262  -42.2217 C.2       3 UNK         0.5005 
     28 O          22.2873  -25.0307  -41.0962 O.2       3 UNK        -0.5279 
     29 N          23.9365  -24.2888  -42.4716 N.am      4 UNK        -0.4463 
     30 CA         24.7861  -23.6637  -41.4507 C.3       4 UNK         0.0283 
     31 CB         25.6462  -22.5773  -42.1189 C.3       4 UNK        -0.1875 
     32 C          25.6816  -24.6647  -40.6914 C.2       4 UNK         0.4949 
     33 O          26.2926  -24.2806  -39.6936 O.2       4 UNK        -0.5039 
     34 N          25.7617  -25.9111  -41.1705 N.am      5 UNK        -0.4663 
     35 CA         26.5266  -27.0101  -40.5857 C.3       5 UNK         0.0242 
     36 CB         27.8806  -27.1247  -41.3086 C.3       5 UNK        -0.1982 
     37 C          25.7157  -28.3064  -40.7161 C.2       5 UNK         0.5017 
     38 O          24.7586  -28.3525  -41.4932 O.2       5 UNK        -0.5012 
     39 N          26.1101  -29.3332  -39.9531 N.am      6 UNK        -0.4439 
     40 CA         25.4728  -30.6519  -39.9439 C.3       6 UNK         0.0297 
     41 CB         26.0150  -31.4669  -38.7583 C.3       6 UNK        -0.2006 
     42 C          25.6800  -31.4178  -41.2632 C.2       6 UNK         0.4892 
     43 O          26.7459  -31.3090  -41.8746 O.2       6 UNK        -0.5089 
     44 N          24.6685  -32.2052  -41.6409 N.am      7 UNK        -0.4243 
     45 CA         24.6295  -33.0726  -42.8165 C.3       7 UNK         0.0196 
     46 CB         24.6654  -32.2634  -44.1328 C.3       7 UNK        -0.2007 
     47 C          23.3895  -33.9631  -42.6785 C.2       7 UNK         0.5020 
     48 O          23.4664  -34.9925  -42.0079 O.2       7 UNK        -0.5147 
     49 N          22.2645  -33.5454  -43.2794 N.am      8 UNK        -0.4734 
     50 CA         20.9547  -34.1915  -43.1275 C.3       8 UNK         0.0238 
     51 CB         19.9686  -33.6294  -44.1642 C.3       8 UNK        -0.1912 
     52 C          20.4065  -34.0280  -41.7002 C.2       8 UNK         0.5038 
     53 O          19.9902  -35.0140  -41.0906 O.2       8 UNK        -0.5046 
     54 N          20.4717  -32.7936  -41.1864 N.am      9 UNK        -0.4200 
     55 CA         20.3350  -32.4840  -39.7588 C.3       9 UNK         0.0839 
     56 C          21.6561  -32.8070  -39.0143 C.2       9 UNK         0.5513 
     57 N          21.5764  -33.3030  -37.7881 N.am      9 UNK        -0.7519 
     58 O          22.7480  -32.5693  -39.5264 O.2       9 UNK        -0.4960 
     59 C59        19.9316  -31.0067  -39.5278 C.3       10 UNK        -0.0876 
     60 S60        18.2187  -30.6739  -40.0565 S.3       10 UNK        -0.2414 
     61 C61        18.4147  -29.1779  -41.0715 C.3       10 UNK         0.0169 
     62 H62        11.4557  -26.0514  -43.8944 H         1 UNK         0.0903 
     63 H63        11.1001  -25.8579  -45.6133 H         1 UNK         0.0903 
     64 H64        11.5140  -27.4485  -44.9709 H         1 UNK         0.0903 
     65 H65        13.6310  -28.0566  -45.4141 H         1 UNK         0.3096 
     66 H66        15.6284  -26.1511  -46.2688 H         1 UNK         0.1121 
     67 H67        17.0844  -28.1940  -46.5022 H         1 UNK         0.0849 
     68 H68        15.6175  -28.2461  -47.4261 H         1 UNK         0.0849 
     69 H69        16.9289  -31.8156  -45.4329 H         1 UNK         0.0865 
     70 H70        17.4992  -30.7862  -46.7210 H         1 UNK         0.0865 
     71 H71        16.8289  -30.1276  -43.0488 H         1 UNK         0.1346 
     72 H72        20.8767  -28.9616  -42.2584 H         1 UNK         0.1412 
     73 H73        19.7363  -30.2012  -46.2010 H         1 UNK         0.1426 
     74 H74        22.0861  -30.0695  -45.5926 H         1 UNK         0.0716 
     75 H75        22.5877  -29.6607  -43.9750 H         1 UNK         0.0716 
     76 H76        22.7199  -27.6159  -42.9577 H         1 UNK         0.0695 
     77 H77        23.8898  -26.7510  -43.9131 H         1 UNK         0.0695 
     78 H78        22.1768  -24.8952  -44.2709 H         1 UNK         0.0983 
     79 H79        20.5322  -26.0145  -42.1145 H         1 UNK         0.3095 
     80 H80        18.3221  -26.6891  -42.6438 H         1 UNK         0.0454 
     81 H81        16.7931  -24.7795  -42.0789 H         1 UNK         0.0851 
     82 H82        18.4544  -24.3520  -41.7106 H         1 UNK         0.0851 
     83 H83        17.6913  -23.7195  -43.1633 H         1 UNK         0.0851 
     84 H84        17.7186  -25.8638  -45.3159 H         1 UNK         0.2976 
     85 H85        24.2789  -24.2519  -43.4220 H         1 UNK         0.3116 
     86 H86        24.1451  -23.1788  -40.7112 H         1 UNK         0.0646 
     87 H87        26.2610  -22.0574  -41.3828 H         1 UNK         0.0847 
     88 H88        25.0277  -21.8246  -42.6080 H         1 UNK         0.0847 
     89 H89        26.3208  -22.9974  -42.8660 H         1 UNK         0.0847 
     90 H90        25.1635  -26.1816  -41.9392 H         1 UNK         0.3040 
     91 H91        26.6927  -26.8228  -39.5222 H         1 UNK         0.1015 
     92 H92        28.4575  -26.2043  -41.2156 H         1 UNK         0.0786 
     93 H93        27.7520  -27.3331  -42.3716 H         1 UNK         0.0786 
     94 H94        28.4865  -27.9289  -40.8894 H         1 UNK         0.0786 
     95 H95        26.9315  -29.2250  -39.3761 H         1 UNK         0.3172 
     96 H96        24.4022  -30.4962  -39.7952 H         1 UNK         0.0595 
     97 H97        25.8295  -30.9627  -37.8098 H         1 UNK         0.0839 
     98 H98        27.0881  -31.6423  -38.8449 H         1 UNK         0.0839 
     99 H99        25.5291  -32.4423  -38.7029 H         1 UNK         0.0839 
    100 H100       23.8804  -32.3023  -41.0012 H         1 UNK         0.2998 
    101 H101       25.5031  -33.7273  -42.7899 H         1 UNK         0.0822 
    102 H102       25.6336  -31.7840  -44.2764 H         1 UNK         0.0787 
    103 H103       24.5035  -32.9096  -44.9967 H         1 UNK         0.0787 
    104 H104       23.9100  -31.4815  -44.1543 H         1 UNK         0.0787 
    105 H105       22.2982  -32.6983  -43.8269 H         1 UNK         0.3055 
    106 H106       21.0784  -35.2605  -43.3163 H         1 UNK         0.1106 
    107 H107       19.7921  -32.5645  -44.0175 H         1 UNK         0.0828 
    108 H108       20.3322  -33.7740  -45.1816 H         1 UNK         0.0828 
    109 H109       19.0018  -34.1295  -44.0920 H         1 UNK         0.0828 
    110 H110       20.8336  -32.0528  -41.7659 H         1 UNK         0.2931 
    111 H111       19.5496  -33.1181  -39.3414 H         1 UNK         0.0412 
    112 H112       20.6841  -33.4910  -37.3574 H         1 UNK         0.3472 
    113 H113       22.4272  -33.5032  -37.2858 H         1 UNK         0.3472 
    114 H114       20.6267  -30.3347  -40.0341 H         1 UNK         0.0970 
    115 H115       19.9896  -30.7543  -38.4670 H         1 UNK         0.0970 
    116 H116       17.4647  -28.6409  -41.0817 H         1 UNK         0.0612 
    117 H117       19.1359  -28.5030  -40.6082 H         1 UNK         0.0612 
@<TRIPOS>BOND
     1    1    2 1    
     2    1   62 1    
     3    1   63 1    
     4    1   64 1    
     5    2    3 2    
     6    2    4 am   BACKBONE|DICT|INTERRES
     7    4    5 1    
     8    4   65 1    
     9    5    6 1    
    10    5   25 1    
    11    5   66 1    
    12    6    7 1    
    13    6   67 1    
    14    6   68 1    
    15    7    8 1    
    16    8    9 1    
    17    8   69 1    
    18    8   70 1    
    19    9   10 ar   
    20    9   14 ar   
    21   10   11 ar   
    22   10   71 1    
    23   11   12 ar   
    24   11   61 1    
    25   12   13 ar   
    26   12   72 1    
    27   13   14 ar   
    28   13   15 1    
    29   14   73 1    
    30   15   16 1    
    31   15   74 1    
    32   15   75 1    
    33   16   17 1    
    34   17   18 1    
    35   17   76 1    
    36   17   77 1    
    37   18   19 1    
    38   18   27 1    
    39   18   78 1    
    40   19   20 am   BACKBONE|DICT|INTERRES
    41   19   79 1    
    42   20   21 2    
    43   20   22 1    
    44   22   23 1    
    45   22   24 1    
    46   22   80 1    
    47   23   81 1    
    48   23   82 1    
    49   23   83 1    
    50   24   25 am   BACKBONE|DICT|INTERRES
    51   24   84 1    
    52   25   26 2    
    53   27   28 2    
    54   27   29 am   BACKBONE|DICT|INTERRES
    55   29   30 1    
    56   29   85 1    
    57   30   31 1    
    58   30   32 1    
    59   30   86 1    
    60   31   87 1    
    61   31   88 1    
    62   31   89 1    
    63   32   33 2    
    64   32   34 am   BACKBONE|DICT|INTERRES
    65   34   35 1    
    66   34   90 1    
    67   35   36 1    
    68   35   37 1    
    69   35   91 1    
    70   36   92 1    
    71   36   93 1    
    72   36   94 1    
    73   37   38 2    
    74   37   39 am   BACKBONE|DICT|INTERRES
    75   39   40 1    
    76   39   95 1    
    77   40   41 1    
    78   40   42 1    
    79   40   96 1    
    80   41   97 1    
    81   41   98 1    
    82   41   99 1    
    83   42   43 2    
    84   42   44 am   BACKBONE|DICT|INTERRES
    85   44   45 1    
    86   44  100 1    
    87   45   46 1    
    88   45   47 1    
    89   45  101 1    
    90   46  102 1    
    91   46  103 1    
    92   46  104 1    
    93   47   48 2    
    94   47   49 am   BACKBONE|DICT|INTERRES
    95   49   50 1    
    96   49  105 1    
    97   50   51 1    
    98   50   52 1    
    99   50  106 1    
   100   51  107 1    
   101   51  108 1    
   102   51  109 1    
   103   52   53 2    
   104   52   54 am   BACKBONE|DICT|INTERRES
   105   54   55 1    
   106   54  110 1    
   107   55   56 1    
   108   55   59 1    
   109   55  111 1    
   110   56   57 am   BACKBONE|DICT|INTERRES
   111   56   58 2    
   112   57  112 1    
   113   57  113 1    
   114   59   60 1    
   115   59  114 1    
   116   59  115 1    
   117   60   61 1    
   118   61  116 1    
   119   61  117 1    
@<TRIPOS>SUBSTRUCTURE
     1 UNK         1 GROUP             0       ****    0 ROOT    
