@<TRIPOS>MOLECULE
3R8
117   119    1
SMALL
USER_CHARGES


@<TRIPOS>ATOM
      1 CA         17.3825  -24.5372  -46.1938 C.3       0 UNK        -0.2013 
      2 C          15.8814  -24.2758  -46.0981 C.2       0 UNK         0.4866 
      3 O          15.4156  -23.2528  -46.5964 O.2       0 UNK        -0.5176 
      4 N          15.0804  -25.1617  -45.4882 N.am      1 UNK        -0.4884 
      5 CA         15.4784  -26.3864  -44.7825 C.3       1 UNK         0.0853 
      6 C6         14.2589  -27.3263  -44.6117 C.3       10 UNK        -0.0849 
      7 S7         14.6448  -29.0466  -44.1309 S.3       10 UNK        -0.2776 
      8 C8         15.7386  -29.6291  -45.4712 C.3       10 UNK         0.0316 
      9 C9         17.2169  -29.5330  -45.1020 C.ar      10 UNK        -0.0863 
     10 C10        17.7023  -30.2299  -43.9913 C.ar      10 UNK        -0.1009 
     11 C11        19.0653  -30.2255  -43.6838 C.ar      10 UNK        -0.0712 
     12 C12        19.9493  -29.5098  -44.4952 C.ar      10 UNK        -0.0894 
     13 C13        19.4807  -28.7952  -45.6047 C.ar      10 UNK        -0.0745 
     14 C14        18.1127  -28.8136  -45.9016 C.ar      10 UNK        -0.0972 
     15 C15        20.4501  -28.0900  -46.5499 C.3       10 UNK         0.0209 
     16 S16        21.7838  -27.1750  -45.7067 S.3       10 UNK        -0.2568 
     17 C17        20.9810  -25.5942  -45.2663 C.3       10 UNK        -0.0983 
     18 CA         20.8043  -25.3496  -43.7411 C.3       3 UNK         0.0876 
     19 N          19.7491  -26.2030  -43.1954 N.am      3 UNK        -0.4424 
     20 C          19.0067  -25.9262  -42.1159 C.2       2 UNK         0.4918 
     21 O          19.1237  -24.9055  -41.4348 O.2       2 UNK        -0.4875 
     22 CA         17.8938  -26.9449  -41.8144 C.3       2 UNK         0.0481 
     23 CB         17.1526  -26.6778  -40.4878 C.3       2 UNK        -0.1831 
     24 N          16.9653  -27.0391  -42.9463 N.am      2 UNK        -0.4498 
     25 C          16.1820  -26.0692  -43.4430 C.2       1 UNK         0.5027 
     26 O          16.0219  -24.9671  -42.9128 O.2       1 UNK        -0.4969 
     27 C          22.1210  -25.4413  -42.9295 C.2       3 UNK         0.5005 
     28 O          22.1440  -25.9777  -41.8189 O.2       3 UNK        -0.5279 
     29 N          23.2122  -24.9262  -43.5162 N.am      4 UNK        -0.4463 
     30 CA         24.5714  -24.9571  -42.9657 C.3       4 UNK         0.0283 
     31 CB         25.4906  -24.0938  -43.8446 C.3       4 UNK        -0.1875 
     32 C          25.1609  -26.3719  -42.8057 C.2       4 UNK         0.4949 
     33 O          26.0847  -26.5457  -42.0097 O.2       4 UNK        -0.5039 
     34 N          24.6175  -27.3654  -43.5250 N.am      5 UNK        -0.4663 
     35 CA         24.9759  -28.7849  -43.4285 C.3       5 UNK         0.0242 
     36 CB         24.5313  -29.5074  -44.7140 C.3       5 UNK        -0.1982 
     37 C          24.4030  -29.4456  -42.1570 C.2       5 UNK         0.5017 
     38 O          23.7232  -30.4692  -42.2406 O.2       5 UNK        -0.5012 
     39 N          24.7075  -28.8622  -40.9907 N.am      6 UNK        -0.4439 
     40 CA         24.2379  -29.2846  -39.6672 C.3       6 UNK         0.0297 
     41 CB         24.7118  -28.2685  -38.6165 C.3       6 UNK        -0.2006 
     42 C          24.6598  -30.7111  -39.2700 C.2       6 UNK         0.4892 
     43 O          23.9754  -31.3328  -38.4590 O.2       6 UNK        -0.5089 
     44 N          25.7547  -31.2098  -39.8615 N.am      7 UNK        -0.4243 
     45 CA         26.2240  -32.5898  -39.7273 C.3       7 UNK         0.0196 
     46 CB         27.6706  -32.6812  -40.2395 C.3       7 UNK        -0.2007 
     47 C          25.3303  -33.6111  -40.4565 C.2       7 UNK         0.5020 
     48 O          25.3055  -34.7735  -40.0513 O.2       7 UNK        -0.5147 
     49 N          24.6228  -33.1796  -41.5120 N.am      8 UNK        -0.4734 
     50 CA         23.6520  -34.0037  -42.2376 C.3       8 UNK         0.0238 
     51 CB         23.5433  -33.5194  -43.6935 C.3       8 UNK        -0.1912 
     52 C          22.2744  -33.9841  -41.5572 C.2       8 UNK         0.5038 
     53 O          21.5542  -34.9807  -41.6314 O.2       8 UNK        -0.5046 
     54 N          21.9349  -32.8592  -40.9141 N.am      9 UNK        -0.4200 
     55 CA         20.7165  -32.6798  -40.1142 C.3       9 UNK         0.0839 
     56 C          20.7027  -33.5463  -38.8226 C.2       9 UNK         0.5513 
     57 N          19.5236  -33.8177  -38.2788 N.am      9 UNK        -0.7519 
     58 O          21.7351  -33.9510  -38.2928 O.2       9 UNK        -0.4960 
     59 C59        20.4720  -31.1811  -39.7813 C.3       10 UNK        -0.0876 
     60 S60        20.3071  -30.0303  -41.1990 S.3       10 UNK        -0.2414 
     61 C61        19.5856  -31.0557  -42.5199 C.3       10 UNK         0.0169 
     62 H62        17.8487  -24.4735  -45.2114 H         1 UNK         0.0903 
     63 H63        17.8573  -23.7914  -46.8312 H         1 UNK         0.0903 
     64 H64        17.5906  -25.5144  -46.6275 H         1 UNK         0.0903 
     65 H65        14.0981  -24.9351  -45.4225 H         1 UNK         0.3096 
     66 H66        16.2019  -26.8887  -45.4204 H         1 UNK         0.1121 
     67 H67        13.7021  -27.3806  -45.5491 H         1 UNK         0.0849 
     68 H68        13.5601  -26.9147  -43.8805 H         1 UNK         0.0849 
     69 H69        15.5052  -30.6753  -45.6744 H         1 UNK         0.0865 
     70 H70        15.5197  -29.0906  -46.3947 H         1 UNK         0.0865 
     71 H71        17.0163  -30.8042  -43.3829 H         1 UNK         0.1346 
     72 H72        21.0074  -29.5352  -44.2716 H         1 UNK         0.1412 
     73 H73        17.7519  -28.3007  -46.7831 H         1 UNK         0.1426 
     74 H74        19.9217  -27.4144  -47.2243 H         1 UNK         0.0716 
     75 H75        20.9105  -28.8496  -47.1828 H         1 UNK         0.0716 
     76 H76        20.0127  -25.5364  -45.7622 H         1 UNK         0.0695 
     77 H77        21.5669  -24.7894  -45.7128 H         1 UNK         0.0695 
     78 H78        20.4681  -24.3164  -43.6271 H         1 UNK         0.0983 
     79 H79        19.6118  -27.0848  -43.6682 H         1 UNK         0.3095 
     80 H80        18.3710  -27.9204  -41.7287 H         1 UNK         0.0454 
     81 H81        17.8457  -26.7129  -39.6466 H         1 UNK         0.0851 
     82 H82        16.3837  -27.4284  -40.3065 H         1 UNK         0.0851 
     83 H83        16.6758  -25.6976  -40.4708 H         1 UNK         0.0851 
     84 H84        16.9879  -27.9222  -43.4417 H         1 UNK         0.2976 
     85 H85        23.1132  -24.5176  -44.4347 H         1 UNK         0.3116 
     86 H86        24.5336  -24.5107  -41.9698 H         1 UNK         0.0646 
     87 H87        25.1414  -23.0623  -43.8944 H         1 UNK         0.0847 
     88 H88        25.5544  -24.4786  -44.8633 H         1 UNK         0.0847 
     89 H89        26.5047  -24.0695  -43.4428 H         1 UNK         0.0847 
     90 H90        23.8368  -27.1418  -44.1274 H         1 UNK         0.3040 
     91 H91        26.0636  -28.8626  -43.3660 H         1 UNK         0.1015 
     92 H92        24.8695  -30.5445  -44.7150 H         1 UNK         0.0786 
     93 H93        24.9453  -29.0319  -45.6033 H         1 UNK         0.0786 
     94 H94        23.4459  -29.5221  -44.8147 H         1 UNK         0.0786 
     95 H95        25.2715  -28.0177  -41.0356 H         1 UNK         0.3172 
     96 H96        23.1468  -29.2641  -39.6928 H         1 UNK         0.0595 
     97 H97        25.8002  -28.2158  -38.5674 H         1 UNK         0.0839 
     98 H98        24.3525  -28.5381  -37.6223 H         1 UNK         0.0839 
     99 H99        24.3358  -27.2685  -38.8345 H         1 UNK         0.0839 
    100 H100       26.2618  -30.6143  -40.4995 H         1 UNK         0.2998 
    101 H101       26.2188  -32.8489  -38.6661 H         1 UNK         0.0822 
    102 H102       28.3320  -32.0165  -39.6833 H         1 UNK         0.0787 
    103 H103       28.0610  -33.6935  -40.1254 H         1 UNK         0.0787 
    104 H104       27.7426  -32.4219  -41.2966 H         1 UNK         0.0787 
    105 H105       24.6512  -32.1969  -41.7627 H         1 UNK         0.3055 
    106 H106       23.9997  -35.0394  -42.2525 H         1 UNK         0.1106 
    107 H107       24.5148  -33.5222  -44.1877 H         1 UNK         0.0828 
    108 H108       22.8850  -34.1714  -44.2692 H         1 UNK         0.0828 
    109 H109       23.1348  -32.5107  -43.7606 H         1 UNK         0.0828 
    110 H110       22.5798  -32.0815  -40.9285 H         1 UNK         0.2931 
    111 H111       19.8859  -33.0440  -40.7192 H         1 UNK         0.0412 
    112 H112       18.6657  -33.4941  -38.6984 H         1 UNK         0.3472 
    113 H113       19.4898  -34.3692  -37.4352 H         1 UNK         0.3472 
    114 H114       19.5595  -31.0772  -39.1915 H         1 UNK         0.0970 
    115 H115       21.2742  -30.8080  -39.1425 H         1 UNK         0.0970 
    116 H116       18.7740  -31.6524  -42.1021 H         1 UNK         0.0612 
    117 H117       20.3358  -31.7537  -42.8929 H         1 UNK         0.0612 
@<TRIPOS>BOND
     1    1    2 1    
     2    1   62 1    
     3    1   63 1    
     4    1   64 1    
     5    2    3 2    
     6    2    4 am   BACKBONE|DICT|INTERRES
     7    4    5 1    
     8    4   65 1    
     9    5    6 1    
    10    5   25 1    
    11    5   66 1    
    12    6    7 1    
    13    6   67 1    
    14    6   68 1    
    15    7    8 1    
    16    8    9 1    
    17    8   69 1    
    18    8   70 1    
    19    9   10 ar   
    20    9   14 ar   
    21   10   11 ar   
    22   10   71 1    
    23   11   12 ar   
    24   11   61 1    
    25   12   13 ar   
    26   12   72 1    
    27   13   14 ar   
    28   13   15 1    
    29   14   73 1    
    30   15   16 1    
    31   15   74 1    
    32   15   75 1    
    33   16   17 1    
    34   17   18 1    
    35   17   76 1    
    36   17   77 1    
    37   18   19 1    
    38   18   27 1    
    39   18   78 1    
    40   19   20 am   BACKBONE|DICT|INTERRES
    41   19   79 1    
    42   20   21 2    
    43   20   22 1    
    44   22   23 1    
    45   22   24 1    
    46   22   80 1    
    47   23   81 1    
    48   23   82 1    
    49   23   83 1    
    50   24   25 am   BACKBONE|DICT|INTERRES
    51   24   84 1    
    52   25   26 2    
    53   27   28 2    
    54   27   29 am   BACKBONE|DICT|INTERRES
    55   29   30 1    
    56   29   85 1    
    57   30   31 1    
    58   30   32 1    
    59   30   86 1    
    60   31   87 1    
    61   31   88 1    
    62   31   89 1    
    63   32   33 2    
    64   32   34 am   BACKBONE|DICT|INTERRES
    65   34   35 1    
    66   34   90 1    
    67   35   36 1    
    68   35   37 1    
    69   35   91 1    
    70   36   92 1    
    71   36   93 1    
    72   36   94 1    
    73   37   38 2    
    74   37   39 am   BACKBONE|DICT|INTERRES
    75   39   40 1    
    76   39   95 1    
    77   40   41 1    
    78   40   42 1    
    79   40   96 1    
    80   41   97 1    
    81   41   98 1    
    82   41   99 1    
    83   42   43 2    
    84   42   44 am   BACKBONE|DICT|INTERRES
    85   44   45 1    
    86   44  100 1    
    87   45   46 1    
    88   45   47 1    
    89   45  101 1    
    90   46  102 1    
    91   46  103 1    
    92   46  104 1    
    93   47   48 2    
    94   47   49 am   BACKBONE|DICT|INTERRES
    95   49   50 1    
    96   49  105 1    
    97   50   51 1    
    98   50   52 1    
    99   50  106 1    
   100   51  107 1    
   101   51  108 1    
   102   51  109 1    
   103   52   53 2    
   104   52   54 am   BACKBONE|DICT|INTERRES
   105   54   55 1    
   106   54  110 1    
   107   55   56 1    
   108   55   59 1    
   109   55  111 1    
   110   56   57 am   BACKBONE|DICT|INTERRES
   111   56   58 2    
   112   57  112 1    
   113   57  113 1    
   114   59   60 1    
   115   59  114 1    
   116   59  115 1    
   117   60   61 1    
   118   61  116 1    
   119   61  117 1    
@<TRIPOS>SUBSTRUCTURE
     1 UNK         1 GROUP             0       ****    0 ROOT    
