@<TRIPOS>MOLECULE
3R8
117   119    1
SMALL
USER_CHARGES


@<TRIPOS>ATOM
      1 CA         14.6468  -24.6405  -48.9629 C.3       0 UNK        -0.2013 
      2 C          15.4859  -25.8938  -48.7651 C.2       0 UNK         0.4866 
      3 O          15.9499  -26.4814  -49.7424 O.2       0 UNK        -0.5176 
      4 N          15.6851  -26.3087  -47.5071 N.am      1 UNK        -0.4884 
      5 CA         16.4440  -27.5107  -47.1322 C.3       1 UNK         0.0853 
      6 C6         16.2145  -27.9075  -45.6525 C.3       10 UNK        -0.0849 
      7 S7         14.4672  -28.0782  -45.1623 S.3       10 UNK        -0.2776 
      8 C8         14.6034  -29.2339  -43.7529 C.3       10 UNK         0.0316 
      9 C9         15.7342  -28.8733  -42.7930 C.ar      10 UNK        -0.0863 
     10 C10        16.8097  -29.7507  -42.6142 C.ar      10 UNK        -0.1009 
     11 C11        17.8577  -29.4208  -41.7505 C.ar      10 UNK        -0.0712 
     12 C12        17.8218  -28.2114  -41.0544 C.ar      10 UNK        -0.0894 
     13 C13        16.7695  -27.3107  -41.2460 C.ar      10 UNK        -0.0745 
     14 C14        15.7198  -27.6558  -42.1038 C.ar      10 UNK        -0.0972 
     15 C15        16.7625  -25.9650  -40.5308 C.3       10 UNK         0.0209 
     16 S16        18.3489  -25.0729  -40.6718 S.3       10 UNK        -0.2568 
     17 C17        18.4936  -24.7951  -42.4735 C.3       10 UNK        -0.0983 
     18 CA         19.5208  -25.7108  -43.1955 C.3       3 UNK         0.0876 
     19 N          19.4708  -25.4812  -44.6433 N.am      3 UNK        -0.4424 
     20 C          20.2033  -26.0914  -45.5880 C.2       2 UNK         0.4918 
     21 O          21.0584  -26.9500  -45.3677 O.2       2 UNK        -0.4875 
     22 CA         19.8381  -25.7047  -47.0352 C.3       2 UNK         0.0481 
     23 CB         20.8278  -26.2436  -48.0908 C.3       2 UNK        -0.1831 
     24 N          18.4528  -26.1063  -47.3123 N.am      2 UNK        -0.4498 
     25 C          17.9653  -27.3589  -47.3376 C.2       1 UNK         0.5027 
     26 O          18.6560  -28.3740  -47.4309 O.2       1 UNK        -0.4969 
     27 C          20.9503  -25.5461  -42.6320 C.2       3 UNK         0.5005 
     28 O          21.6323  -24.5700  -42.9578 O.2       3 UNK        -0.5279 
     29 N          21.3586  -26.4975  -41.7882 N.am      4 UNK        -0.4463 
     30 CA         22.6497  -26.5719  -41.1166 C.3       4 UNK         0.0283 
     31 CB         23.7113  -27.1189  -42.0928 C.3       4 UNK        -0.1875 
     32 C          22.4953  -27.4819  -39.8904 C.2       4 UNK         0.4949 
     33 O          21.4230  -28.0585  -39.6838 O.2       4 UNK        -0.5039 
     34 N          23.5766  -27.6207  -39.1123 N.am      5 UNK        -0.4663 
     35 CA         23.6967  -28.6123  -38.0386 C.3       5 UNK         0.0242 
     36 CB         24.9916  -28.3490  -37.2538 C.3       5 UNK        -0.1982 
     37 C          23.7027  -30.0399  -38.6105 C.2       5 UNK         0.5017 
     38 O          24.2058  -30.2406  -39.7176 O.2       5 UNK        -0.5012 
     39 N          23.1744  -31.0060  -37.8476 N.am      6 UNK        -0.4439 
     40 CA         22.9231  -32.3934  -38.2690 C.3       6 UNK         0.0297 
     41 CB         22.2938  -33.1673  -37.0991 C.3       6 UNK        -0.2006 
     42 C          24.1345  -33.1669  -38.8284 C.2       6 UNK         0.4892 
     43 O          23.9380  -34.0961  -39.6113 O.2       6 UNK        -0.5089 
     44 N          25.3531  -32.7722  -38.4359 N.am      7 UNK        -0.4243 
     45 CA         26.6097  -33.3149  -38.9579 C.3       7 UNK         0.0196 
     46 CB         27.7546  -32.9245  -38.0089 C.3       7 UNK        -0.2007 
     47 C          26.9285  -32.8581  -40.3955 C.2       7 UNK         0.5020 
     48 O          27.6566  -33.5633  -41.0948 O.2       7 UNK        -0.5147 
     49 N          26.4074  -31.6936  -40.8044 N.am      8 UNK        -0.4734 
     50 CA         26.6309  -31.0875  -42.1201 C.3       8 UNK         0.0238 
     51 CB         27.0539  -29.6218  -41.9241 C.3       8 UNK        -0.1912 
     52 C          25.3840  -31.1606  -43.0154 C.2       8 UNK         0.5038 
     53 O          25.5312  -31.2589  -44.2342 O.2       8 UNK        -0.5046 
     54 N          24.1928  -31.0888  -42.4070 N.am      9 UNK        -0.4200 
     55 CA         22.8823  -31.1325  -43.0703 C.3       9 UNK         0.0839 
     56 C          22.6260  -32.4509  -43.8528 C.2       9 UNK         0.5513 
     57 N          21.9163  -32.3803  -44.9704 N.am      9 UNK        -0.7519 
     58 O          23.0280  -33.5353  -43.4367 O.2       9 UNK        -0.4960 
     59 C59        21.7481  -30.8472  -42.0502 C.3       10 UNK        -0.0876 
     60 S60        20.3446  -29.9533  -42.7881 S.3       10 UNK        -0.2414 
     61 C61        19.0455  -30.3517  -41.5818 C.3       10 UNK         0.0169 
     62 H62        13.7728  -24.8673  -49.5729 H         1 UNK         0.0903 
     63 H63        14.3004  -24.2271  -48.0158 H         1 UNK         0.0903 
     64 H64        15.2298  -23.8750  -49.4743 H         1 UNK         0.0903 
     65 H65        15.2482  -25.8136  -46.7417 H         1 UNK         0.3096 
     66 H66        16.1096  -28.3343  -47.7674 H         1 UNK         0.1121 
     67 H67        16.7180  -28.8553  -45.4485 H         1 UNK         0.0849 
     68 H68        16.6689  -27.1749  -44.9811 H         1 UNK         0.0849 
     69 H69        13.6586  -29.2431  -43.2078 H         1 UNK         0.0865 
     70 H70        14.7383  -30.2438  -44.1436 H         1 UNK         0.0865 
     71 H71        16.8418  -30.6857  -43.1569 H         1 UNK         0.1346 
     72 H72        18.6328  -27.9570  -40.3849 H         1 UNK         0.1412 
     73 H73        14.8969  -26.9700  -42.2545 H         1 UNK         0.1426 
     74 H74        15.9657  -25.3246  -40.9123 H         1 UNK         0.0716 
     75 H75        16.5465  -26.1319  -39.4749 H         1 UNK         0.0716 
     76 H76        18.7553  -23.7463  -42.6260 H         1 UNK         0.0695 
     77 H77        17.5067  -24.9220  -42.9219 H         1 UNK         0.0695 
     78 H78        19.2164  -26.7491  -43.0487 H         1 UNK         0.0983 
     79 H79        18.8140  -24.7772  -44.9434 H         1 UNK         0.3095 
     80 H80        19.8645  -24.6153  -47.0922 H         1 UNK         0.0454 
     81 H81        20.5201  -25.9686  -49.0994 H         1 UNK         0.0851 
     82 H82        20.9263  -27.3285  -48.0543 H         1 UNK         0.0851 
     83 H83        21.8232  -25.8287  -47.9297 H         1 UNK         0.0851 
     84 H84        17.7692  -25.3633  -47.2740 H         1 UNK         0.2976 
     85 H85        20.7231  -27.2372  -41.5111 H         1 UNK         0.3116 
     86 H86        22.9353  -25.5759  -40.7722 H         1 UNK         0.0646 
     87 H87        23.7883  -26.5006  -42.9872 H         1 UNK         0.0847 
     88 H88        24.7004  -27.1407  -41.6354 H         1 UNK         0.0847 
     89 H89        23.4753  -28.1346  -42.4120 H         1 UNK         0.0847 
     90 H90        24.4206  -27.1269  -39.3630 H         1 UNK         0.3040 
     91 H91        22.8403  -28.5001  -37.3699 H         1 UNK         0.1015 
     92 H92        25.8754  -28.4546  -37.8849 H         1 UNK         0.0786 
     93 H93        25.0978  -29.0498  -36.4246 H         1 UNK         0.0786 
     94 H94        25.0008  -27.3450  -36.8288 H         1 UNK         0.0786 
     95 H95        22.8178  -30.7509  -36.9374 H         1 UNK         0.3172 
     96 H96        22.1868  -32.3459  -39.0740 H         1 UNK         0.0595 
     97 H97        22.9624  -33.2110  -36.2384 H         1 UNK         0.0839 
     98 H98        22.0666  -34.1952  -37.3864 H         1 UNK         0.0839 
     99 H99        21.3574  -32.7118  -36.7766 H         1 UNK         0.0839 
    100 H100       25.4196  -32.0044  -37.7839 H         1 UNK         0.2998 
    101 H101       26.5332  -34.4045  -38.9703 H         1 UNK         0.0822 
    102 H102       27.5831  -33.3045  -37.0016 H         1 UNK         0.0787 
    103 H103       28.7039  -33.3384  -38.3521 H         1 UNK         0.0787 
    104 H104       27.8754  -31.8422  -37.9452 H         1 UNK         0.0787 
    105 H105       25.7730  -31.1974  -40.1848 H         1 UNK         0.3055 
    106 H106       27.4369  -31.6049  -42.6457 H         1 UNK         0.1106 
    107 H107       27.9879  -29.5521  -41.3665 H         1 UNK         0.0828 
    108 H108       27.2118  -29.1269  -42.8835 H         1 UNK         0.0828 
    109 H109       26.2980  -29.0529  -41.3817 H         1 UNK         0.0828 
    110 H110       24.1775  -30.9602  -41.4000 H         1 UNK         0.2931 
    111 H111       22.9067  -30.3163  -43.7957 H         1 UNK         0.0412 
    112 H112       21.5542  -31.4971  -45.2959 H         1 UNK         0.3472 
    113 H113       21.7246  -33.2242  -45.4873 H         1 UNK         0.3472 
    114 H114       21.4055  -31.7645  -41.5669 H         1 UNK         0.0970 
    115 H115       22.1087  -30.2094  -41.2445 H         1 UNK         0.0970 
    116 H116       18.7393  -31.3916  -41.7054 H         1 UNK         0.0612 
    117 H117       19.4466  -30.2608  -40.5706 H         1 UNK         0.0612 
@<TRIPOS>BOND
     1    1    2 1    
     2    1   62 1    
     3    1   63 1    
     4    1   64 1    
     5    2    3 2    
     6    2    4 am   BACKBONE|DICT|INTERRES
     7    4    5 1    
     8    4   65 1    
     9    5    6 1    
    10    5   25 1    
    11    5   66 1    
    12    6    7 1    
    13    6   67 1    
    14    6   68 1    
    15    7    8 1    
    16    8    9 1    
    17    8   69 1    
    18    8   70 1    
    19    9   10 ar   
    20    9   14 ar   
    21   10   11 ar   
    22   10   71 1    
    23   11   12 ar   
    24   11   61 1    
    25   12   13 ar   
    26   12   72 1    
    27   13   14 ar   
    28   13   15 1    
    29   14   73 1    
    30   15   16 1    
    31   15   74 1    
    32   15   75 1    
    33   16   17 1    
    34   17   18 1    
    35   17   76 1    
    36   17   77 1    
    37   18   19 1    
    38   18   27 1    
    39   18   78 1    
    40   19   20 am   BACKBONE|DICT|INTERRES
    41   19   79 1    
    42   20   21 2    
    43   20   22 1    
    44   22   23 1    
    45   22   24 1    
    46   22   80 1    
    47   23   81 1    
    48   23   82 1    
    49   23   83 1    
    50   24   25 am   BACKBONE|DICT|INTERRES
    51   24   84 1    
    52   25   26 2    
    53   27   28 2    
    54   27   29 am   BACKBONE|DICT|INTERRES
    55   29   30 1    
    56   29   85 1    
    57   30   31 1    
    58   30   32 1    
    59   30   86 1    
    60   31   87 1    
    61   31   88 1    
    62   31   89 1    
    63   32   33 2    
    64   32   34 am   BACKBONE|DICT|INTERRES
    65   34   35 1    
    66   34   90 1    
    67   35   36 1    
    68   35   37 1    
    69   35   91 1    
    70   36   92 1    
    71   36   93 1    
    72   36   94 1    
    73   37   38 2    
    74   37   39 am   BACKBONE|DICT|INTERRES
    75   39   40 1    
    76   39   95 1    
    77   40   41 1    
    78   40   42 1    
    79   40   96 1    
    80   41   97 1    
    81   41   98 1    
    82   41   99 1    
    83   42   43 2    
    84   42   44 am   BACKBONE|DICT|INTERRES
    85   44   45 1    
    86   44  100 1    
    87   45   46 1    
    88   45   47 1    
    89   45  101 1    
    90   46  102 1    
    91   46  103 1    
    92   46  104 1    
    93   47   48 2    
    94   47   49 am   BACKBONE|DICT|INTERRES
    95   49   50 1    
    96   49  105 1    
    97   50   51 1    
    98   50   52 1    
    99   50  106 1    
   100   51  107 1    
   101   51  108 1    
   102   51  109 1    
   103   52   53 2    
   104   52   54 am   BACKBONE|DICT|INTERRES
   105   54   55 1    
   106   54  110 1    
   107   55   56 1    
   108   55   59 1    
   109   55  111 1    
   110   56   57 am   BACKBONE|DICT|INTERRES
   111   56   58 2    
   112   57  112 1    
   113   57  113 1    
   114   59   60 1    
   115   59  114 1    
   116   59  115 1    
   117   60   61 1    
   118   61  116 1    
   119   61  117 1    
@<TRIPOS>SUBSTRUCTURE
     1 UNK         1 GROUP             0       ****    0 ROOT    
