@<TRIPOS>MOLECULE
3R8
117   119    1
SMALL
USER_CHARGES


@<TRIPOS>ATOM
      1 CA         17.9183  -22.4319  -44.1821 C.3       0 UNK        -0.2013 
      2 C          17.1135  -23.2054  -43.1406 C.2       0 UNK         0.4866 
      3 O          16.8167  -22.6571  -42.0806 O.2       0 UNK        -0.5176 
      4 N          16.7206  -24.4624  -43.3897 N.am      1 UNK        -0.4884 
      5 CA         17.0391  -25.2921  -44.5591 C.3       1 UNK         0.0853 
      6 C6         15.8903  -26.2897  -44.8713 C.3       10 UNK        -0.0849 
      7 S7         15.5030  -27.4250  -43.4931 S.3       10 UNK        -0.2776 
      8 C8         15.1634  -29.0023  -44.3512 C.3       10 UNK         0.0316 
      9 C9         16.2011  -30.0804  -44.0547 C.ar      10 UNK        -0.0863 
     10 C10        16.7230  -30.8686  -45.0873 C.ar      10 UNK        -0.1009 
     11 C11        17.6013  -31.9228  -44.8064 C.ar      10 UNK        -0.0712 
     12 C12        17.9682  -32.1744  -43.4815 C.ar      10 UNK        -0.0894 
     13 C13        17.4669  -31.3850  -42.4440 C.ar      10 UNK        -0.0745 
     14 C14        16.5788  -30.3484  -42.7353 C.ar      10 UNK        -0.0972 
     15 C15        17.8538  -31.6761  -41.0039 C.3       10 UNK         0.0209 
     16 S16        19.5510  -31.1416  -40.6381 S.3       10 UNK        -0.2568 
     17 C17        19.4215  -29.3239  -40.6892 C.3       10 UNK        -0.0983 
     18 CA         20.4785  -28.7120  -41.6499 C.3       3 UNK         0.0876 
     19 N          19.9338  -28.4328  -42.9877 N.am      3 UNK        -0.4424 
     20 C          20.6855  -28.1376  -44.0589 C.2       2 UNK         0.4918 
     21 O          21.9145  -28.1393  -44.0369 O.2       2 UNK        -0.4875 
     22 CA         19.9740  -27.6920  -45.3503 C.3       2 UNK         0.0481 
     23 CB         19.8102  -28.8721  -46.3122 C.3       2 UNK        -0.1831 
     24 N          18.6742  -27.0347  -45.1766 N.am      2 UNK        -0.4498 
     25 C          18.4353  -25.9482  -44.4287 C.2       1 UNK         0.5027 
     26 O          19.2806  -25.4543  -43.6805 O.2       1 UNK        -0.4969 
     27 C          21.2110  -27.5109  -41.0028 C.2       3 UNK         0.5005 
     28 O          21.9154  -27.7190  -40.0152 O.2       3 UNK        -0.5279 
     29 N          21.0902  -26.2963  -41.5656 N.am      4 UNK        -0.4463 
     30 CA         21.9128  -25.1359  -41.2072 C.3       4 UNK         0.0283 
     31 CB         21.3608  -23.8757  -41.8923 C.3       4 UNK        -0.1875 
     32 C          23.4059  -25.3197  -41.5461 C.2       4 UNK         0.4949 
     33 O          24.2445  -24.6755  -40.9142 O.2       4 UNK        -0.5039 
     34 N          23.7316  -26.2087  -42.4987 N.am      5 UNK        -0.4663 
     35 CA         25.0977  -26.6288  -42.8211 C.3       5 UNK         0.0242 
     36 CB         25.1313  -27.1924  -44.2538 C.3       5 UNK        -0.1982 
     37 C          25.6075  -27.6383  -41.7745 C.2       5 UNK         0.5017 
     38 O          25.7656  -28.8217  -42.0774 O.2       5 UNK        -0.5012 
     39 N          25.8218  -27.1401  -40.5499 N.am      6 UNK        -0.4439 
     40 CA         26.1973  -27.8469  -39.3220 C.3       6 UNK         0.0297 
     41 CB         27.5274  -28.6167  -39.4652 C.3       6 UNK        -0.2006 
     42 C          25.0632  -28.7292  -38.7739 C.2       6 UNK         0.4892 
     43 O          24.5155  -28.4015  -37.7205 O.2       6 UNK        -0.5089 
     44 N          24.7417  -29.8193  -39.4801 N.am      7 UNK        -0.4243 
     45 CA         23.7270  -30.8154  -39.1349 C.3       7 UNK         0.0196 
     46 CB         24.1047  -31.5513  -37.8285 C.3       7 UNK        -0.2007 
     47 C          23.6007  -31.8246  -40.2843 C.2       7 UNK         0.5020 
     48 O          24.4315  -31.8257  -41.1951 O.2       7 UNK        -0.5147 
     49 N          22.5823  -32.6922  -40.1920 N.am      8 UNK        -0.4734 
     50 CA         22.3462  -33.8857  -41.0199 C.3       8 UNK         0.0238 
     51 CB         23.3625  -34.9868  -40.6482 C.3       8 UNK        -0.1912 
     52 C          22.3051  -33.6072  -42.5357 C.2       8 UNK         0.5038 
     53 O          22.8979  -34.3550  -43.3159 O.2       8 UNK        -0.5046 
     54 N          21.6070  -32.5302  -42.9185 N.am      9 UNK        -0.4200 
     55 CA         21.4935  -32.0269  -44.2979 C.3       9 UNK         0.0839 
     56 C          22.8016  -31.3836  -44.8611 C.2       9 UNK         0.5513 
     57 N          23.8349  -31.1503  -44.0598 N.am      9 UNK        -0.7519 
     58 O          22.8807  -31.0704  -46.0455 O.2       9 UNK        -0.4960 
     59 C59        20.8626  -33.0824  -45.2597 C.3       10 UNK        -0.0876 
     60 S60        19.7595  -32.3610  -46.5228 S.3       10 UNK        -0.2414 
     61 C61        18.1034  -32.8278  -45.9251 C.3       10 UNK         0.0169 
     62 H62        18.8542  -22.9375  -44.4158 H         1 UNK         0.0903 
     63 H63        17.3448  -22.3050  -45.0998 H         1 UNK         0.0903 
     64 H64        18.1676  -21.4386  -43.8093 H         1 UNK         0.0903 
     65 H65        16.2042  -24.9504  -42.6712 H         1 UNK         0.3096 
     66 H66        17.1155  -24.6404  -45.4310 H         1 UNK         0.1121 
     67 H67        16.0945  -26.8480  -45.7858 H         1 UNK         0.0849 
     68 H68        14.9812  -25.7263  -45.0886 H         1 UNK         0.0849 
     69 H69        15.0632  -28.8419  -45.4253 H         1 UNK         0.0865 
     70 H70        14.1921  -29.3685  -44.0161 H         1 UNK         0.0865 
     71 H71        16.4213  -30.6849  -46.1096 H         1 UNK         0.1346 
     72 H72        18.6348  -32.9931  -43.2513 H         1 UNK         0.1412 
     73 H73        16.1646  -29.7579  -41.9294 H         1 UNK         0.1426 
     74 H74        17.7758  -32.7486  -40.8201 H         1 UNK         0.0716 
     75 H75        17.1651  -31.1967  -40.3063 H         1 UNK         0.0716 
     76 H76        19.5552  -28.9868  -39.6591 H         1 UNK         0.0695 
     77 H77        18.4126  -29.0122  -40.9613 H         1 UNK         0.0695 
     78 H78        21.2770  -29.4435  -41.7960 H         1 UNK         0.0983 
     79 H79        18.9284  -28.4078  -43.0776 H         1 UNK         0.3095 
     80 H80        20.6299  -26.9630  -45.8303 H         1 UNK         0.0454 
     81 H81        19.1118  -29.6067  -45.9152 H         1 UNK         0.0851 
     82 H82        20.7617  -29.3785  -46.4787 H         1 UNK         0.0851 
     83 H83        19.4438  -28.5498  -47.2866 H         1 UNK         0.0851 
     84 H84        17.9200  -27.3994  -45.7391 H         1 UNK         0.2976 
     85 H85        20.4623  -26.1728  -42.3568 H         1 UNK         0.3116 
     86 H86        21.8370  -24.9956  -40.1269 H         1 UNK         0.0646 
     87 H87        20.3151  -23.7066  -41.6340 H         1 UNK         0.0847 
     88 H88        21.4308  -23.9441  -42.9786 H         1 UNK         0.0847 
     89 H89        21.9179  -22.9894  -41.5858 H         1 UNK         0.0847 
     90 H90        22.9907  -26.7352  -42.9504 H         1 UNK         0.3040 
     91 H91        25.7566  -25.7578  -42.7934 H         1 UNK         0.1015 
     92 H92        24.7705  -26.4616  -44.9776 H         1 UNK         0.0786 
     93 H93        24.5206  -28.0904  -44.3524 H         1 UNK         0.0786 
     94 H94        26.1487  -27.4604  -44.5412 H         1 UNK         0.0786 
     95 H95        25.5678  -26.1648  -40.4217 H         1 UNK         0.3172 
     96 H96        26.3665  -27.0631  -38.5817 H         1 UNK         0.0595 
     97 H97        27.4652  -29.4308  -40.1873 H         1 UNK         0.0839 
     98 H98        27.8220  -29.0567  -38.5117 H         1 UNK         0.0839 
     99 H99        28.3346  -27.9548  -39.7786 H         1 UNK         0.0839 
    100 H100       25.1945  -29.9723  -40.3784 H         1 UNK         0.2998 
    101 H101       22.7687  -30.3056  -39.0147 H         1 UNK         0.0822 
    102 H102       24.1338  -30.8768  -36.9735 H         1 UNK         0.0787 
    103 H103       23.3815  -32.3297  -37.5832 H         1 UNK         0.0787 
    104 H104       25.0817  -32.0297  -37.9090 H         1 UNK         0.0787 
    105 H105       21.9311  -32.5684  -39.4281 H         1 UNK         0.3055 
    106 H106       21.3524  -34.2538  -40.7587 H         1 UNK         0.1106 
    107 H107       24.3808  -34.7004  -40.9140 H         1 UNK         0.0828 
    108 H108       23.1400  -35.9199  -41.1676 H         1 UNK         0.0828 
    109 H109       23.3431  -35.2015  -39.5798 H         1 UNK         0.0828 
    110 H110       21.1565  -31.9735  -42.2045 H         1 UNK         0.2931 
    111 H111       20.7909  -31.1977  -44.2098 H         1 UNK         0.0412 
    112 H112       23.8258  -31.4202  -43.0828 H         1 UNK         0.3472 
    113 H113       24.6578  -30.7118  -44.4393 H         1 UNK         0.3472 
    114 H114       21.6409  -33.6572  -45.7652 H         1 UNK         0.0970 
    115 H115       20.2935  -33.8234  -44.6983 H         1 UNK         0.0970 
    116 H116       17.4134  -32.7847  -46.7691 H         1 UNK         0.0612 
    117 H117       18.1053  -33.8683  -45.5973 H         1 UNK         0.0612 
@<TRIPOS>BOND
     1    1    2 1    
     2    1   62 1    
     3    1   63 1    
     4    1   64 1    
     5    2    3 2    
     6    2    4 am   BACKBONE|DICT|INTERRES
     7    4    5 1    
     8    4   65 1    
     9    5    6 1    
    10    5   25 1    
    11    5   66 1    
    12    6    7 1    
    13    6   67 1    
    14    6   68 1    
    15    7    8 1    
    16    8    9 1    
    17    8   69 1    
    18    8   70 1    
    19    9   10 ar   
    20    9   14 ar   
    21   10   11 ar   
    22   10   71 1    
    23   11   12 ar   
    24   11   61 1    
    25   12   13 ar   
    26   12   72 1    
    27   13   14 ar   
    28   13   15 1    
    29   14   73 1    
    30   15   16 1    
    31   15   74 1    
    32   15   75 1    
    33   16   17 1    
    34   17   18 1    
    35   17   76 1    
    36   17   77 1    
    37   18   19 1    
    38   18   27 1    
    39   18   78 1    
    40   19   20 am   BACKBONE|DICT|INTERRES
    41   19   79 1    
    42   20   21 2    
    43   20   22 1    
    44   22   23 1    
    45   22   24 1    
    46   22   80 1    
    47   23   81 1    
    48   23   82 1    
    49   23   83 1    
    50   24   25 am   BACKBONE|DICT|INTERRES
    51   24   84 1    
    52   25   26 2    
    53   27   28 2    
    54   27   29 am   BACKBONE|DICT|INTERRES
    55   29   30 1    
    56   29   85 1    
    57   30   31 1    
    58   30   32 1    
    59   30   86 1    
    60   31   87 1    
    61   31   88 1    
    62   31   89 1    
    63   32   33 2    
    64   32   34 am   BACKBONE|DICT|INTERRES
    65   34   35 1    
    66   34   90 1    
    67   35   36 1    
    68   35   37 1    
    69   35   91 1    
    70   36   92 1    
    71   36   93 1    
    72   36   94 1    
    73   37   38 2    
    74   37   39 am   BACKBONE|DICT|INTERRES
    75   39   40 1    
    76   39   95 1    
    77   40   41 1    
    78   40   42 1    
    79   40   96 1    
    80   41   97 1    
    81   41   98 1    
    82   41   99 1    
    83   42   43 2    
    84   42   44 am   BACKBONE|DICT|INTERRES
    85   44   45 1    
    86   44  100 1    
    87   45   46 1    
    88   45   47 1    
    89   45  101 1    
    90   46  102 1    
    91   46  103 1    
    92   46  104 1    
    93   47   48 2    
    94   47   49 am   BACKBONE|DICT|INTERRES
    95   49   50 1    
    96   49  105 1    
    97   50   51 1    
    98   50   52 1    
    99   50  106 1    
   100   51  107 1    
   101   51  108 1    
   102   51  109 1    
   103   52   53 2    
   104   52   54 am   BACKBONE|DICT|INTERRES
   105   54   55 1    
   106   54  110 1    
   107   55   56 1    
   108   55   59 1    
   109   55  111 1    
   110   56   57 am   BACKBONE|DICT|INTERRES
   111   56   58 2    
   112   57  112 1    
   113   57  113 1    
   114   59   60 1    
   115   59  114 1    
   116   59  115 1    
   117   60   61 1    
   118   61  116 1    
   119   61  117 1    
@<TRIPOS>SUBSTRUCTURE
     1 UNK         1 GROUP             0       ****    0 ROOT    
