@<TRIPOS>MOLECULE
3R8
117   119    1
SMALL
USER_CHARGES


@<TRIPOS>ATOM
      1 CA         17.7419  -23.6307  -46.5003 C.3       0 UNK        -0.2013 
      2 C          17.8400  -24.8787  -45.6372 C.2       0 UNK         0.4866 
      3 O          18.9066  -25.1651  -45.0924 O.2       0 UNK        -0.5176 
      4 N          16.7289  -25.6123  -45.4817 N.am      1 UNK        -0.4884 
      5 CA         16.6427  -26.8963  -44.7642 C.3       1 UNK         0.0853 
      6 C6         15.4124  -27.7321  -45.2026 C.3       10 UNK        -0.0849 
      7 S7         15.5334  -28.2063  -46.9638 S.3       10 UNK        -0.2776 
      8 C8         15.9748  -29.9796  -46.8778 C.3       10 UNK         0.0316 
      9 C9         17.1799  -30.2624  -45.9851 C.ar      10 UNK        -0.0863 
     10 C10        17.0546  -31.1330  -44.8972 C.ar      10 UNK        -0.1009 
     11 C11        18.1429  -31.3749  -44.0556 C.ar      10 UNK        -0.0712 
     12 C12        19.3579  -30.7347  -44.3029 C.ar      10 UNK        -0.0894 
     13 C13        19.4985  -29.8426  -45.3725 C.ar      10 UNK        -0.0745 
     14 C14        18.4114  -29.6437  -46.2306 C.ar      10 UNK        -0.0972 
     15 C15        20.7879  -29.0508  -45.6136 C.3       10 UNK         0.0209 
     16 S16        21.8906  -28.8491  -44.1630 S.3       10 UNK        -0.2568 
     17 C17        20.7871  -28.0800  -42.9244 C.3       10 UNK        -0.0983 
     18 CA         21.0531  -26.5661  -42.6969 C.3       3 UNK         0.0876 
     19 N          19.8037  -25.8520  -42.4047 N.am      3 UNK        -0.4424 
     20 C          19.0478  -25.9594  -41.2967 C.2       2 UNK         0.4918 
     21 O          19.4009  -26.5297  -40.2650 O.2       2 UNK        -0.4875 
     22 CA         17.6238  -25.3717  -41.3801 C.3       2 UNK         0.0481 
     23 CB         17.6351  -23.8708  -41.0505 C.3       2 UNK        -0.1831 
     24 N          17.0336  -25.5836  -42.7049 N.am      2 UNK        -0.4498 
     25 C          16.7742  -26.7922  -43.2278 C.2       1 UNK         0.5027 
     26 O          16.7063  -27.8166  -42.5474 O.2       1 UNK        -0.4969 
     27 C          22.1891  -26.2963  -41.6826 C.2       3 UNK         0.5005 
     28 O          23.0540  -27.1519  -41.4952 O.2       3 UNK        -0.5279 
     29 N          22.1839  -25.1165  -41.0429 N.am      4 UNK        -0.4463 
     30 CA         23.0272  -24.7543  -39.8926 C.3       4 UNK         0.0283 
     31 CB         22.6895  -23.3189  -39.4581 C.3       4 UNK        -0.1875 
     32 C          24.5487  -24.9084  -40.0896 C.2       4 UNK         0.4949 
     33 O          25.2700  -25.0646  -39.1042 O.2       4 UNK        -0.5039 
     34 N          25.0076  -24.8716  -41.3459 N.am      5 UNK        -0.4663 
     35 CA         26.4043  -25.0679  -41.7297 C.3       5 UNK         0.0242 
     36 CB         26.6272  -24.4234  -43.1086 C.3       5 UNK        -0.1982 
     37 C          26.8559  -26.5421  -41.7518 C.2       5 UNK         0.5017 
     38 O          28.0662  -26.7702  -41.7952 O.2       5 UNK        -0.5012 
     39 N          25.9220  -27.5081  -41.7629 N.am      6 UNK        -0.4439 
     40 CA         26.2368  -28.9284  -41.9762 C.3       6 UNK         0.0297 
     41 CB         26.1449  -29.2484  -43.4795 C.3       6 UNK        -0.2006 
     42 C          25.3738  -29.9171  -41.1769 C.2       6 UNK         0.4892 
     43 O          25.8504  -31.0218  -40.9101 O.2       6 UNK        -0.5089 
     44 N          24.1257  -29.5536  -40.8496 N.am      7 UNK        -0.4243 
     45 CA         23.0541  -30.3638  -40.2491 C.3       7 UNK         0.0196 
     46 CB         23.4436  -30.9180  -38.8647 C.3       7 UNK        -0.2007 
     47 C          22.5277  -31.4721  -41.1796 C.2       7 UNK         0.5020 
     48 O          21.3187  -31.5507  -41.3926 O.2       7 UNK        -0.5147 
     49 N          23.4428  -32.2879  -41.7204 N.am      8 UNK        -0.4734 
     50 CA         23.3021  -33.3456  -42.7321 C.3       8 UNK         0.0238 
     51 CB         22.8625  -32.7557  -44.0853 C.3       8 UNK        -0.1912 
     52 C          22.4141  -34.5410  -42.3410 C.2       8 UNK         0.5038 
     53 O          22.8485  -35.6827  -42.4995 O.2       8 UNK        -0.5046 
     54 N          21.1976  -34.2706  -41.8596 N.am      9 UNK        -0.4200 
     55 CA         20.1832  -35.2725  -41.4938 C.3       9 UNK         0.0839 
     56 C          20.4068  -35.9350  -40.1034 C.2       9 UNK         0.5513 
     57 N          21.3633  -35.4906  -39.2967 N.am      9 UNK        -0.7519 
     58 O          19.7015  -36.8777  -39.7530 O.2       9 UNK        -0.4960 
     59 C59        18.7395  -34.7157  -41.6250 C.3       10 UNK        -0.0876 
     60 S60        18.3971  -34.0151  -43.2785 S.3       10 UNK        -0.2414 
     61 C61        18.0088  -32.2911  -42.8503 C.3       10 UNK         0.0169 
     62 H62        17.9992  -22.7482  -45.9153 H         1 UNK         0.0903 
     63 H63        18.4373  -23.6999  -47.3363 H         1 UNK         0.0903 
     64 H64        16.7392  -23.4912  -46.9039 H         1 UNK         0.0903 
     65 H65        15.8796  -25.3235  -45.9473 H         1 UNK         0.3096 
     66 H66        17.5319  -27.4591  -45.0477 H         1 UNK         0.1121 
     67 H67        14.4918  -27.1665  -45.0500 H         1 UNK         0.0849 
     68 H68        15.3096  -28.6387  -44.6031 H         1 UNK         0.0849 
     69 H69        15.1015  -30.5373  -46.5357 H         1 UNK         0.0865 
     70 H70        16.1890  -30.3392  -47.8852 H         1 UNK         0.0865 
     71 H71        16.1087  -31.6171  -44.6956 H         1 UNK         0.1346 
     72 H72        20.1822  -30.9088  -43.6282 H         1 UNK         0.1412 
     73 H73        18.5050  -28.9622  -47.0657 H         1 UNK         0.1426 
     74 H74        20.5365  -28.0535  -45.9790 H         1 UNK         0.0716 
     75 H75        21.3511  -29.5403  -46.4088 H         1 UNK         0.0716 
     76 H76        19.7581  -28.2194  -43.2554 H         1 UNK         0.0695 
     77 H77        20.8561  -28.6418  -41.9911 H         1 UNK         0.0695 
     78 H78        21.3984  -26.1413  -43.6409 H         1 UNK         0.0983 
     79 H79        19.4032  -25.3837  -43.2133 H         1 UNK         0.3095 
     80 H80        17.0010  -25.8816  -40.6421 H         1 UNK         0.0454 
     81 H81        18.2294  -23.3005  -41.7655 H         1 UNK         0.0851 
     82 H82        16.6262  -23.4582  -41.0481 H         1 UNK         0.0851 
     83 H83        18.0578  -23.6935  -40.0605 H         1 UNK         0.0851 
     84 H84        17.0486  -24.8006  -43.3425 H         1 UNK         0.2976 
     85 H85        21.4465  -24.4679  -41.2777 H         1 UNK         0.3116 
     86 H86        22.7496  -25.4270  -39.0786 H         1 UNK         0.0646 
     87 H87        23.2753  -23.0254  -38.5857 H         1 UNK         0.0847 
     88 H88        21.6387  -23.2215  -39.1846 H         1 UNK         0.0847 
     89 H89        22.9011  -22.5982  -40.2489 H         1 UNK         0.0847 
     90 H90        24.3390  -24.7477  -42.0921 H         1 UNK         0.3040 
     91 H91        27.0392  -24.5499  -41.0070 H         1 UNK         0.1015 
     92 H92        26.3834  -23.3608  -43.0948 H         1 UNK         0.0786 
     93 H93        26.0196  -24.8990  -43.8796 H         1 UNK         0.0786 
     94 H94        27.6701  -24.5093  -43.4173 H         1 UNK         0.0786 
     95 H95        24.9408  -27.2486  -41.6916 H         1 UNK         0.3172 
     96 H96        27.2626  -29.1221  -41.6554 H         1 UNK         0.0595 
     97 H97        26.8532  -28.6541  -44.0568 H         1 UNK         0.0839 
     98 H98        25.1452  -29.0525  -43.8699 H         1 UNK         0.0839 
     99 H99        26.3711  -30.2979  -43.6738 H         1 UNK         0.0839 
    100 H100       23.8025  -28.6328  -41.1491 H         1 UNK         0.2998 
    101 H101       22.2257  -29.6699  -40.0965 H         1 UNK         0.0822 
    102 H102       23.7611  -30.1187  -38.1951 H         1 UNK         0.0787 
    103 H103       22.5939  -31.4157  -38.3957 H         1 UNK         0.0787 
    104 H104       24.2515  -31.6475  -38.9223 H         1 UNK         0.0787 
    105 H105       24.4013  -32.1008  -41.4322 H         1 UNK         0.3055 
    106 H106       24.3085  -33.7455  -42.8683 H         1 UNK         0.1106 
    107 H107       22.8874  -33.5151  -44.8678 H         1 UNK         0.0828 
    108 H108       21.8461  -32.3677  -44.0471 H         1 UNK         0.0828 
    109 H109       23.5186  -31.9433  -44.3984 H         1 UNK         0.0828 
    110 H110       20.9526  -33.2917  -41.7283 H         1 UNK         0.2931 
    111 H111       20.2672  -36.0871  -42.2160 H         1 UNK         0.0412 
    112 H112       21.5006  -35.9316  -38.4006 H         1 UNK         0.3472 
    113 H113       21.9506  -34.7228  -39.5795 H         1 UNK         0.3472 
    114 H114       18.5522  -33.9660  -40.8542 H         1 UNK         0.0970 
    115 H115       18.0112  -35.5099  -41.4502 H         1 UNK         0.0970 
    116 H116       16.9978  -32.2391  -42.4437 H         1 UNK         0.0612 
    117 H117       18.6769  -31.9477  -42.0590 H         1 UNK         0.0612 
@<TRIPOS>BOND
     1    1    2 1    
     2    1   62 1    
     3    1   63 1    
     4    1   64 1    
     5    2    3 2    
     6    2    4 am   BACKBONE|DICT|INTERRES
     7    4    5 1    
     8    4   65 1    
     9    5    6 1    
    10    5   25 1    
    11    5   66 1    
    12    6    7 1    
    13    6   67 1    
    14    6   68 1    
    15    7    8 1    
    16    8    9 1    
    17    8   69 1    
    18    8   70 1    
    19    9   10 ar   
    20    9   14 ar   
    21   10   11 ar   
    22   10   71 1    
    23   11   12 ar   
    24   11   61 1    
    25   12   13 ar   
    26   12   72 1    
    27   13   14 ar   
    28   13   15 1    
    29   14   73 1    
    30   15   16 1    
    31   15   74 1    
    32   15   75 1    
    33   16   17 1    
    34   17   18 1    
    35   17   76 1    
    36   17   77 1    
    37   18   19 1    
    38   18   27 1    
    39   18   78 1    
    40   19   20 am   BACKBONE|DICT|INTERRES
    41   19   79 1    
    42   20   21 2    
    43   20   22 1    
    44   22   23 1    
    45   22   24 1    
    46   22   80 1    
    47   23   81 1    
    48   23   82 1    
    49   23   83 1    
    50   24   25 am   BACKBONE|DICT|INTERRES
    51   24   84 1    
    52   25   26 2    
    53   27   28 2    
    54   27   29 am   BACKBONE|DICT|INTERRES
    55   29   30 1    
    56   29   85 1    
    57   30   31 1    
    58   30   32 1    
    59   30   86 1    
    60   31   87 1    
    61   31   88 1    
    62   31   89 1    
    63   32   33 2    
    64   32   34 am   BACKBONE|DICT|INTERRES
    65   34   35 1    
    66   34   90 1    
    67   35   36 1    
    68   35   37 1    
    69   35   91 1    
    70   36   92 1    
    71   36   93 1    
    72   36   94 1    
    73   37   38 2    
    74   37   39 am   BACKBONE|DICT|INTERRES
    75   39   40 1    
    76   39   95 1    
    77   40   41 1    
    78   40   42 1    
    79   40   96 1    
    80   41   97 1    
    81   41   98 1    
    82   41   99 1    
    83   42   43 2    
    84   42   44 am   BACKBONE|DICT|INTERRES
    85   44   45 1    
    86   44  100 1    
    87   45   46 1    
    88   45   47 1    
    89   45  101 1    
    90   46  102 1    
    91   46  103 1    
    92   46  104 1    
    93   47   48 2    
    94   47   49 am   BACKBONE|DICT|INTERRES
    95   49   50 1    
    96   49  105 1    
    97   50   51 1    
    98   50   52 1    
    99   50  106 1    
   100   51  107 1    
   101   51  108 1    
   102   51  109 1    
   103   52   53 2    
   104   52   54 am   BACKBONE|DICT|INTERRES
   105   54   55 1    
   106   54  110 1    
   107   55   56 1    
   108   55   59 1    
   109   55  111 1    
   110   56   57 am   BACKBONE|DICT|INTERRES
   111   56   58 2    
   112   57  112 1    
   113   57  113 1    
   114   59   60 1    
   115   59  114 1    
   116   59  115 1    
   117   60   61 1    
   118   61  116 1    
   119   61  117 1    
@<TRIPOS>SUBSTRUCTURE
     1 UNK         1 GROUP             0       ****    0 ROOT    
