@<TRIPOS>MOLECULE
3R8
117   119    1
SMALL
USER_CHARGES


@<TRIPOS>ATOM
      1 CA         16.0511  -25.8713  -46.3262 C.3       0 UNK        -0.2013 
      2 C          17.5118  -25.5060  -46.5422 C.2       0 UNK         0.4866 
      3 O          17.8553  -24.3244  -46.5350 O.2       0 UNK        -0.5176 
      4 N          18.3851  -26.5059  -46.7200 N.am      1 UNK        -0.4884 
      5 CA         19.8180  -26.3681  -47.0187 C.3       1 UNK         0.0853 
      6 C6         20.3326  -27.5952  -47.8277 C.3       10 UNK        -0.0849 
      7 S7         20.4684  -29.1665  -46.8973 S.3       10 UNK        -0.2776 
      8 C8         18.8763  -30.0013  -47.1720 C.3       10 UNK         0.0316 
      9 C9         18.2762  -30.4505  -45.8456 C.ar      10 UNK        -0.0863 
     10 C10        18.6413  -31.6753  -45.2755 C.ar      10 UNK        -0.1009 
     11 C11        18.0845  -32.0934  -44.0603 C.ar      10 UNK        -0.0712 
     12 C12        17.1606  -31.2644  -43.4113 C.ar      10 UNK        -0.0894 
     13 C13        16.7941  -30.0351  -43.9667 C.ar      10 UNK        -0.0745 
     14 C14        17.3478  -29.6421  -45.1868 C.ar      10 UNK        -0.0972 
     15 C15        15.7686  -29.1446  -43.2795 C.3       10 UNK         0.0209 
     16 S16        16.4454  -27.5049  -42.8633 S.3       10 UNK        -0.2568 
     17 C17        17.4677  -27.8685  -41.3960 C.3       10 UNK        -0.0983 
     18 CA         18.9937  -27.7717  -41.6544 C.3       3 UNK         0.0876 
     19 N          19.3562  -26.5218  -42.3404 N.am      3 UNK        -0.4424 
     20 C          20.5834  -26.0572  -42.6192 C.2       2 UNK         0.4918 
     21 O          21.6308  -26.5685  -42.2225 O.2       2 UNK        -0.4875 
     22 CA         20.6138  -24.8242  -43.5397 C.3       2 UNK         0.0481 
     23 CB         21.9905  -24.1289  -43.5920 C.3       2 UNK        -0.1831 
     24 N          20.1237  -25.1727  -44.8794 N.am      2 UNK        -0.4498 
     25 C          20.6774  -26.0059  -45.7762 C.2       1 UNK         0.5027 
     26 O          21.8086  -26.4771  -45.6562 O.2       1 UNK        -0.4969 
     27 C          19.7473  -28.0234  -40.3313 C.2       3 UNK         0.5005 
     28 O          20.0719  -29.1710  -40.0296 O.2       3 UNK        -0.5279 
     29 N          19.9982  -26.9545  -39.5633 N.am      4 UNK        -0.4463 
     30 CA         20.7228  -26.9825  -38.2955 C.3       4 UNK         0.0283 
     31 CB         20.4412  -25.6791  -37.5268 C.3       4 UNK        -0.1875 
     32 C          22.2293  -27.1968  -38.5196 C.2       4 UNK         0.4949 
     33 O          22.9587  -26.2274  -38.7372 O.2       4 UNK        -0.5039 
     34 N          22.6597  -28.4639  -38.4632 N.am      5 UNK        -0.4663 
     35 CA         24.0364  -28.9771  -38.5107 C.3       5 UNK         0.0242 
     36 CB         24.8869  -28.4198  -37.3524 C.3       5 UNK        -0.1982 
     37 C          24.7626  -28.8083  -39.8558 C.2       5 UNK         0.5017 
     38 O          25.3767  -29.7704  -40.3162 O.2       5 UNK        -0.5012 
     39 N          24.6866  -27.6197  -40.4687 N.am      6 UNK        -0.4439 
     40 CA         25.3640  -27.2590  -41.7224 C.3       6 UNK         0.0297 
     41 CB         25.1437  -25.7670  -42.0116 C.3       6 UNK        -0.2006 
     42 C          24.9550  -28.1262  -42.9284 C.2       6 UNK         0.4892 
     43 O          25.7913  -28.4049  -43.7878 O.2       6 UNK        -0.5089 
     44 N          23.6973  -28.5818  -42.9319 N.am      7 UNK        -0.4243 
     45 CA         23.1305  -29.5565  -43.8657 C.3       7 UNK         0.0196 
     46 CB         21.6092  -29.5863  -43.6454 C.3       7 UNK        -0.2007 
     47 C          23.6834  -30.9883  -43.7217 C.2       7 UNK         0.5020 
     48 O          23.3559  -31.8285  -44.5598 O.2       7 UNK        -0.5147 
     49 N          24.4371  -31.2666  -42.6438 N.am      8 UNK        -0.4734 
     50 CA         24.7539  -32.5992  -42.1086 C.3       8 UNK         0.0238 
     51 CB         25.6159  -33.4256  -43.0874 C.3       8 UNK        -0.1912 
     52 C          23.4621  -33.3131  -41.6641 C.2       8 UNK         0.5038 
     53 O          23.2297  -34.4709  -42.0169 O.2       8 UNK        -0.5046 
     54 N          22.6279  -32.5653  -40.9336 N.am      9 UNK        -0.4200 
     55 CA         21.2668  -32.9182  -40.5270 C.3       9 UNK         0.0839 
     56 C          20.9679  -32.3914  -39.0966 C.2       9 UNK         0.5513 
     57 N          19.8577  -32.8073  -38.5045 N.am      9 UNK        -0.7519 
     58 O          21.7282  -31.6171  -38.5162 O.2       9 UNK        -0.4960 
     59 C59        20.2396  -32.4191  -41.5832 C.3       10 UNK        -0.0876 
     60 S60        18.7541  -33.4673  -41.6924 S.3       10 UNK        -0.2414 
     61 C61        18.4475  -33.4650  -43.4918 C.3       10 UNK         0.0169 
     62 H62        15.8484  -26.9147  -46.5635 H         1 UNK         0.0903 
     63 H63        15.7678  -25.6924  -45.2895 H         1 UNK         0.0903 
     64 H64        15.4145  -25.2563  -46.9619 H         1 UNK         0.0903 
     65 H65        18.0620  -27.4587  -46.6671 H         1 UNK         0.3096 
     66 H66        19.9216  -25.5063  -47.6823 H         1 UNK         0.1121 
     67 H67        19.7087  -27.7524  -48.7089 H         1 UNK         0.0849 
     68 H68        21.3253  -27.3720  -48.2228 H         1 UNK         0.0849 
     69 H69        18.1826  -29.3487  -47.7032 H         1 UNK         0.0865 
     70 H70        19.0348  -30.8637  -47.8212 H         1 UNK         0.0865 
     71 H71        19.3552  -32.3072  -45.7863 H         1 UNK         0.1346 
     72 H72        16.7161  -31.5842  -42.4790 H         1 UNK         0.1412 
     73 H73        17.0461  -28.7009  -45.6172 H         1 UNK         0.1426 
     74 H74        15.3711  -29.6163  -42.3795 H         1 UNK         0.0716 
     75 H75        14.9201  -29.0090  -43.9515 H         1 UNK         0.0716 
     76 H76        17.2120  -28.8601  -41.0168 H         1 UNK         0.0695 
     77 H77        17.1678  -27.1639  -40.6175 H         1 UNK         0.0695 
     78 H78        19.2616  -28.5827  -42.3331 H         1 UNK         0.0983 
     79 H79        18.5681  -26.0270  -42.7324 H         1 UNK         0.3095 
     80 H80        19.9045  -24.1037  -43.1295 H         1 UNK         0.0454 
     81 H81        22.2932  -23.7993  -42.5976 H         1 UNK         0.0851 
     82 H82        21.9649  -23.2477  -44.2324 H         1 UNK         0.0851 
     83 H83        22.7735  -24.7894  -43.9640 H         1 UNK         0.0851 
     84 H84        19.2153  -24.7963  -45.1315 H         1 UNK         0.2976 
     85 H85        19.7321  -26.0461  -39.9139 H         1 UNK         0.3116 
     86 H86        20.3412  -27.8105  -37.6936 H         1 UNK         0.0646 
     87 H87        19.3803  -25.5731  -37.2996 H         1 UNK         0.0847 
     88 H88        20.7537  -24.7983  -38.0892 H         1 UNK         0.0847 
     89 H89        20.9778  -25.6648  -36.5772 H         1 UNK         0.0847 
     90 H90        21.9500  -29.1857  -38.3920 H         1 UNK         0.3040 
     91 H91        23.9464  -30.0527  -38.3493 H         1 UNK         0.1015 
     92 H92        25.8746  -28.8827  -37.3384 H         1 UNK         0.0786 
     93 H93        24.4221  -28.6215  -36.3873 H         1 UNK         0.0786 
     94 H94        25.0369  -27.3429  -37.4341 H         1 UNK         0.0786 
     95 H95        24.1298  -26.9014  -40.0087 H         1 UNK         0.3172 
     96 H96        26.4333  -27.4157  -41.5668 H         1 UNK         0.0595 
     97 H97        25.5939  -25.4780  -42.9624 H         1 UNK         0.0839 
     98 H98        25.5914  -25.1436  -41.2376 H         1 UNK         0.0839 
     99 H99        24.0835  -25.5234  -42.0620 H         1 UNK         0.0839 
    100 H100       23.0600  -28.1940  -42.2462 H         1 UNK         0.2998 
    101 H101       23.3331  -29.2216  -44.8851 H         1 UNK         0.0822 
    102 H102       21.1307  -30.3663  -44.2388 H         1 UNK         0.0787 
    103 H103       21.1532  -28.6431  -43.9417 H         1 UNK         0.0787 
    104 H104       21.3600  -29.7736  -42.6012 H         1 UNK         0.0787 
    105 H105       24.6875  -30.4984  -42.0280 H         1 UNK         0.3055 
    106 H106       25.3454  -32.4403  -41.2052 H         1 UNK         0.1106 
    107 H107       26.5050  -32.8749  -43.3941 H         1 UNK         0.0828 
    108 H108       25.9526  -34.3508  -42.6184 H         1 UNK         0.0828 
    109 H109       25.0663  -33.7042  -43.9867 H         1 UNK         0.0828 
    110 H110       22.9290  -31.6509  -40.6283 H         1 UNK         0.2931 
    111 H111       21.2189  -34.0072  -40.4642 H         1 UNK         0.0412 
    112 H112       19.2179  -33.4193  -38.9878 H         1 UNK         0.3472 
    113 H113       19.6410  -32.4780  -37.5771 H         1 UNK         0.3472 
    114 H114       19.9328  -31.3901  -41.3925 H         1 UNK         0.0970 
    115 H115       20.7025  -32.4039  -42.5715 H         1 UNK         0.0970 
    116 H116       17.6273  -34.1521  -43.7028 H         1 UNK         0.0612 
    117 H117       19.3264  -33.8720  -43.9947 H         1 UNK         0.0612 
@<TRIPOS>BOND
     1    1    2 1    
     2    1   62 1    
     3    1   63 1    
     4    1   64 1    
     5    2    3 2    
     6    2    4 am   BACKBONE|DICT|INTERRES
     7    4    5 1    
     8    4   65 1    
     9    5    6 1    
    10    5   25 1    
    11    5   66 1    
    12    6    7 1    
    13    6   67 1    
    14    6   68 1    
    15    7    8 1    
    16    8    9 1    
    17    8   69 1    
    18    8   70 1    
    19    9   10 ar   
    20    9   14 ar   
    21   10   11 ar   
    22   10   71 1    
    23   11   12 ar   
    24   11   61 1    
    25   12   13 ar   
    26   12   72 1    
    27   13   14 ar   
    28   13   15 1    
    29   14   73 1    
    30   15   16 1    
    31   15   74 1    
    32   15   75 1    
    33   16   17 1    
    34   17   18 1    
    35   17   76 1    
    36   17   77 1    
    37   18   19 1    
    38   18   27 1    
    39   18   78 1    
    40   19   20 am   BACKBONE|DICT|INTERRES
    41   19   79 1    
    42   20   21 2    
    43   20   22 1    
    44   22   23 1    
    45   22   24 1    
    46   22   80 1    
    47   23   81 1    
    48   23   82 1    
    49   23   83 1    
    50   24   25 am   BACKBONE|DICT|INTERRES
    51   24   84 1    
    52   25   26 2    
    53   27   28 2    
    54   27   29 am   BACKBONE|DICT|INTERRES
    55   29   30 1    
    56   29   85 1    
    57   30   31 1    
    58   30   32 1    
    59   30   86 1    
    60   31   87 1    
    61   31   88 1    
    62   31   89 1    
    63   32   33 2    
    64   32   34 am   BACKBONE|DICT|INTERRES
    65   34   35 1    
    66   34   90 1    
    67   35   36 1    
    68   35   37 1    
    69   35   91 1    
    70   36   92 1    
    71   36   93 1    
    72   36   94 1    
    73   37   38 2    
    74   37   39 am   BACKBONE|DICT|INTERRES
    75   39   40 1    
    76   39   95 1    
    77   40   41 1    
    78   40   42 1    
    79   40   96 1    
    80   41   97 1    
    81   41   98 1    
    82   41   99 1    
    83   42   43 2    
    84   42   44 am   BACKBONE|DICT|INTERRES
    85   44   45 1    
    86   44  100 1    
    87   45   46 1    
    88   45   47 1    
    89   45  101 1    
    90   46  102 1    
    91   46  103 1    
    92   46  104 1    
    93   47   48 2    
    94   47   49 am   BACKBONE|DICT|INTERRES
    95   49   50 1    
    96   49  105 1    
    97   50   51 1    
    98   50   52 1    
    99   50  106 1    
   100   51  107 1    
   101   51  108 1    
   102   51  109 1    
   103   52   53 2    
   104   52   54 am   BACKBONE|DICT|INTERRES
   105   54   55 1    
   106   54  110 1    
   107   55   56 1    
   108   55   59 1    
   109   55  111 1    
   110   56   57 am   BACKBONE|DICT|INTERRES
   111   56   58 2    
   112   57  112 1    
   113   57  113 1    
   114   59   60 1    
   115   59  114 1    
   116   59  115 1    
   117   60   61 1    
   118   61  116 1    
   119   61  117 1    
@<TRIPOS>SUBSTRUCTURE
     1 UNK         1 GROUP             0       ****    0 ROOT    
