@<TRIPOS>MOLECULE
3R8
117   119    1
SMALL
USER_CHARGES


@<TRIPOS>ATOM
      1 CA         12.7632  -23.8672  -46.8703 C.3       0 UNK        -0.2013 
      2 C          13.9860  -24.7726  -46.8704 C.2       0 UNK         0.4866 
      3 O          14.6273  -24.9359  -47.9093 O.2       0 UNK        -0.5176 
      4 N          14.3082  -25.3692  -45.7166 N.am      1 UNK        -0.4884 
      5 CA         15.4922  -26.2092  -45.5097 C.3       1 UNK         0.0853 
      6 C6         15.2879  -27.1891  -44.3248 C.3       10 UNK        -0.0849 
      7 S7         15.0210  -26.3799  -42.7055 S.3       10 UNK        -0.2776 
      8 C8         15.2004  -27.7831  -41.5572 C.3       10 UNK         0.0316 
      9 C9         16.6386  -28.2763  -41.4668 C.ar      10 UNK        -0.0863 
     10 C10        17.0485  -29.3905  -42.2031 C.ar      10 UNK        -0.1009 
     11 C11        18.3621  -29.8627  -42.1257 C.ar      10 UNK        -0.0712 
     12 C12        19.2675  -29.2094  -41.2773 C.ar      10 UNK        -0.0894 
     13 C13        18.8751  -28.0861  -40.5412 C.ar      10 UNK        -0.0745 
     14 C14        17.5574  -27.6280  -40.6377 C.ar      10 UNK        -0.0972 
     15 C15        19.8604  -27.3698  -39.6262 C.3       10 UNK         0.0209 
     16 S16        20.3494  -25.7462  -40.2954 S.3       10 UNK        -0.2568 
     17 C17        21.9154  -26.1171  -41.1586 C.3       10 UNK        -0.0983 
     18 CA         21.7264  -26.7774  -42.5487 C.3       3 UNK         0.0876 
     19 N          20.8503  -25.9817  -43.4118 N.am      3 UNK        -0.4424 
     20 C          20.0764  -26.4694  -44.3853 C.2       2 UNK         0.4918 
     21 O          20.0347  -27.6616  -44.7012 O.2       2 UNK        -0.4875 
     22 CA         19.2472  -25.4481  -45.1665 C.3       2 UNK         0.0481 
     23 CB         19.9318  -25.0879  -46.4955 C.3       2 UNK        -0.1831 
     24 N          17.9338  -26.0267  -45.4254 N.am      2 UNK        -0.4498 
     25 C          16.7755  -25.3612  -45.3532 C.2       1 UNK         0.5027 
     26 O          16.6992  -24.1456  -45.1471 O.2       1 UNK        -0.4969 
     27 C          23.0631  -27.0540  -43.2711 C.2       3 UNK         0.5005 
     28 O          24.1169  -26.5900  -42.8300 O.2       3 UNK        -0.5279 
     29 N          22.9793  -27.7736  -44.4016 N.am      4 UNK        -0.4463 
     30 CA         24.0472  -28.0051  -45.3860 C.3       4 UNK         0.0283 
     31 CB         23.4852  -28.8622  -46.5318 C.3       4 UNK        -0.1875 
     32 C          25.3397  -28.6376  -44.8375 C.2       4 UNK         0.4949 
     33 O          26.4098  -28.4156  -45.4042 O.2       4 UNK        -0.5039 
     34 N          25.2184  -29.3943  -43.7450 N.am      5 UNK        -0.4663 
     35 CA         26.3206  -29.9535  -42.9694 C.3       5 UNK         0.0242 
     36 CB         26.7099  -31.3470  -43.5027 C.3       5 UNK        -0.1982 
     37 C          25.8852  -29.9540  -41.5012 C.2       5 UNK         0.5017 
     38 O          25.8091  -31.0141  -40.8777 O.2       5 UNK        -0.5012 
     39 N          25.5226  -28.7609  -41.0055 N.am      6 UNK        -0.4439 
     40 CA         24.9450  -28.5051  -39.6823 C.3       6 UNK         0.0297 
     41 CB         25.9927  -28.7551  -38.5725 C.3       6 UNK        -0.2006 
     42 C          23.6233  -29.2777  -39.4920 C.2       6 UNK         0.4892 
     43 O          22.8586  -29.4035  -40.4504 O.2       6 UNK        -0.5089 
     44 N          23.3773  -29.7845  -38.2777 N.am      7 UNK        -0.4243 
     45 CA         22.2060  -30.5948  -37.9342 C.3       7 UNK         0.0196 
     46 CB         22.0825  -30.6693  -36.4034 C.3       7 UNK        -0.2007 
     47 C          22.2241  -32.0092  -38.5450 C.2       7 UNK         0.5020 
     48 O          21.1709  -32.6443  -38.5951 O.2       7 UNK        -0.5147 
     49 N          23.3991  -32.4905  -38.9809 N.am      8 UNK        -0.4734 
     50 CA         23.5478  -33.7768  -39.6685 C.3       8 UNK         0.0238 
     51 CB         25.0176  -34.2271  -39.6344 C.3       8 UNK        -0.1912 
     52 C          23.0175  -33.7204  -41.1107 C.2       8 UNK         0.5038 
     53 O          22.3552  -34.6683  -41.5344 O.2       8 UNK        -0.5046 
     54 N          23.2995  -32.6013  -41.7977 N.am      9 UNK        -0.4200 
     55 CA         22.8429  -32.2209  -43.1465 C.3       9 UNK         0.0839 
     56 C          22.8863  -33.3544  -44.2160 C.2       9 UNK         0.5513 
     57 N          21.8572  -33.5214  -45.0366 N.am      9 UNK        -0.7519 
     58 O          23.8941  -34.0446  -44.3500 O.2       9 UNK        -0.4960 
     59 C59        21.5674  -31.3273  -43.1265 C.3       10 UNK        -0.0876 
     60 S60        20.0996  -32.1004  -42.3620 S.3       10 UNK        -0.2414 
     61 C61        18.7518  -31.0532  -43.0044 C.3       10 UNK         0.0169 
     62 H62        13.0477  -22.8533  -47.1505 H         1 UNK         0.0903 
     63 H63        12.0292  -24.2271  -47.5909 H         1 UNK         0.0903 
     64 H64        12.2856  -23.8269  -45.8915 H         1 UNK         0.0903 
     65 H65        13.7740  -25.1711  -44.8819 H         1 UNK         0.3096 
     66 H66        15.6288  -26.8129  -46.4103 H         1 UNK         0.1121 
     67 H67        14.4302  -27.8327  -44.5271 H         1 UNK         0.0849 
     68 H68        16.1439  -27.8598  -44.2554 H         1 UNK         0.0849 
     69 H69        14.5337  -28.5910  -41.8631 H         1 UNK         0.0865 
     70 H70        14.8612  -27.4725  -40.5678 H         1 UNK         0.0865 
     71 H71        16.3399  -29.8895  -42.8503 H         1 UNK         0.1346 
     72 H72        20.2826  -29.5639  -41.1857 H         1 UNK         0.1412 
     73 H73        17.2489  -26.7608  -40.0694 H         1 UNK         0.1426 
     74 H74        20.7440  -27.9811  -39.4429 H         1 UNK         0.0716 
     75 H75        19.3919  -27.2181  -38.6528 H         1 UNK         0.0716 
     76 H76        22.5271  -26.7439  -40.5117 H         1 UNK         0.0695 
     77 H77        22.4582  -25.1753  -41.2589 H         1 UNK         0.0695 
     78 H78        21.2653  -27.7509  -42.3832 H         1 UNK         0.0983 
     79 H79        20.8422  -24.9886  -43.2303 H         1 UNK         0.3095 
     80 H80        19.1487  -24.5460  -44.5586 H         1 UNK         0.0454 
     81 H81        19.3526  -24.3503  -47.0512 H         1 UNK         0.0851 
     82 H82        20.0597  -25.9631  -47.1339 H         1 UNK         0.0851 
     83 H83        20.9208  -24.6612  -46.3237 H         1 UNK         0.0851 
     84 H84        17.9350  -27.0321  -45.5429 H         1 UNK         0.2976 
     85 H85        22.0464  -28.0607  -44.6813 H         1 UNK         0.3116 
     86 H86        24.3196  -27.0292  -45.7927 H         1 UNK         0.0646 
     87 H87        24.2390  -29.0277  -47.3031 H         1 UNK         0.0847 
     88 H88        22.6355  -28.3773  -47.0130 H         1 UNK         0.0847 
     89 H89        23.1591  -29.8420  -46.1805 H         1 UNK         0.0847 
     90 H90        24.3023  -29.4708  -43.3260 H         1 UNK         0.3040 
     91 H91        27.1926  -29.2992  -43.0429 H         1 UNK         0.1015 
     92 H92        27.0055  -31.3018  -44.5509 H         1 UNK         0.0786 
     93 H93        25.8951  -32.0651  -43.4161 H         1 UNK         0.0786 
     94 H94        27.5557  -31.7508  -42.9451 H         1 UNK         0.0786 
     95 H95        25.5226  -27.9672  -41.6364 H         1 UNK         0.3172 
     96 H96        24.6876  -27.4455  -39.6623 H         1 UNK         0.0595 
     97 H97        26.2402  -29.8125  -38.4700 H         1 UNK         0.0839 
     98 H98        25.6425  -28.3974  -37.6036 H         1 UNK         0.0839 
     99 H99        26.9197  -28.2221  -38.7847 H         1 UNK         0.0839 
    100 H100       24.0579  -29.6373  -37.5463 H         1 UNK         0.2998 
    101 H101       21.3184  -30.0919  -38.3237 H         1 UNK         0.0822 
    102 H102       21.9865  -29.6763  -35.9636 H         1 UNK         0.0787 
    103 H103       21.1984  -31.2374  -36.1102 H         1 UNK         0.0787 
    104 H104       22.9473  -31.1569  -35.9516 H         1 UNK         0.0787 
    105 H105       24.2187  -31.9024  -38.9218 H         1 UNK         0.3055 
    106 H106       22.9571  -34.5225  -39.1309 H         1 UNK         0.1106 
    107 H107       25.1342  -35.2024  -40.1088 H         1 UNK         0.0828 
    108 H108       25.6721  -33.5323  -40.1605 H         1 UNK         0.0828 
    109 H109       25.3805  -34.3205  -38.6108 H         1 UNK         0.0828 
    110 H110       23.8950  -31.9248  -41.3371 H         1 UNK         0.2931 
    111 H111       23.6282  -31.5544  -43.4953 H         1 UNK         0.0412 
    112 H112       21.0123  -32.9853  -44.9180 H         1 UNK         0.3472 
    113 H113       21.9031  -34.2402  -45.7419 H         1 UNK         0.3472 
    114 H114       21.7894  -30.4145  -42.5771 H         1 UNK         0.0970 
    115 H115       21.3241  -30.9916  -44.1358 H         1 UNK         0.0970 
    116 H116       19.0042  -30.6881  -44.0005 H         1 UNK         0.0612 
    117 H117       17.8836  -31.7017  -43.1319 H         1 UNK         0.0612 
@<TRIPOS>BOND
     1    1    2 1    
     2    1   62 1    
     3    1   63 1    
     4    1   64 1    
     5    2    3 2    
     6    2    4 am   BACKBONE|DICT|INTERRES
     7    4    5 1    
     8    4   65 1    
     9    5    6 1    
    10    5   25 1    
    11    5   66 1    
    12    6    7 1    
    13    6   67 1    
    14    6   68 1    
    15    7    8 1    
    16    8    9 1    
    17    8   69 1    
    18    8   70 1    
    19    9   10 ar   
    20    9   14 ar   
    21   10   11 ar   
    22   10   71 1    
    23   11   12 ar   
    24   11   61 1    
    25   12   13 ar   
    26   12   72 1    
    27   13   14 ar   
    28   13   15 1    
    29   14   73 1    
    30   15   16 1    
    31   15   74 1    
    32   15   75 1    
    33   16   17 1    
    34   17   18 1    
    35   17   76 1    
    36   17   77 1    
    37   18   19 1    
    38   18   27 1    
    39   18   78 1    
    40   19   20 am   BACKBONE|DICT|INTERRES
    41   19   79 1    
    42   20   21 2    
    43   20   22 1    
    44   22   23 1    
    45   22   24 1    
    46   22   80 1    
    47   23   81 1    
    48   23   82 1    
    49   23   83 1    
    50   24   25 am   BACKBONE|DICT|INTERRES
    51   24   84 1    
    52   25   26 2    
    53   27   28 2    
    54   27   29 am   BACKBONE|DICT|INTERRES
    55   29   30 1    
    56   29   85 1    
    57   30   31 1    
    58   30   32 1    
    59   30   86 1    
    60   31   87 1    
    61   31   88 1    
    62   31   89 1    
    63   32   33 2    
    64   32   34 am   BACKBONE|DICT|INTERRES
    65   34   35 1    
    66   34   90 1    
    67   35   36 1    
    68   35   37 1    
    69   35   91 1    
    70   36   92 1    
    71   36   93 1    
    72   36   94 1    
    73   37   38 2    
    74   37   39 am   BACKBONE|DICT|INTERRES
    75   39   40 1    
    76   39   95 1    
    77   40   41 1    
    78   40   42 1    
    79   40   96 1    
    80   41   97 1    
    81   41   98 1    
    82   41   99 1    
    83   42   43 2    
    84   42   44 am   BACKBONE|DICT|INTERRES
    85   44   45 1    
    86   44  100 1    
    87   45   46 1    
    88   45   47 1    
    89   45  101 1    
    90   46  102 1    
    91   46  103 1    
    92   46  104 1    
    93   47   48 2    
    94   47   49 am   BACKBONE|DICT|INTERRES
    95   49   50 1    
    96   49  105 1    
    97   50   51 1    
    98   50   52 1    
    99   50  106 1    
   100   51  107 1    
   101   51  108 1    
   102   51  109 1    
   103   52   53 2    
   104   52   54 am   BACKBONE|DICT|INTERRES
   105   54   55 1    
   106   54  110 1    
   107   55   56 1    
   108   55   59 1    
   109   55  111 1    
   110   56   57 am   BACKBONE|DICT|INTERRES
   111   56   58 2    
   112   57  112 1    
   113   57  113 1    
   114   59   60 1    
   115   59  114 1    
   116   59  115 1    
   117   60   61 1    
   118   61  116 1    
   119   61  117 1    
@<TRIPOS>SUBSTRUCTURE
     1 UNK         1 GROUP             0       ****    0 ROOT    
