@<TRIPOS>MOLECULE
3R8
117   119    1
SMALL
USER_CHARGES


@<TRIPOS>ATOM
      1 CA         14.9391  -24.2209  -46.1030 C.3       0 UNK        -0.2013 
      2 C          15.8476  -25.3766  -45.7128 C.2       0 UNK         0.4866 
      3 O          17.0333  -25.1647  -45.4560 O.2       0 UNK        -0.5176 
      4 N          15.3024  -26.5988  -45.6570 N.am      1 UNK        -0.4884 
      5 CA         16.0106  -27.8351  -45.3019 C.3       1 UNK         0.0853 
      6 C6         15.3033  -29.0852  -45.8930 C.3       10 UNK        -0.0849 
      7 S7         15.7792  -29.3249  -47.6375 S.3       10 UNK        -0.2776 
      8 C8         17.0961  -30.5823  -47.4837 C.3       10 UNK         0.0316 
      9 C9         18.2031  -30.1502  -46.5280 C.ar      10 UNK        -0.0863 
     10 C10        18.2619  -30.6776  -45.2333 C.ar      10 UNK        -0.1009 
     11 C11        19.2478  -30.2647  -44.3323 C.ar      10 UNK        -0.0712 
     12 C12        20.2078  -29.3408  -44.7617 C.ar      10 UNK        -0.0894 
     13 C13        20.1567  -28.7933  -46.0457 C.ar      10 UNK        -0.0745 
     14 C14        19.1530  -29.2057  -46.9276 C.ar      10 UNK        -0.0972 
     15 C15        21.1883  -27.7621  -46.4823 C.3       10 UNK         0.0209 
     16 S16        20.8911  -26.1307  -45.7219 S.3       10 UNK        -0.2568 
     17 C17        21.8672  -26.2373  -44.1812 C.3       10 UNK        -0.0983 
     18 CA         21.0879  -25.7959  -42.9153 C.3       3 UNK         0.0876 
     19 N          19.7982  -26.4822  -42.7542 N.am      3 UNK        -0.4424 
     20 C          18.8667  -26.1527  -41.8450 C.2       2 UNK         0.4918 
     21 O          19.0034  -25.2422  -41.0268 O.2       2 UNK        -0.4875 
     22 CA         17.5522  -26.9473  -41.8908 C.3       2 UNK         0.0481 
     23 CB         16.4522  -26.3545  -40.9862 C.3       2 UNK        -0.1831 
     24 N          17.0915  -27.0246  -43.2730 N.am      2 UNK        -0.4498 
     25 C          16.2550  -27.9339  -43.7809 C.2       1 UNK         0.5027 
     26 O          15.6953  -28.8023  -43.1089 O.2       1 UNK        -0.4969 
     27 C          21.9916  -25.9316  -41.6721 C.2       3 UNK         0.5005 
     28 O          22.6696  -24.9677  -41.3124 O.2       3 UNK        -0.5279 
     29 N          21.9820  -27.1231  -41.0515 N.am      4 UNK        -0.4463 
     30 CA         22.6902  -27.5587  -39.8368 C.3       4 UNK         0.0283 
     31 CB         22.2116  -26.7662  -38.6064 C.3       4 UNK        -0.1875 
     32 C          24.2290  -27.5637  -39.9210 C.2       4 UNK         0.4949 
     33 O          24.8505  -28.5162  -39.4506 O.2       4 UNK        -0.5039 
     34 N          24.8211  -26.5157  -40.5044 N.am      5 UNK        -0.4663 
     35 CA         26.2571  -26.3327  -40.7151 C.3       5 UNK         0.0242 
     36 CB         26.5053  -24.9099  -41.2462 C.3       5 UNK        -0.1982 
     37 C          26.8205  -27.4019  -41.6662 C.2       5 UNK         0.5017 
     38 O          26.6881  -27.2638  -42.8838 O.2       5 UNK        -0.5012 
     39 N          27.3990  -28.4591  -41.0778 N.am      6 UNK        -0.4439 
     40 CA         27.9247  -29.6637  -41.7314 C.3       6 UNK         0.0297 
     41 CB         29.1650  -29.3285  -42.5881 C.3       6 UNK        -0.2006 
     42 C          26.8485  -30.4509  -42.5093 C.2       6 UNK         0.4892 
     43 O          27.1505  -31.0223  -43.5591 O.2       6 UNK        -0.5089 
     44 N          25.6180  -30.4742  -41.9800 N.am      7 UNK        -0.4243 
     45 CA         24.4781  -31.1930  -42.5426 C.3       7 UNK         0.0196 
     46 CB         23.5046  -30.1874  -43.1761 C.3       7 UNK        -0.2007 
     47 C          23.7929  -31.9883  -41.4283 C.2       7 UNK         0.5020 
     48 O          23.6683  -31.4919  -40.3069 O.2       7 UNK        -0.5147 
     49 N          23.3329  -33.2012  -41.7551 N.am      8 UNK        -0.4734 
     50 CA         22.6821  -34.1350  -40.8298 C.3       8 UNK         0.0238 
     51 CB         22.9014  -35.5724  -41.3402 C.3       8 UNK        -0.1912 
     52 C          21.1919  -33.8022  -40.6159 C.2       8 UNK         0.5038 
     53 O          20.3313  -34.6569  -40.8360 O.2       8 UNK        -0.5046 
     54 N          20.9133  -32.5595  -40.2072 N.am      9 UNK        -0.4200 
     55 CA         19.5604  -32.0449  -39.9406 C.3       9 UNK         0.0839 
     56 C          18.9536  -32.4966  -38.5804 C.2       9 UNK         0.5513 
     57 N          19.7080  -33.1258  -37.6871 N.am      9 UNK        -0.7519 
     58 O          17.7707  -32.2761  -38.3345 O.2       9 UNK        -0.4960 
     59 C59        19.4849  -30.5021  -40.0953 C.3       10 UNK        -0.0876 
     60 S60        20.1368  -29.8523  -41.6718 S.3       10 UNK        -0.2414 
     61 C61        19.2352  -30.8419  -42.9154 C.3       10 UNK         0.0169 
     62 H62        13.9206  -24.5519  -46.3052 H         1 UNK         0.0903 
     63 H63        14.9039  -23.4845  -45.3006 H         1 UNK         0.0903 
     64 H64        15.3205  -23.7311  -46.9985 H         1 UNK         0.0903 
     65 H65        14.3190  -26.7070  -45.8615 H         1 UNK         0.3096 
     66 H66        17.0098  -27.7781  -45.7388 H         1 UNK         0.1121 
     67 H67        14.2185  -28.9912  -45.8232 H         1 UNK         0.0849 
     68 H68        15.5476  -29.9981  -45.3482 H         1 UNK         0.0849 
     69 H69        16.6542  -31.5253  -47.1578 H         1 UNK         0.0865 
     70 H70        17.5211  -30.7737  -48.4702 H         1 UNK         0.0865 
     71 H71        17.5226  -31.4006  -44.9160 H         1 UNK         0.1346 
     72 H72        20.9968  -29.0346  -44.0956 H         1 UNK         0.1412 
     73 H73        19.1019  -28.7857  -47.9231 H         1 UNK         0.1426 
     74 H74        21.1603  -27.6417  -47.5663 H         1 UNK         0.0716 
     75 H75        22.1941  -28.1140  -46.2482 H         1 UNK         0.0716 
     76 H76        22.7427  -25.5986  -44.3148 H         1 UNK         0.0695 
     77 H77        22.2643  -27.2451  -44.0603 H         1 UNK         0.0695 
     78 H78        20.8623  -24.7325  -43.0237 H         1 UNK         0.0983 
     79 H79        19.5960  -27.2197  -43.4138 H         1 UNK         0.3095 
     80 H80        17.7792  -27.9557  -41.5409 H         1 UNK         0.0454 
     81 H81        16.1789  -25.3456  -41.2970 H         1 UNK         0.0851 
     82 H82        16.7853  -26.3000  -39.9490 H         1 UNK         0.0851 
     83 H83        15.5496  -26.9651  -40.9994 H         1 UNK         0.0851 
     84 H84        17.4366  -26.3048  -43.9050 H         1 UNK         0.2976 
     85 H85        21.3828  -27.8333  -41.4529 H         1 UNK         0.3116 
     86 H86        22.3923  -28.5983  -39.6885 H         1 UNK         0.0646 
     87 H87        22.4676  -25.7087  -38.6781 H         1 UNK         0.0847 
     88 H88        22.6696  -27.1498  -37.6937 H         1 UNK         0.0847 
     89 H89        21.1311  -26.8412  -38.4835 H         1 UNK         0.0847 
     90 H90        24.2053  -25.7864  -40.8603 H         1 UNK         0.3040 
     91 H91        26.7579  -26.4220  -39.7486 H         1 UNK         0.1015 
     92 H92        25.9774  -24.7295  -42.1838 H         1 UNK         0.0786 
     93 H93        27.5672  -24.7417  -41.4308 H         1 UNK         0.0786 
     94 H94        26.1773  -24.1570  -40.5293 H         1 UNK         0.0786 
     95 H95        27.3872  -28.4891  -40.0665 H         1 UNK         0.3172 
     96 H96        28.2528  -30.3238  -40.9272 H         1 UNK         0.0595 
     97 H97        29.6407  -30.2368  -42.9601 H         1 UNK         0.0839 
     98 H98        29.9136  -28.7873  -42.0097 H         1 UNK         0.0839 
     99 H99        28.9063  -28.7205  -43.4556 H         1 UNK         0.0839 
    100 H100       25.4491  -30.0232  -41.0868 H         1 UNK         0.2998 
    101 H101       24.8108  -31.8938  -43.3114 H         1 UNK         0.0822 
    102 H102       22.6399  -30.7013  -43.5972 H         1 UNK         0.0787 
    103 H103       23.1390  -29.4674  -42.4437 H         1 UNK         0.0787 
    104 H104       23.9797  -29.6302  -43.9837 H         1 UNK         0.0787 
    105 H105       23.4298  -33.5159  -42.7104 H         1 UNK         0.3055 
    106 H106       23.1648  -34.0569  -39.8527 H         1 UNK         0.1106 
    107 H107       22.4728  -36.3021  -40.6518 H         1 UNK         0.0828 
    108 H108       22.4374  -35.7316  -42.3144 H         1 UNK         0.0828 
    109 H109       23.9628  -35.8040  -41.4315 H         1 UNK         0.0828 
    110 H110       21.6861  -31.9175  -40.0683 H         1 UNK         0.2931 
    111 H111       18.8992  -32.4743  -40.6948 H         1 UNK         0.0412 
    112 H112       20.6801  -33.3091  -37.8762 H         1 UNK         0.3472 
    113 H113       19.2998  -33.4159  -36.8121 H         1 UNK         0.3472 
    114 H114       18.4513  -30.1628  -40.0015 H         1 UNK         0.0970 
    115 H115       20.0338  -30.0163  -39.2865 H         1 UNK         0.0970 
    116 H116       18.2001  -30.9408  -42.5840 H         1 UNK         0.0612 
    117 H117       19.6594  -31.8464  -42.9436 H         1 UNK         0.0612 
@<TRIPOS>BOND
     1    1    2 1    
     2    1   62 1    
     3    1   63 1    
     4    1   64 1    
     5    2    3 2    
     6    2    4 am   BACKBONE|DICT|INTERRES
     7    4    5 1    
     8    4   65 1    
     9    5    6 1    
    10    5   25 1    
    11    5   66 1    
    12    6    7 1    
    13    6   67 1    
    14    6   68 1    
    15    7    8 1    
    16    8    9 1    
    17    8   69 1    
    18    8   70 1    
    19    9   10 ar   
    20    9   14 ar   
    21   10   11 ar   
    22   10   71 1    
    23   11   12 ar   
    24   11   61 1    
    25   12   13 ar   
    26   12   72 1    
    27   13   14 ar   
    28   13   15 1    
    29   14   73 1    
    30   15   16 1    
    31   15   74 1    
    32   15   75 1    
    33   16   17 1    
    34   17   18 1    
    35   17   76 1    
    36   17   77 1    
    37   18   19 1    
    38   18   27 1    
    39   18   78 1    
    40   19   20 am   BACKBONE|DICT|INTERRES
    41   19   79 1    
    42   20   21 2    
    43   20   22 1    
    44   22   23 1    
    45   22   24 1    
    46   22   80 1    
    47   23   81 1    
    48   23   82 1    
    49   23   83 1    
    50   24   25 am   BACKBONE|DICT|INTERRES
    51   24   84 1    
    52   25   26 2    
    53   27   28 2    
    54   27   29 am   BACKBONE|DICT|INTERRES
    55   29   30 1    
    56   29   85 1    
    57   30   31 1    
    58   30   32 1    
    59   30   86 1    
    60   31   87 1    
    61   31   88 1    
    62   31   89 1    
    63   32   33 2    
    64   32   34 am   BACKBONE|DICT|INTERRES
    65   34   35 1    
    66   34   90 1    
    67   35   36 1    
    68   35   37 1    
    69   35   91 1    
    70   36   92 1    
    71   36   93 1    
    72   36   94 1    
    73   37   38 2    
    74   37   39 am   BACKBONE|DICT|INTERRES
    75   39   40 1    
    76   39   95 1    
    77   40   41 1    
    78   40   42 1    
    79   40   96 1    
    80   41   97 1    
    81   41   98 1    
    82   41   99 1    
    83   42   43 2    
    84   42   44 am   BACKBONE|DICT|INTERRES
    85   44   45 1    
    86   44  100 1    
    87   45   46 1    
    88   45   47 1    
    89   45  101 1    
    90   46  102 1    
    91   46  103 1    
    92   46  104 1    
    93   47   48 2    
    94   47   49 am   BACKBONE|DICT|INTERRES
    95   49   50 1    
    96   49  105 1    
    97   50   51 1    
    98   50   52 1    
    99   50  106 1    
   100   51  107 1    
   101   51  108 1    
   102   51  109 1    
   103   52   53 2    
   104   52   54 am   BACKBONE|DICT|INTERRES
   105   54   55 1    
   106   54  110 1    
   107   55   56 1    
   108   55   59 1    
   109   55  111 1    
   110   56   57 am   BACKBONE|DICT|INTERRES
   111   56   58 2    
   112   57  112 1    
   113   57  113 1    
   114   59   60 1    
   115   59  114 1    
   116   59  115 1    
   117   60   61 1    
   118   61  116 1    
   119   61  117 1    
@<TRIPOS>SUBSTRUCTURE
     1 UNK         1 GROUP             0       ****    0 ROOT    
