@<TRIPOS>MOLECULE
3R8
117   119    1
SMALL
USER_CHARGES


@<TRIPOS>ATOM
      1 CA         13.4829  -26.2667  -43.3442 C.3       0 UNK        -0.2013 
      2 C          13.8936  -26.9296  -44.6506 C.2       0 UNK         0.4866 
      3 O          13.0936  -27.6446  -45.2542 O.2       0 UNK        -0.5176 
      4 N          15.1346  -26.6971  -45.0873 N.am      1 UNK        -0.4884 
      5 CA         15.7117  -27.1922  -46.3352 C.3       1 UNK         0.0853 
      6 C6         15.9804  -28.7316  -46.3484 C.3       10 UNK        -0.0849 
      7 S7         17.3616  -29.3404  -45.3150 S.3       10 UNK        -0.2776 
      8 C8         16.5711  -29.6562  -43.7056 C.3       10 UNK         0.0316 
      9 C9         17.4044  -29.0039  -42.6174 C.ar      10 UNK        -0.0863 
     10 C10        18.4130  -29.7169  -41.9663 C.ar      10 UNK        -0.1009 
     11 C11        19.2716  -29.0715  -41.0701 C.ar      10 UNK        -0.0712 
     12 C12        19.0964  -27.7071  -40.8075 C.ar      10 UNK        -0.0894 
     13 C13        18.0771  -26.9901  -41.4443 C.ar      10 UNK        -0.0745 
     14 C14        17.2215  -27.6535  -42.3249 C.ar      10 UNK        -0.0972 
     15 C15        17.9197  -25.4896  -41.2411 C.3       10 UNK         0.0209 
     16 S16        18.0588  -24.5836  -42.8225 S.3       10 UNK        -0.2568 
     17 C17        19.8617  -24.5747  -43.1004 C.3       10 UNK        -0.0983 
     18 CA         20.4137  -25.8665  -43.7685 C.3       3 UNK         0.0876 
     19 N          19.8049  -26.1837  -45.0683 N.am      3 UNK        -0.4424 
     20 C          19.9638  -25.5179  -46.2231 C.2       2 UNK         0.4918 
     21 O          20.6429  -24.4991  -46.3508 O.2       2 UNK        -0.4875 
     22 CA         19.2518  -26.0933  -47.4642 C.3       2 UNK         0.0481 
     23 CB         20.2051  -27.0165  -48.2401 C.3       2 UNK        -0.1831 
     24 N          18.0187  -26.8247  -47.1557 N.am      2 UNK        -0.4498 
     25 C          16.8938  -26.2653  -46.6903 C.2       1 UNK         0.5027 
     26 O          16.7648  -25.0493  -46.5268 O.2       1 UNK        -0.4969 
     27 C          21.9561  -25.8689  -43.8442 C.2       3 UNK         0.5005 
     28 O          22.5939  -24.8350  -43.6327 O.2       3 UNK        -0.5279 
     29 N          22.5298  -27.0405  -44.1583 N.am      4 UNK        -0.4463 
     30 CA         23.9783  -27.2580  -44.2745 C.3       4 UNK         0.0283 
     31 CB         24.2320  -28.6508  -44.8760 C.3       4 UNK        -0.1875 
     32 C          24.7534  -27.1047  -42.9499 C.2       4 UNK         0.4949 
     33 O          25.9609  -26.8719  -42.9880 O.2       4 UNK        -0.5039 
     34 N          24.0533  -27.2696  -41.8167 N.am      5 UNK        -0.4663 
     35 CA         24.5290  -27.2126  -40.4251 C.3       5 UNK         0.0242 
     36 CB         25.1328  -25.8312  -40.0966 C.3       5 UNK        -0.1982 
     37 C          25.4656  -28.3692  -40.0201 C.2       5 UNK         0.5017 
     38 O          26.0116  -28.3483  -38.9154 O.2       5 UNK        -0.5012 
     39 N          25.6131  -29.3781  -40.8878 N.am      6 UNK        -0.4439 
     40 CA         26.4261  -30.5758  -40.6813 C.3       6 UNK         0.0297 
     41 CB         26.8595  -31.1225  -42.0548 C.3       6 UNK        -0.2006 
     42 C          25.6668  -31.6167  -39.8397 C.2       6 UNK         0.4892 
     43 O          25.3442  -32.6948  -40.3430 O.2       6 UNK        -0.5089 
     44 N          25.3705  -31.2565  -38.5822 N.am      7 UNK        -0.4243 
     45 CA         24.6169  -32.0240  -37.5834 C.3       7 UNK         0.0196 
     46 CB         25.4262  -33.2533  -37.1105 C.3       7 UNK        -0.2007 
     47 C          23.2007  -32.3681  -38.0813 C.2       7 UNK         0.5020 
     48 O          22.3124  -31.5202  -38.0010 O.2       7 UNK        -0.5147 
     49 N          23.0210  -33.5893  -38.6017 N.am      8 UNK        -0.4734 
     50 CA         21.7876  -34.0584  -39.2399 C.3       8 UNK         0.0238 
     51 CB         21.8083  -35.5951  -39.2944 C.3       8 UNK        -0.1912 
     52 C          21.5600  -33.4714  -40.6470 C.2       8 UNK         0.5038 
     53 O          20.4402  -33.5647  -41.1507 O.2       8 UNK        -0.5046 
     54 N          22.6072  -32.8902  -41.2510 N.am      9 UNK        -0.4200 
     55 CA         22.6141  -32.2448  -42.5759 C.3       9 UNK         0.0839 
     56 C          22.4841  -33.2302  -43.7763 C.2       9 UNK         0.5513 
     57 N          22.6792  -34.5302  -43.5899 N.am      9 UNK        -0.7519 
     58 O          22.2362  -32.8099  -44.9035 O.2       9 UNK        -0.4960 
     59 C59        21.6366  -31.0382  -42.6831 C.3       10 UNK        -0.0876 
     60 S60        21.9311  -29.7655  -41.4060 S.3       10 UNK        -0.2414 
     61 C61        20.4074  -29.8395  -40.4103 C.3       10 UNK         0.0169 
     62 H62        13.2660  -27.0245  -42.5918 H         1 UNK         0.0903 
     63 H63        14.2636  -25.6140  -42.9535 H         1 UNK         0.0903 
     64 H64        12.5851  -25.6674  -43.4934 H         1 UNK         0.0903 
     65 H65        15.7226  -26.0283  -44.6060 H         1 UNK         0.3096 
     66 H66        14.9727  -26.9980  -47.1161 H         1 UNK         0.1121 
     67 H67        15.0745  -29.2735  -46.0738 H         1 UNK         0.0849 
     68 H68        16.1837  -29.0470  -47.3731 H         1 UNK         0.0849 
     69 H69        15.5535  -29.2648  -43.6855 H         1 UNK         0.0865 
     70 H70        16.4927  -30.7320  -43.5422 H         1 UNK         0.0865 
     71 H71        18.5478  -30.7661  -42.1866 H         1 UNK         0.1346 
     72 H72        19.7710  -27.2008  -40.1305 H         1 UNK         0.1412 
     73 H73        16.4472  -27.0971  -42.8284 H         1 UNK         0.1426 
     74 H74        18.6510  -25.1052  -40.5286 H         1 UNK         0.0716 
     75 H75        16.9365  -25.2956  -40.8102 H         1 UNK         0.0716 
     76 H76        20.0956  -23.7036  -43.7148 H         1 UNK         0.0695 
     77 H77        20.3506  -24.4023  -42.1397 H         1 UNK         0.0695 
     78 H78        20.1637  -26.7033  -43.1193 H         1 UNK         0.0983 
     79 H79        19.2121  -27.0014  -45.0803 H         1 UNK         0.3095 
     80 H80        18.9911  -25.2542  -48.1128 H         1 UNK         0.0454 
     81 H81        20.4886  -27.8918  -47.6543 H         1 UNK         0.0851 
     82 H82        21.1241  -26.4926  -48.5073 H         1 UNK         0.0851 
     83 H83        19.7528  -27.3650  -49.1687 H         1 UNK         0.0851 
     84 H84        18.0538  -27.8330  -47.2257 H         1 UNK         0.2976 
     85 H85        21.9355  -27.8370  -44.3380 H         1 UNK         0.3116 
     86 H86        24.3707  -26.5107  -44.9675 H         1 UNK         0.0646 
     87 H87        23.8650  -29.4470  -44.2281 H         1 UNK         0.0847 
     88 H88        25.2992  -28.8219  -45.0252 H         1 UNK         0.0847 
     89 H89        23.7520  -28.7591  -45.8488 H         1 UNK         0.0847 
     90 H90        23.0754  -27.5062  -41.9189 H         1 UNK         0.3040 
     91 H91        23.6389  -27.3332  -39.8053 H         1 UNK         0.1015 
     92 H92        24.4523  -25.0254  -40.3723 H         1 UNK         0.0786 
     93 H93        26.0772  -25.6659  -40.6157 H         1 UNK         0.0786 
     94 H94        25.3313  -25.7346  -39.0284 H         1 UNK         0.0786 
     95 H95        25.0898  -29.3264  -41.7485 H         1 UNK         0.3172 
     96 H96        27.3304  -30.3054  -40.1319 H         1 UNK         0.0595 
     97 H97        26.0056  -31.4048  -42.6710 H         1 UNK         0.0839 
     98 H98        27.4854  -32.0086  -41.9412 H         1 UNK         0.0839 
     99 H99        27.4419  -30.3855  -42.6082 H         1 UNK         0.0839 
    100 H100       25.6341  -30.3157  -38.3077 H         1 UNK         0.2998 
    101 H101       24.4863  -31.3674  -36.7215 H         1 UNK         0.0822 
    102 H102       26.3557  -32.9444  -36.6319 H         1 UNK         0.0787 
    103 H103       24.8659  -33.8324  -36.3750 H         1 UNK         0.0787 
    104 H104       25.6897  -33.9240  -37.9288 H         1 UNK         0.0787 
    105 H105       23.8238  -34.2005  -38.6556 H         1 UNK         0.3055 
    106 H106       20.9409  -33.7470  -38.6238 H         1 UNK         0.1106 
    107 H107       20.8901  -35.9830  -39.7382 H         1 UNK         0.0828 
    108 H108       22.6413  -35.9681  -39.8915 H         1 UNK         0.0828 
    109 H109       21.8895  -36.0265  -38.2966 H         1 UNK         0.0828 
    110 H110       23.5034  -32.8914  -40.7717 H         1 UNK         0.2931 
    111 H111       23.6203  -31.8380  -42.6751 H         1 UNK         0.0412 
    112 H112       22.6048  -35.1591  -44.3741 H         1 UNK         0.3472 
    113 H113       22.9008  -34.8862  -42.6742 H         1 UNK         0.3472 
    114 H114       21.7362  -30.5496  -43.6532 H         1 UNK         0.0970 
    115 H115       20.6082  -31.3904  -42.6403 H         1 UNK         0.0970 
    116 H116       20.6158  -29.4180  -39.4259 H         1 UNK         0.0612 
    117 H117       20.1217  -30.8777  -40.2388 H         1 UNK         0.0612 
@<TRIPOS>BOND
     1    1    2 1    
     2    1   62 1    
     3    1   63 1    
     4    1   64 1    
     5    2    3 2    
     6    2    4 am   BACKBONE|DICT|INTERRES
     7    4    5 1    
     8    4   65 1    
     9    5    6 1    
    10    5   25 1    
    11    5   66 1    
    12    6    7 1    
    13    6   67 1    
    14    6   68 1    
    15    7    8 1    
    16    8    9 1    
    17    8   69 1    
    18    8   70 1    
    19    9   10 ar   
    20    9   14 ar   
    21   10   11 ar   
    22   10   71 1    
    23   11   12 ar   
    24   11   61 1    
    25   12   13 ar   
    26   12   72 1    
    27   13   14 ar   
    28   13   15 1    
    29   14   73 1    
    30   15   16 1    
    31   15   74 1    
    32   15   75 1    
    33   16   17 1    
    34   17   18 1    
    35   17   76 1    
    36   17   77 1    
    37   18   19 1    
    38   18   27 1    
    39   18   78 1    
    40   19   20 am   BACKBONE|DICT|INTERRES
    41   19   79 1    
    42   20   21 2    
    43   20   22 1    
    44   22   23 1    
    45   22   24 1    
    46   22   80 1    
    47   23   81 1    
    48   23   82 1    
    49   23   83 1    
    50   24   25 am   BACKBONE|DICT|INTERRES
    51   24   84 1    
    52   25   26 2    
    53   27   28 2    
    54   27   29 am   BACKBONE|DICT|INTERRES
    55   29   30 1    
    56   29   85 1    
    57   30   31 1    
    58   30   32 1    
    59   30   86 1    
    60   31   87 1    
    61   31   88 1    
    62   31   89 1    
    63   32   33 2    
    64   32   34 am   BACKBONE|DICT|INTERRES
    65   34   35 1    
    66   34   90 1    
    67   35   36 1    
    68   35   37 1    
    69   35   91 1    
    70   36   92 1    
    71   36   93 1    
    72   36   94 1    
    73   37   38 2    
    74   37   39 am   BACKBONE|DICT|INTERRES
    75   39   40 1    
    76   39   95 1    
    77   40   41 1    
    78   40   42 1    
    79   40   96 1    
    80   41   97 1    
    81   41   98 1    
    82   41   99 1    
    83   42   43 2    
    84   42   44 am   BACKBONE|DICT|INTERRES
    85   44   45 1    
    86   44  100 1    
    87   45   46 1    
    88   45   47 1    
    89   45  101 1    
    90   46  102 1    
    91   46  103 1    
    92   46  104 1    
    93   47   48 2    
    94   47   49 am   BACKBONE|DICT|INTERRES
    95   49   50 1    
    96   49  105 1    
    97   50   51 1    
    98   50   52 1    
    99   50  106 1    
   100   51  107 1    
   101   51  108 1    
   102   51  109 1    
   103   52   53 2    
   104   52   54 am   BACKBONE|DICT|INTERRES
   105   54   55 1    
   106   54  110 1    
   107   55   56 1    
   108   55   59 1    
   109   55  111 1    
   110   56   57 am   BACKBONE|DICT|INTERRES
   111   56   58 2    
   112   57  112 1    
   113   57  113 1    
   114   59   60 1    
   115   59  114 1    
   116   59  115 1    
   117   60   61 1    
   118   61  116 1    
   119   61  117 1    
@<TRIPOS>SUBSTRUCTURE
     1 UNK         1 GROUP             0       ****    0 ROOT    
