@<TRIPOS>MOLECULE
3R8
117   119    1
SMALL
USER_CHARGES


@<TRIPOS>ATOM
      1 CA         16.6840  -25.4678  -42.0951 C.3       0 UNK        -0.2013 
      2 C          17.7150  -25.5613  -43.2083 C.2       0 UNK         0.4866 
      3 O          18.7821  -24.9601  -43.0966 O.2       0 UNK        -0.5176 
      4 N          17.3910  -26.3146  -44.2688 N.am      1 UNK        -0.4884 
      5 CA         18.0727  -26.3859  -45.5728 C.3       1 UNK         0.0853 
      6 C6         17.4309  -27.4275  -46.5334 C.3       10 UNK        -0.0849 
      7 S7         15.6059  -27.4965  -46.3989 S.3       10 UNK        -0.2776 
      8 C8         15.2636  -29.2654  -46.0920 C.3       10 UNK         0.0316 
      9 C9         16.1437  -29.9110  -45.0227 C.ar      10 UNK        -0.0863 
     10 C10        16.9474  -31.0030  -45.3654 C.ar      10 UNK        -0.1009 
     11 C11        17.7133  -31.6555  -44.3977 C.ar      10 UNK        -0.0712 
     12 C12        17.6930  -31.1942  -43.0798 C.ar      10 UNK        -0.0894 
     13 C13        16.9087  -30.0917  -42.7178 C.ar      10 UNK        -0.0745 
     14 C14        16.1255  -29.4634  -43.6956 C.ar      10 UNK        -0.0972 
     15 C15        16.8300  -29.6310  -41.2623 C.3       10 UNK         0.0209 
     16 S16        18.4264  -29.7022  -40.3704 S.3       10 UNK        -0.2568 
     17 C17        18.8242  -27.9528  -40.0366 C.3       10 UNK        -0.0983 
     18 CA         20.2263  -27.5745  -40.5669 C.3       3 UNK         0.0876 
     19 N          20.3114  -27.6659  -42.0280 N.am      3 UNK        -0.4424 
     20 C          21.4465  -27.6528  -42.7408 C.2       2 UNK         0.4918 
     21 O          22.5598  -27.5053  -42.2361 O.2       2 UNK        -0.4875 
     22 CA         21.3466  -27.8721  -44.2558 C.3       2 UNK         0.0481 
     23 CB         21.7892  -29.3026  -44.5874 C.3       2 UNK        -0.1831 
     24 N          19.9793  -27.6543  -44.7324 N.am      2 UNK        -0.4498 
     25 C          19.5934  -26.6012  -45.4645 C.2       1 UNK         0.5027 
     26 O          20.3641  -25.7975  -45.9918 O.2       1 UNK        -0.4969 
     27 C          20.7029  -26.2203  -40.0067 C.2       3 UNK         0.5005 
     28 O          21.2077  -26.1861  -38.8838 O.2       3 UNK        -0.5279 
     29 N          20.5882  -25.1425  -40.7966 N.am      4 UNK        -0.4463 
     30 CA         21.1593  -23.8319  -40.4751 C.3       4 UNK         0.0283 
     31 CB         20.5243  -22.7675  -41.3839 C.3       4 UNK        -0.1875 
     32 C          22.6958  -23.7902  -40.5967 C.2       4 UNK         0.4949 
     33 O          23.3152  -22.9134  -39.9938 O.2       4 UNK        -0.5039 
     34 N          23.2798  -24.7103  -41.3778 N.am      5 UNK        -0.4663 
     35 CA         24.7162  -24.7914  -41.6380 C.3       5 UNK         0.0242 
     36 CB         24.9529  -25.1140  -43.1245 C.3       5 UNK        -0.1982 
     37 C          25.4018  -25.8248  -40.7331 C.2       5 UNK         0.5017 
     38 O          26.3531  -25.4685  -40.0363 O.2       5 UNK        -0.5012 
     39 N          24.9328  -27.0808  -40.7727 N.am      6 UNK        -0.4439 
     40 CA         25.5748  -28.2166  -40.0957 C.3       6 UNK         0.0297 
     41 CB         26.8282  -28.6516  -40.8841 C.3       6 UNK        -0.2006 
     42 C          24.6625  -29.4332  -39.8546 C.2       6 UNK         0.4892 
     43 O          25.0488  -30.2961  -39.0656 O.2       6 UNK        -0.5089 
     44 N          23.5065  -29.5141  -40.5345 N.am      7 UNK        -0.4243 
     45 CA         22.5604  -30.6442  -40.5358 C.3       7 UNK         0.0196 
     46 CB         21.9412  -30.8634  -39.1366 C.3       7 UNK        -0.2007 
     47 C          23.1681  -31.9360  -41.1205 C.2       7 UNK         0.5020 
     48 O          22.8474  -33.0316  -40.6583 O.2       7 UNK        -0.5147 
     49 N          24.0370  -31.7872  -42.1323 N.am      8 UNK        -0.4734 
     50 CA         24.8280  -32.8655  -42.7414 C.3       8 UNK         0.0238 
     51 CB         25.7825  -32.2620  -43.7847 C.3       8 UNK        -0.1912 
     52 C          24.0027  -34.0077  -43.3629 C.2       8 UNK         0.5038 
     53 O          24.4548  -35.1534  -43.3440 O.2       8 UNK        -0.5046 
     54 N          22.8154  -33.6794  -43.8850 N.am      9 UNK        -0.4200 
     55 CA         21.8215  -34.6361  -44.3951 C.3       9 UNK         0.0839 
     56 C          20.9343  -35.2966  -43.2981 C.2       9 UNK         0.5513 
     57 N          21.0711  -34.9595  -42.0210 N.am      9 UNK        -0.7519 
     58 O          20.1089  -36.1499  -43.6134 O.2       9 UNK        -0.4960 
     59 C59        20.9864  -34.0354  -45.5595 C.3       10 UNK        -0.0876 
     60 S60        20.2385  -32.4127  -45.1872 S.3       10 UNK        -0.2414 
     61 C61        18.5364  -32.8791  -44.7681 C.3       10 UNK         0.0169 
     62 H62        17.1656  -25.2616  -41.1397 H         1 UNK         0.0903 
     63 H63        15.9921  -24.6516  -42.3006 H         1 UNK         0.0903 
     64 H64        16.1085  -26.3874  -42.0000 H         1 UNK         0.0903 
     65 H65        16.4907  -26.7736  -44.2756 H         1 UNK         0.3096 
     66 H66        17.9327  -25.4011  -46.0238 H         1 UNK         0.1121 
     67 H67        17.8431  -28.4235  -46.3697 H         1 UNK         0.0849 
     68 H68        17.6845  -27.1805  -47.5659 H         1 UNK         0.0849 
     69 H69        14.2186  -29.3724  -45.7979 H         1 UNK         0.0865 
     70 H70        15.3615  -29.7972  -47.0399 H         1 UNK         0.0865 
     71 H71        16.9614  -31.3650  -46.3847 H         1 UNK         0.1346 
     72 H72        18.2777  -31.7121  -42.3319 H         1 UNK         0.1412 
     73 H73        15.4816  -28.6389  -43.4225 H         1 UNK         0.1426 
     74 H74        16.1281  -30.2853  -40.7439 H         1 UNK         0.0716 
     75 H75        16.4046  -28.6302  -41.1967 H         1 UNK         0.0716 
     76 H76        18.7737  -27.8165  -38.9544 H         1 UNK         0.0695 
     77 H77        18.0635  -27.2995  -40.4585 H         1 UNK         0.0695 
     78 H78        20.9293  -28.3034  -40.1672 H         1 UNK         0.0983 
     79 H79        19.4360  -27.7861  -42.5108 H         1 UNK         0.3095 
     80 H80        22.0403  -27.1789  -44.7356 H         1 UNK         0.0454 
     81 H81        22.8453  -29.4482  -44.3574 H         1 UNK         0.0851 
     82 H82        21.6534  -29.5298  -45.6448 H         1 UNK         0.0851 
     83 H83        21.2267  -30.0336  -44.0074 H         1 UNK         0.0851 
     84 H84        19.2675  -28.2884  -44.3980 H         1 UNK         0.2976 
     85 H85        20.1093  -25.2234  -41.6909 H         1 UNK         0.3116 
     86 H86        20.9044  -23.5895  -39.4411 H         1 UNK         0.0646 
     87 H87        20.9038  -21.7726  -41.1471 H         1 UNK         0.0847 
     88 H88        20.7381  -22.9570  -42.4368 H         1 UNK         0.0847 
     89 H89        19.4412  -22.7380  -41.2639 H         1 UNK         0.0847 
     90 H90        22.7033  -25.4299  -41.7935 H         1 UNK         0.3040 
     91 H91        25.1819  -23.8233  -41.4383 H         1 UNK         0.1015 
     92 H92        26.0197  -25.1816  -43.3426 H         1 UNK         0.0786 
     93 H93        24.5419  -24.3343  -43.7660 H         1 UNK         0.0786 
     94 H94        24.5003  -26.0603  -43.4216 H         1 UNK         0.0786 
     95 H95        24.1223  -27.2679  -41.3566 H         1 UNK         0.3172 
     96 H96        25.8910  -27.8846  -39.1044 H         1 UNK         0.0595 
     97 H97        26.5789  -28.9405  -41.9056 H         1 UNK         0.0839 
     98 H98        27.3153  -29.5068  -40.4130 H         1 UNK         0.0839 
     99 H99        27.5693  -27.8539  -40.9336 H         1 UNK         0.0839 
    100 H100       23.2601  -28.7568  -41.1643 H         1 UNK         0.2998 
    101 H101       21.7495  -30.3674  -41.2109 H         1 UNK         0.0822 
    102 H102       21.0961  -31.5509  -39.1914 H         1 UNK         0.0787 
    103 H103       22.6602  -31.2925  -38.4381 H         1 UNK         0.0787 
    104 H104       21.5732  -29.9355  -38.7013 H         1 UNK         0.0787 
    105 H105       24.2433  -30.8495  -42.4429 H         1 UNK         0.3055 
    106 H106       25.4301  -33.3101  -41.9458 H         1 UNK         0.1106 
    107 H107       26.4577  -31.5348  -43.3332 H         1 UNK         0.0828 
    108 H108       26.4028  -33.0355  -44.2402 H         1 UNK         0.0828 
    109 H109       25.2398  -31.7645  -44.5896 H         1 UNK         0.0828 
    110 H110       22.5167  -32.7165  -43.8466 H         1 UNK         0.2931 
    111 H111       22.3747  -35.4706  -44.8304 H         1 UNK         0.0412 
    112 H112       21.7590  -34.2770  -41.7199 H         1 UNK         0.3472 
    113 H113       20.4882  -35.4098  -41.3338 H         1 UNK         0.3472 
    114 H114       21.6394  -33.8935  -46.4218 H         1 UNK         0.0970 
    115 H115       20.2183  -34.7330  -45.8988 H         1 UNK         0.0970 
    116 H116       18.0834  -33.3984  -45.6140 H         1 UNK         0.0612 
    117 H117       18.5446  -33.5862  -43.9375 H         1 UNK         0.0612 
@<TRIPOS>BOND
     1    1    2 1    
     2    1   62 1    
     3    1   63 1    
     4    1   64 1    
     5    2    3 2    
     6    2    4 am   BACKBONE|DICT|INTERRES
     7    4    5 1    
     8    4   65 1    
     9    5    6 1    
    10    5   25 1    
    11    5   66 1    
    12    6    7 1    
    13    6   67 1    
    14    6   68 1    
    15    7    8 1    
    16    8    9 1    
    17    8   69 1    
    18    8   70 1    
    19    9   10 ar   
    20    9   14 ar   
    21   10   11 ar   
    22   10   71 1    
    23   11   12 ar   
    24   11   61 1    
    25   12   13 ar   
    26   12   72 1    
    27   13   14 ar   
    28   13   15 1    
    29   14   73 1    
    30   15   16 1    
    31   15   74 1    
    32   15   75 1    
    33   16   17 1    
    34   17   18 1    
    35   17   76 1    
    36   17   77 1    
    37   18   19 1    
    38   18   27 1    
    39   18   78 1    
    40   19   20 am   BACKBONE|DICT|INTERRES
    41   19   79 1    
    42   20   21 2    
    43   20   22 1    
    44   22   23 1    
    45   22   24 1    
    46   22   80 1    
    47   23   81 1    
    48   23   82 1    
    49   23   83 1    
    50   24   25 am   BACKBONE|DICT|INTERRES
    51   24   84 1    
    52   25   26 2    
    53   27   28 2    
    54   27   29 am   BACKBONE|DICT|INTERRES
    55   29   30 1    
    56   29   85 1    
    57   30   31 1    
    58   30   32 1    
    59   30   86 1    
    60   31   87 1    
    61   31   88 1    
    62   31   89 1    
    63   32   33 2    
    64   32   34 am   BACKBONE|DICT|INTERRES
    65   34   35 1    
    66   34   90 1    
    67   35   36 1    
    68   35   37 1    
    69   35   91 1    
    70   36   92 1    
    71   36   93 1    
    72   36   94 1    
    73   37   38 2    
    74   37   39 am   BACKBONE|DICT|INTERRES
    75   39   40 1    
    76   39   95 1    
    77   40   41 1    
    78   40   42 1    
    79   40   96 1    
    80   41   97 1    
    81   41   98 1    
    82   41   99 1    
    83   42   43 2    
    84   42   44 am   BACKBONE|DICT|INTERRES
    85   44   45 1    
    86   44  100 1    
    87   45   46 1    
    88   45   47 1    
    89   45  101 1    
    90   46  102 1    
    91   46  103 1    
    92   46  104 1    
    93   47   48 2    
    94   47   49 am   BACKBONE|DICT|INTERRES
    95   49   50 1    
    96   49  105 1    
    97   50   51 1    
    98   50   52 1    
    99   50  106 1    
   100   51  107 1    
   101   51  108 1    
   102   51  109 1    
   103   52   53 2    
   104   52   54 am   BACKBONE|DICT|INTERRES
   105   54   55 1    
   106   54  110 1    
   107   55   56 1    
   108   55   59 1    
   109   55  111 1    
   110   56   57 am   BACKBONE|DICT|INTERRES
   111   56   58 2    
   112   57  112 1    
   113   57  113 1    
   114   59   60 1    
   115   59  114 1    
   116   59  115 1    
   117   60   61 1    
   118   61  116 1    
   119   61  117 1    
@<TRIPOS>SUBSTRUCTURE
     1 UNK         1 GROUP             0       ****    0 ROOT    
