@<TRIPOS>MOLECULE
3R8
117   119    1
SMALL
USER_CHARGES


@<TRIPOS>ATOM
      1 CA         17.0942  -24.5138  -38.0933 C.3       0 UNK        -0.2013 
      2 C          17.3446  -24.4012  -39.5899 C.2       0 UNK         0.4866 
      3 O          17.5399  -23.2963  -40.0979 O.2       0 UNK        -0.5176 
      4 N          17.3304  -25.5359  -40.2991 N.am      1 UNK        -0.4884 
      5 CA         17.6523  -25.6461  -41.7261 C.3       1 UNK         0.0853 
      6 C6         17.0908  -26.9594  -42.3362 C.3       10 UNK        -0.0849 
      7 S7         17.5313  -28.4835  -41.4244 S.3       10 UNK        -0.2776 
      8 C8         16.7869  -29.7683  -42.4788 C.3       10 UNK         0.0316 
      9 C9         17.8168  -30.4454  -43.3743 C.ar      10 UNK        -0.0863 
     10 C10        18.2019  -31.7682  -43.1323 C.ar      10 UNK        -0.1009 
     11 C11        19.1202  -32.4165  -43.9719 C.ar      10 UNK        -0.0712 
     12 C12        19.6490  -31.7176  -45.0621 C.ar      10 UNK        -0.0894 
     13 C13        19.2679  -30.3976  -45.3181 C.ar      10 UNK        -0.0745 
     14 C14        18.3539  -29.7677  -44.4710 C.ar      10 UNK        -0.0972 
     15 C15        19.8198  -29.6536  -46.5222 C.3       10 UNK         0.0209 
     16 S16        21.4838  -29.0126  -46.1818 S.3       10 UNK        -0.2568 
     17 C17        21.5915  -27.6422  -47.3864 C.3       10 UNK        -0.0983 
     18 CA         22.5057  -26.4691  -46.9138 C.3       3 UNK         0.0876 
     19 N          22.1517  -25.9220  -45.6044 N.am      3 UNK        -0.4424 
     20 C          20.9651  -25.4662  -45.1988 C.2       2 UNK         0.4918 
     21 O          19.9669  -25.3638  -45.9164 O.2       2 UNK        -0.4875 
     22 CA         20.8888  -25.0387  -43.7299 C.3       2 UNK         0.0481 
     23 CB         21.3383  -23.5779  -43.5505 C.3       2 UNK        -0.1831 
     24 N          19.5160  -25.2022  -43.2599 N.am      2 UNK        -0.4498 
     25 C          19.1644  -25.4613  -41.9956 C.2       1 UNK         0.5027 
     26 O          19.9787  -25.5499  -41.0736 O.2       1 UNK        -0.4969 
     27 C          24.0024  -26.8392  -46.8312 C.2       3 UNK         0.5005 
     28 O          24.7365  -26.2146  -46.0593 O.2       3 UNK        -0.5279 
     29 N          24.4280  -27.8665  -47.5802 N.am      4 UNK        -0.4463 
     30 CA         25.7534  -28.4859  -47.4770 C.3       4 UNK         0.0283 
     31 CB         25.9882  -29.3794  -48.7061 C.3       4 UNK        -0.1875 
     32 C          25.9509  -29.2948  -46.1776 C.2       4 UNK         0.4949 
     33 O          27.0967  -29.5516  -45.8061 O.2       4 UNK        -0.5039 
     34 N          24.8477  -29.6845  -45.5209 N.am      5 UNK        -0.4663 
     35 CA         24.8271  -30.3236  -44.2054 C.3       5 UNK         0.0242 
     36 CB         23.6717  -31.3482  -44.1556 C.3       5 UNK        -0.1982 
     37 C          24.7665  -29.2434  -43.1057 C.2       5 UNK         0.5017 
     38 O          25.6454  -28.3814  -43.0559 O.2       5 UNK        -0.5012 
     39 N          23.7507  -29.3031  -42.2394 N.am      6 UNK        -0.4439 
     40 CA         23.5060  -28.4047  -41.1147 C.3       6 UNK         0.0297 
     41 CB         24.5331  -28.6609  -39.9899 C.3       6 UNK        -0.2006 
     42 C          22.0642  -28.6262  -40.6343 C.2       6 UNK         0.4892 
     43 O          21.3434  -29.4360  -41.2266 O.2       6 UNK        -0.5089 
     44 N          21.6777  -27.9172  -39.5642 N.am      7 UNK        -0.4243 
     45 CA         20.3753  -28.0333  -38.9041 C.3       7 UNK         0.0196 
     46 CB         20.2815  -27.0148  -37.7569 C.3       7 UNK        -0.2007 
     47 C          20.1222  -29.4610  -38.3959 C.2       7 UNK         0.5020 
     48 O          20.9790  -30.0182  -37.7061 O.2       7 UNK        -0.5147 
     49 N          18.9733  -30.0330  -38.7834 N.am      8 UNK        -0.4734 
     50 CA         18.5617  -31.4254  -38.5470 C.3       8 UNK         0.0238 
     51 CB         18.2525  -31.6559  -37.0523 C.3       8 UNK        -0.1912 
     52 C          19.5639  -32.4517  -39.1195 C.2       8 UNK         0.5038 
     53 O          19.7835  -33.5021  -38.5137 O.2       8 UNK        -0.5046 
     54 N          20.1628  -32.1035  -40.2664 N.am      9 UNK        -0.4200 
     55 CA         21.2417  -32.8210  -40.9627 C.3       9 UNK         0.0839 
     56 C          22.6354  -32.7110  -40.2731 C.2       9 UNK         0.5513 
     57 N          22.8070  -31.9384  -39.2066 N.am      9 UNK        -0.7519 
     58 O          23.5957  -33.3231  -40.7327 O.2       9 UNK        -0.4960 
     59 C59        20.9050  -34.2940  -41.3422 C.3       10 UNK        -0.0876 
     60 S60        19.2677  -34.5543  -42.1065 S.3       10 UNK        -0.2414 
     61 C61        19.5110  -33.8849  -43.7873 C.3       10 UNK         0.0169 
     62 H62        16.2324  -23.9103  -37.8096 H         1 UNK         0.0903 
     63 H63        16.9033  -25.5424  -37.7876 H         1 UNK         0.0903 
     64 H64        17.9613  -24.1522  -37.5411 H         1 UNK         0.0903 
     65 H65        17.1807  -26.4183  -39.8317 H         1 UNK         0.3096 
     66 H66        17.1532  -24.8156  -42.2313 H         1 UNK         0.1121 
     67 H67        16.0015  -26.8970  -42.3562 H         1 UNK         0.0849 
     68 H68        17.3914  -27.0576  -43.3791 H         1 UNK         0.0849 
     69 H69        16.3057  -30.5044  -41.8330 H         1 UNK         0.0865 
     70 H70        15.9895  -29.3435  -43.0902 H         1 UNK         0.0865 
     71 H71        17.7634  -32.2959  -42.2977 H         1 UNK         0.1346 
     72 H72        20.3489  -32.2059  -45.7267 H         1 UNK         0.1412 
     73 H73        18.0538  -28.7509  -44.6760 H         1 UNK         0.1426 
     74 H74        19.1497  -28.8346  -46.7869 H         1 UNK         0.0716 
     75 H75        19.8571  -30.3141  -47.3896 H         1 UNK         0.0716 
     76 H76        21.9097  -28.0382  -48.3517 H         1 UNK         0.0695 
     77 H77        20.5897  -27.2551  -47.5720 H         1 UNK         0.0695 
     78 H78        22.4276  -25.6574  -47.6394 H         1 UNK         0.0983 
     79 H79        22.9387  -25.9115  -44.9665 H         1 UNK         0.3095 
     80 H80        21.5472  -25.6932  -43.1536 H         1 UNK         0.0454 
     81 H81        22.3606  -23.4349  -43.9026 H         1 UNK         0.0851 
     82 H82        20.7010  -22.8901  -44.1075 H         1 UNK         0.0851 
     83 H83        21.3141  -23.2813  -42.5017 H         1 UNK         0.0851 
     84 H84        18.8196  -25.1787  -43.9946 H         1 UNK         0.2976 
     85 H85        23.7612  -28.3286  -48.1823 H         1 UNK         0.3116 
     86 H86        26.5028  -27.6914  -47.4845 H         1 UNK         0.0646 
     87 H87        26.9818  -29.8291  -48.6767 H         1 UNK         0.0847 
     88 H88        25.9216  -28.8084  -49.6323 H         1 UNK         0.0847 
     89 H89        25.2648  -30.1941  -48.7585 H         1 UNK         0.0847 
     90 H90        23.9497  -29.4083  -45.8941 H         1 UNK         0.3040 
     91 H91        25.7593  -30.8724  -44.0539 H         1 UNK         0.1015 
     92 H92        23.7579  -32.0735  -44.9649 H         1 UNK         0.0786 
     93 H93        22.6916  -30.8782  -44.2412 H         1 UNK         0.0786 
     94 H94        23.6895  -31.9146  -43.2237 H         1 UNK         0.0786 
     95 H95        23.0119  -29.9841  -42.3715 H         1 UNK         0.3172 
     96 H96        23.5887  -27.3733  -41.4629 H         1 UNK         0.0595 
     97 H97        25.5548  -28.5032  -40.3348 H         1 UNK         0.0839 
     98 H98        24.4659  -29.6809  -39.6118 H         1 UNK         0.0839 
     99 H99        24.3825  -27.9886  -39.1451 H         1 UNK         0.0839 
    100 H100       22.3372  -27.2828  -39.1401 H         1 UNK         0.2998 
    101 H101       19.6175  -27.7778  -39.6435 H         1 UNK         0.0822 
    102 H102       20.3905  -25.9944  -38.1258 H         1 UNK         0.0787 
    103 H103       19.3126  -27.0762  -37.2598 H         1 UNK         0.0787 
    104 H104       21.0487  -27.1864  -37.0008 H         1 UNK         0.0787 
    105 H105       18.3627  -29.4985  -39.3902 H         1 UNK         0.3055 
    106 H106       17.6343  -31.5734  -39.1031 H         1 UNK         0.1106 
    107 H107       19.1503  -31.5857  -36.4374 H         1 UNK         0.0828 
    108 H108       17.5322  -30.9283  -36.6789 H         1 UNK         0.0828 
    109 H109       17.8248  -32.6459  -36.8893 H         1 UNK         0.0828 
    110 H110       19.9674  -31.1854  -40.6456 H         1 UNK         0.2931 
    111 H111       21.3585  -32.2759  -41.8999 H         1 UNK         0.0412 
    112 H112       23.7180  -31.8926  -38.7803 H         1 UNK         0.3472 
    113 H113       22.0391  -31.4100  -38.8088 H         1 UNK         0.3472 
    114 H114       20.9506  -34.9257  -40.4536 H         1 UNK         0.0970 
    115 H115       21.6629  -34.6915  -42.0196 H         1 UNK         0.0970 
    116 H116       18.9055  -34.4783  -44.4734 H         1 UNK         0.0612 
    117 H117       20.5492  -34.0373  -44.0862 H         1 UNK         0.0612 
@<TRIPOS>BOND
     1    1    2 1    
     2    1   62 1    
     3    1   63 1    
     4    1   64 1    
     5    2    3 2    
     6    2    4 am   BACKBONE|DICT|INTERRES
     7    4    5 1    
     8    4   65 1    
     9    5    6 1    
    10    5   25 1    
    11    5   66 1    
    12    6    7 1    
    13    6   67 1    
    14    6   68 1    
    15    7    8 1    
    16    8    9 1    
    17    8   69 1    
    18    8   70 1    
    19    9   10 ar   
    20    9   14 ar   
    21   10   11 ar   
    22   10   71 1    
    23   11   12 ar   
    24   11   61 1    
    25   12   13 ar   
    26   12   72 1    
    27   13   14 ar   
    28   13   15 1    
    29   14   73 1    
    30   15   16 1    
    31   15   74 1    
    32   15   75 1    
    33   16   17 1    
    34   17   18 1    
    35   17   76 1    
    36   17   77 1    
    37   18   19 1    
    38   18   27 1    
    39   18   78 1    
    40   19   20 am   BACKBONE|DICT|INTERRES
    41   19   79 1    
    42   20   21 2    
    43   20   22 1    
    44   22   23 1    
    45   22   24 1    
    46   22   80 1    
    47   23   81 1    
    48   23   82 1    
    49   23   83 1    
    50   24   25 am   BACKBONE|DICT|INTERRES
    51   24   84 1    
    52   25   26 2    
    53   27   28 2    
    54   27   29 am   BACKBONE|DICT|INTERRES
    55   29   30 1    
    56   29   85 1    
    57   30   31 1    
    58   30   32 1    
    59   30   86 1    
    60   31   87 1    
    61   31   88 1    
    62   31   89 1    
    63   32   33 2    
    64   32   34 am   BACKBONE|DICT|INTERRES
    65   34   35 1    
    66   34   90 1    
    67   35   36 1    
    68   35   37 1    
    69   35   91 1    
    70   36   92 1    
    71   36   93 1    
    72   36   94 1    
    73   37   38 2    
    74   37   39 am   BACKBONE|DICT|INTERRES
    75   39   40 1    
    76   39   95 1    
    77   40   41 1    
    78   40   42 1    
    79   40   96 1    
    80   41   97 1    
    81   41   98 1    
    82   41   99 1    
    83   42   43 2    
    84   42   44 am   BACKBONE|DICT|INTERRES
    85   44   45 1    
    86   44  100 1    
    87   45   46 1    
    88   45   47 1    
    89   45  101 1    
    90   46  102 1    
    91   46  103 1    
    92   46  104 1    
    93   47   48 2    
    94   47   49 am   BACKBONE|DICT|INTERRES
    95   49   50 1    
    96   49  105 1    
    97   50   51 1    
    98   50   52 1    
    99   50  106 1    
   100   51  107 1    
   101   51  108 1    
   102   51  109 1    
   103   52   53 2    
   104   52   54 am   BACKBONE|DICT|INTERRES
   105   54   55 1    
   106   54  110 1    
   107   55   56 1    
   108   55   59 1    
   109   55  111 1    
   110   56   57 am   BACKBONE|DICT|INTERRES
   111   56   58 2    
   112   57  112 1    
   113   57  113 1    
   114   59   60 1    
   115   59  114 1    
   116   59  115 1    
   117   60   61 1    
   118   61  116 1    
   119   61  117 1    
@<TRIPOS>SUBSTRUCTURE
     1 UNK         1 GROUP             0       ****    0 ROOT    
