@<TRIPOS>MOLECULE
3R8
117   119    1
SMALL
USER_CHARGES


@<TRIPOS>ATOM
      1 CA         17.3066  -24.9486  -39.3949 C.3       0 UNK        -0.2013 
      2 C          18.0273  -26.2936  -39.4397 C.2       0 UNK         0.4866 
      3 O          18.4633  -26.7765  -38.3974 O.2       0 UNK        -0.5176 
      4 N          18.1652  -26.9405  -40.6042 N.am      1 UNK        -0.4884 
      5 CA         17.7573  -26.4737  -41.9333 C.3       1 UNK         0.0853 
      6 C6         17.7107  -27.6431  -42.9456 C.3       10 UNK        -0.0849 
      7 S7         16.5077  -28.9344  -42.4871 S.3       10 UNK        -0.2776 
      8 C8         16.2864  -29.7851  -44.0837 C.3       10 UNK         0.0316 
      9 C9         17.6071  -30.2935  -44.6465 C.ar      10 UNK        -0.0863 
     10 C10        18.2327  -31.4045  -44.0752 C.ar      10 UNK        -0.1009 
     11 C11        19.4526  -31.8682  -44.5757 C.ar      10 UNK        -0.0712 
     12 C12        20.0443  -31.2172  -45.6628 C.ar      10 UNK        -0.0894 
     13 C13        19.4320  -30.0985  -46.2379 C.ar      10 UNK        -0.0745 
     14 C14        18.2104  -29.6461  -45.7293 C.ar      10 UNK        -0.0972 
     15 C15        20.0860  -29.3765  -47.4095 C.3       10 UNK         0.0209 
     16 S16        21.6341  -28.5415  -46.9333 S.3       10 UNK        -0.2568 
     17 C17        21.0687  -27.3571  -45.6632 C.3       10 UNK        -0.0983 
     18 CA         21.5943  -25.9101  -45.8742 C.3       3 UNK         0.0876 
     19 N          20.8599  -24.9695  -45.0366 N.am      3 UNK        -0.4424 
     20 C          19.6722  -24.4344  -45.3223 C.2       2 UNK         0.4918 
     21 O          19.0722  -24.6154  -46.3831 O.2       2 UNK        -0.4875 
     22 CA         19.0069  -23.6324  -44.1910 C.3       2 UNK         0.0481 
     23 CB         18.1005  -22.5105  -44.7284 C.3       2 UNK        -0.1831 
     24 N          18.2100  -24.5495  -43.3754 N.am      2 UNK        -0.4498 
     25 C          18.7164  -25.3887  -42.4614 C.2       1 UNK         0.5027 
     26 O          19.8900  -25.3595  -42.0817 O.2       1 UNK        -0.4969 
     27 C          23.0878  -25.7796  -45.5245 C.2       3 UNK         0.5005 
     28 O          23.4269  -25.2729  -44.4508 O.2       3 UNK        -0.5279 
     29 N          23.9516  -26.2719  -46.4221 N.am      4 UNK        -0.4463 
     30 CA         25.3877  -26.4526  -46.1855 C.3       4 UNK         0.0283 
     31 CB         26.1074  -26.5755  -47.5387 C.3       4 UNK        -0.1875 
     32 C          25.6962  -27.6760  -45.2974 C.2       4 UNK         0.4949 
     33 O          26.8127  -27.7835  -44.7889 O.2       4 UNK        -0.5039 
     34 N          24.7163  -28.5775  -45.1373 N.am      5 UNK        -0.4663 
     35 CA         24.7637  -29.7435  -44.2547 C.3       5 UNK         0.0242 
     36 CB         23.6138  -30.6876  -44.6405 C.3       5 UNK        -0.1982 
     37 C          24.6850  -29.3550  -42.7649 C.2       5 UNK         0.5017 
     38 O          24.4128  -28.1984  -42.4319 O.2       5 UNK        -0.5012 
     39 N          24.9239  -30.3394  -41.8888 N.am      6 UNK        -0.4439 
     40 CA         25.0064  -30.2011  -40.4308 C.3       6 UNK         0.0297 
     41 CB         25.7292  -31.4376  -39.8625 C.3       6 UNK        -0.2006 
     42 C          23.6477  -29.9488  -39.7410 C.2       6 UNK         0.4892 
     43 O          23.2323  -30.7484  -38.8997 O.2       6 UNK        -0.5089 
     44 N          22.9967  -28.8309  -40.0903 N.am      7 UNK        -0.4243 
     45 CA         21.7473  -28.2989  -39.5346 C.3       7 UNK         0.0196 
     46 CB         21.9673  -27.8027  -38.0876 C.3       7 UNK        -0.2007 
     47 C          20.5754  -29.2869  -39.6741 C.2       7 UNK         0.5020 
     48 O          19.9402  -29.3175  -40.7268 O.2       7 UNK        -0.5147 
     49 N          20.3015  -30.0614  -38.6168 N.am      8 UNK        -0.4734 
     50 CA         19.2868  -31.1184  -38.5964 C.3       8 UNK         0.0238 
     51 CB         18.8506  -31.3593  -37.1416 C.3       8 UNK        -0.1912 
     52 C          19.7670  -32.4324  -39.2428 C.2       8 UNK         0.5038 
     53 O          18.9349  -33.3020  -39.5045 O.2       8 UNK        -0.5046 
     54 N          21.0819  -32.5602  -39.4730 N.am      9 UNK        -0.4200 
     55 CA         21.7648  -33.7073  -40.0971 C.3       9 UNK         0.0839 
     56 C          21.8305  -34.9839  -39.2063 C.2       9 UNK         0.5513 
     57 N          21.5731  -34.8980  -37.9065 N.am      9 UNK        -0.7519 
     58 O          22.1491  -36.0670  -39.6910 O.2       9 UNK        -0.4960 
     59 C59        21.2786  -34.0135  -41.5442 C.3       10 UNK        -0.0876 
     60 S60        21.2708  -32.5385  -42.6186 S.3       10 UNK        -0.2414 
     61 C61        20.1267  -33.0670  -43.9294 C.3       10 UNK         0.0169 
     62 H62        17.8655  -24.1870  -39.9374 H         1 UNK         0.0903 
     63 H63        16.3047  -25.0233  -39.8160 H         1 UNK         0.0903 
     64 H64        17.2029  -24.6084  -38.3647 H         1 UNK         0.0903 
     65 H65        18.6660  -27.8246  -40.6142 H         1 UNK         0.3096 
     66 H66        16.7557  -26.0455  -41.8634 H         1 UNK         0.1121 
     67 H67        17.4494  -27.2778  -43.9410 H         1 UNK         0.0849 
     68 H68        18.6943  -28.1103  -43.0394 H         1 UNK         0.0849 
     69 H69        15.6027  -30.6242  -43.9475 H         1 UNK         0.0865 
     70 H70        15.7996  -29.1083  -44.7878 H         1 UNK         0.0865 
     71 H71        17.7772  -31.8975  -43.2270 H         1 UNK         0.1346 
     72 H72        20.9910  -31.5683  -46.0499 H         1 UNK         0.1412 
     73 H73        17.7334  -28.7815  -46.1705 H         1 UNK         0.1426 
     74 H74        19.4066  -28.6426  -47.8459 H         1 UNK         0.0716 
     75 H75        20.3035  -30.0987  -48.1975 H         1 UNK         0.0716 
     76 H76        21.3450  -27.7377  -44.6774 H         1 UNK         0.0695 
     77 H77        19.9782  -27.3471  -45.6752 H         1 UNK         0.0695 
     78 H78        21.4637  -25.6183  -46.9190 H         1 UNK         0.0983 
     79 H79        21.3060  -24.7731  -44.1477 H         1 UNK         0.3095 
     80 H80        19.7840  -23.1726  -43.5762 H         1 UNK         0.0454 
     81 H81        17.6707  -21.9257  -43.9152 H         1 UNK         0.0851 
     82 H82        17.2787  -22.8999  -45.3307 H         1 UNK         0.0851 
     83 H83        18.6667  -21.8223  -45.3573 H         1 UNK         0.0851 
     84 H84        17.2434  -24.6537  -43.6507 H         1 UNK         0.2976 
     85 H85        23.5820  -26.6739  -47.2734 H         1 UNK         0.3116 
     86 H86        25.7726  -25.5686  -45.6724 H         1 UNK         0.0646 
     87 H87        25.7687  -27.4473  -48.0999 H         1 UNK         0.0847 
     88 H88        27.1846  -26.6774  -47.3994 H         1 UNK         0.0847 
     89 H89        25.9455  -25.6925  -48.1571 H         1 UNK         0.0847 
     90 H90        23.8288  -28.3939  -45.5828 H         1 UNK         0.3040 
     91 H91        25.7139  -30.2556  -44.4219 H         1 UNK         0.1015 
     92 H92        22.6408  -30.2550  -44.4016 H         1 UNK         0.0786 
     93 H93        23.6892  -31.6373  -44.1110 H         1 UNK         0.0786 
     94 H94        23.6251  -30.9175  -45.7062 H         1 UNK         0.0786 
     95 H95        25.0915  -31.2667  -42.2517 H         1 UNK         0.3172 
     96 H96        25.6310  -29.3321  -40.2133 H         1 UNK         0.0595 
     97 H97        25.1736  -32.3559  -40.0562 H         1 UNK         0.0839 
     98 H98        25.8542  -31.3555  -38.7818 H         1 UNK         0.0839 
     99 H99        26.7253  -31.5496  -40.2911 H         1 UNK         0.0839 
    100 H100       23.4018  -28.3005  -40.8591 H         1 UNK         0.2998 
    101 H101       21.4851  -27.4296  -40.1409 H         1 UNK         0.0822 
    102 H102       22.6911  -26.9881  -38.0628 H         1 UNK         0.0787 
    103 H103       21.0403  -27.4186  -37.6599 H         1 UNK         0.0787 
    104 H104       22.3360  -28.5871  -37.4262 H         1 UNK         0.0787 
    105 H105       20.8949  -29.9789  -37.8034 H         1 UNK         0.3055 
    106 H106       18.4166  -30.7809  -39.1647 H         1 UNK         0.1106 
    107 H107       18.0707  -32.1203  -37.0883 H         1 UNK         0.0828 
    108 H108       19.6802  -31.6987  -36.5204 H         1 UNK         0.0828 
    109 H109       18.4448  -30.4513  -36.6949 H         1 UNK         0.0828 
    110 H110       21.6970  -31.7964  -39.2048 H         1 UNK         0.2931 
    111 H111       22.8038  -33.3875  -40.1817 H         1 UNK         0.0412 
    112 H112       21.6278  -35.7264  -37.3346 H         1 UNK         0.3472 
    113 H113       21.3270  -34.0126  -37.4941 H         1 UNK         0.3472 
    114 H114       20.2776  -34.4463  -41.5153 H         1 UNK         0.0970 
    115 H115       21.9194  -34.7625  -42.0126 H         1 UNK         0.0970 
    116 H116       19.3659  -33.7327  -43.5193 H         1 UNK         0.0612 
    117 H117       20.6749  -33.6455  -44.6743 H         1 UNK         0.0612 
@<TRIPOS>BOND
     1    1    2 1    
     2    1   62 1    
     3    1   63 1    
     4    1   64 1    
     5    2    3 2    
     6    2    4 am   BACKBONE|DICT|INTERRES
     7    4    5 1    
     8    4   65 1    
     9    5    6 1    
    10    5   25 1    
    11    5   66 1    
    12    6    7 1    
    13    6   67 1    
    14    6   68 1    
    15    7    8 1    
    16    8    9 1    
    17    8   69 1    
    18    8   70 1    
    19    9   10 ar   
    20    9   14 ar   
    21   10   11 ar   
    22   10   71 1    
    23   11   12 ar   
    24   11   61 1    
    25   12   13 ar   
    26   12   72 1    
    27   13   14 ar   
    28   13   15 1    
    29   14   73 1    
    30   15   16 1    
    31   15   74 1    
    32   15   75 1    
    33   16   17 1    
    34   17   18 1    
    35   17   76 1    
    36   17   77 1    
    37   18   19 1    
    38   18   27 1    
    39   18   78 1    
    40   19   20 am   BACKBONE|DICT|INTERRES
    41   19   79 1    
    42   20   21 2    
    43   20   22 1    
    44   22   23 1    
    45   22   24 1    
    46   22   80 1    
    47   23   81 1    
    48   23   82 1    
    49   23   83 1    
    50   24   25 am   BACKBONE|DICT|INTERRES
    51   24   84 1    
    52   25   26 2    
    53   27   28 2    
    54   27   29 am   BACKBONE|DICT|INTERRES
    55   29   30 1    
    56   29   85 1    
    57   30   31 1    
    58   30   32 1    
    59   30   86 1    
    60   31   87 1    
    61   31   88 1    
    62   31   89 1    
    63   32   33 2    
    64   32   34 am   BACKBONE|DICT|INTERRES
    65   34   35 1    
    66   34   90 1    
    67   35   36 1    
    68   35   37 1    
    69   35   91 1    
    70   36   92 1    
    71   36   93 1    
    72   36   94 1    
    73   37   38 2    
    74   37   39 am   BACKBONE|DICT|INTERRES
    75   39   40 1    
    76   39   95 1    
    77   40   41 1    
    78   40   42 1    
    79   40   96 1    
    80   41   97 1    
    81   41   98 1    
    82   41   99 1    
    83   42   43 2    
    84   42   44 am   BACKBONE|DICT|INTERRES
    85   44   45 1    
    86   44  100 1    
    87   45   46 1    
    88   45   47 1    
    89   45  101 1    
    90   46  102 1    
    91   46  103 1    
    92   46  104 1    
    93   47   48 2    
    94   47   49 am   BACKBONE|DICT|INTERRES
    95   49   50 1    
    96   49  105 1    
    97   50   51 1    
    98   50   52 1    
    99   50  106 1    
   100   51  107 1    
   101   51  108 1    
   102   51  109 1    
   103   52   53 2    
   104   52   54 am   BACKBONE|DICT|INTERRES
   105   54   55 1    
   106   54  110 1    
   107   55   56 1    
   108   55   59 1    
   109   55  111 1    
   110   56   57 am   BACKBONE|DICT|INTERRES
   111   56   58 2    
   112   57  112 1    
   113   57  113 1    
   114   59   60 1    
   115   59  114 1    
   116   59  115 1    
   117   60   61 1    
   118   61  116 1    
   119   61  117 1    
@<TRIPOS>SUBSTRUCTURE
     1 UNK         1 GROUP             0       ****    0 ROOT    
