@<TRIPOS>MOLECULE
3R8
117   119    1
SMALL
USER_CHARGES


@<TRIPOS>ATOM
      1 CA         15.0377  -23.0509  -42.5623 C.3       0 UNK        -0.2013 
      2 C          15.8994  -23.3249  -43.7858 C.2       0 UNK         0.4866 
      3 O          16.2131  -22.3988  -44.5348 O.2       0 UNK        -0.5176 
      4 N          16.2753  -24.5917  -43.9994 N.am      1 UNK        -0.4884 
      5 CA         17.1443  -25.0361  -45.0949 C.3       1 UNK         0.0853 
      6 C6         17.1634  -26.5841  -45.2346 C.3       10 UNK        -0.0849 
      7 S7         15.5222  -27.3780  -45.3012 S.3       10 UNK        -0.2776 
      8 C8         15.5573  -28.4370  -43.8030 C.3       10 UNK         0.0316 
      9 C9         16.5787  -29.5831  -43.7920 C.ar      10 UNK        -0.0863 
     10 C10        16.7705  -30.2918  -42.5992 C.ar      10 UNK        -0.1009 
     11 C11        17.6691  -31.3622  -42.5329 C.ar      10 UNK        -0.0712 
     12 C12        18.4080  -31.7087  -43.6673 C.ar      10 UNK        -0.0894 
     13 C13        18.2267  -31.0208  -44.8691 C.ar      10 UNK        -0.0745 
     14 C14        17.3016  -29.9730  -44.9284 C.ar      10 UNK        -0.0972 
     15 C15        18.9953  -31.4452  -46.1152 C.3       10 UNK         0.0209 
     16 S16        20.6965  -30.7902  -46.1555 S.3       10 UNK        -0.2568 
     17 C17        20.3994  -29.0027  -46.3826 C.3       10 UNK        -0.0983 
     18 CA         21.1555  -28.0431  -45.4228 C.3       3 UNK         0.0876 
     19 N          20.8438  -26.6678  -45.8125 N.am      3 UNK        -0.4424 
     20 C          21.4921  -25.5494  -45.4651 C.2       2 UNK         0.4918 
     21 O          22.5208  -25.5274  -44.7909 O.2       2 UNK        -0.4875 
     22 CA         20.8202  -24.2324  -45.9121 C.3       2 UNK         0.0481 
     23 CB         21.3565  -23.7896  -47.2823 C.3       2 UNK        -0.1831 
     24 N          19.3525  -24.3537  -45.9678 N.am      2 UNK        -0.4498 
     25 C          18.5932  -24.5492  -44.8790 C.2       1 UNK         0.5027 
     26 O          19.0427  -24.4832  -43.7338 O.2       1 UNK        -0.4969 
     27 C          20.8923  -28.3249  -43.9188 C.2       3 UNK         0.5005 
     28 O          21.3857  -29.3296  -43.4128 O.2       3 UNK        -0.5279 
     29 N          20.1765  -27.4382  -43.2020 N.am      4 UNK        -0.4463 
     30 CA         19.8092  -27.6028  -41.7857 C.3       4 UNK         0.0283 
     31 CB         18.7091  -26.5975  -41.4061 C.3       4 UNK        -0.1875 
     32 C          20.9857  -27.5111  -40.7899 C.2       4 UNK         0.4949 
     33 O          20.7676  -27.6971  -39.5921 O.2       4 UNK        -0.5039 
     34 N          22.2000  -27.2197  -41.2760 N.am      5 UNK        -0.4663 
     35 CA         23.4432  -27.2455  -40.5057 C.3       5 UNK         0.0242 
     36 CB         24.5798  -26.6930  -41.3807 C.3       5 UNK        -0.1982 
     37 C          23.7862  -28.6665  -40.0245 C.2       5 UNK         0.5017 
     38 O          23.5586  -29.6337  -40.7562 O.2       5 UNK        -0.5012 
     39 N          24.3815  -28.7585  -38.8271 N.am      6 UNK        -0.4439 
     40 CA         24.7325  -30.0056  -38.1314 C.3       6 UNK         0.0297 
     41 CB         25.2868  -29.6610  -36.7390 C.3       6 UNK        -0.2006 
     42 C          25.7103  -30.9326  -38.8814 C.2       6 UNK         0.4892 
     43 O          25.7958  -32.1147  -38.5476 O.2       6 UNK        -0.5089 
     44 N          26.4250  -30.3912  -39.8766 N.am      7 UNK        -0.4243 
     45 CA         27.2988  -31.1358  -40.7832 C.3       7 UNK         0.0196 
     46 CB         28.1876  -30.1397  -41.5461 C.3       7 UNK        -0.2007 
     47 C          26.5366  -32.0395  -41.7723 C.2       7 UNK         0.5020 
     48 O          27.1378  -32.9822  -42.2887 O.2       7 UNK        -0.5147 
     49 N          25.2557  -31.7417  -42.0349 N.am      8 UNK        -0.4734 
     50 CA         24.4077  -32.4829  -42.9721 C.3       8 UNK         0.0238 
     51 CB         24.0741  -31.5886  -44.1780 C.3       8 UNK        -0.1912 
     52 C          23.1296  -32.9987  -42.2976 C.2       8 UNK         0.5038 
     53 O          22.7966  -34.1727  -42.4654 O.2       8 UNK        -0.5046 
     54 N          22.4379  -32.1280  -41.5549 N.am      9 UNK        -0.4200 
     55 CA         21.2057  -32.4415  -40.8259 C.3       9 UNK         0.0839 
     56 C          21.5277  -33.1495  -39.4851 C.2       9 UNK         0.5513 
     57 N          21.0026  -34.3478  -39.2680 N.am      9 UNK        -0.7519 
     58 O          22.2258  -32.6097  -38.6313 O.2       9 UNK        -0.4960 
     59 C59        20.3723  -31.1502  -40.6465 C.3       10 UNK        -0.0876 
     60 S60        18.7102  -31.3634  -39.9259 S.3       10 UNK        -0.2414 
     61 C61        17.7914  -32.1934  -41.2612 C.3       10 UNK         0.0169 
     62 H62        14.8277  -23.9598  -41.9988 H         1 UNK         0.0903 
     63 H63        15.5424  -22.3497  -41.8982 H         1 UNK         0.0903 
     64 H64        14.0870  -22.6116  -42.8634 H         1 UNK         0.0903 
     65 H65        15.9844  -25.3114  -43.3551 H         1 UNK         0.3096 
     66 H66        16.7632  -24.6016  -46.0219 H         1 UNK         0.1121 
     67 H67        17.6875  -26.8669  -46.1487 H         1 UNK         0.0849 
     68 H68        17.7260  -27.0391  -44.4192 H         1 UNK         0.0849 
     69 H69        15.7237  -27.8002  -42.9332 H         1 UNK         0.0865 
     70 H70        14.5637  -28.8690  -43.6761 H         1 UNK         0.0865 
     71 H71        16.2013  -30.0252  -41.7188 H         1 UNK         0.1346 
     72 H72        19.1086  -32.5315  -43.6250 H         1 UNK         0.1412 
     73 H73        17.1462  -29.4705  -45.8715 H         1 UNK         0.1426 
     74 H74        18.4678  -31.1329  -47.0179 H         1 UNK         0.0716 
     75 H75        19.0415  -32.5344  -46.1566 H         1 UNK         0.0716 
     76 H76        19.3303  -28.8042  -46.3324 H         1 UNK         0.0695 
     77 H77        20.6834  -28.7750  -47.4114 H         1 UNK         0.0695 
     78 H78        22.2267  -28.1919  -45.5758 H         1 UNK         0.0983 
     79 H79        20.0336  -26.5605  -46.4022 H         1 UNK         0.3095 
     80 H80        21.0750  -23.4618  -45.1813 H         1 UNK         0.0454 
     81 H81        22.4409  -23.6729  -47.2560 H         1 UNK         0.0851 
     82 H82        20.9374  -22.8285  -47.5805 H         1 UNK         0.0851 
     83 H83        21.1265  -24.5142  -48.0643 H         1 UNK         0.0851 
     84 H84        18.9297  -24.3932  -46.8852 H         1 UNK         0.2976 
     85 H85        19.8815  -26.5754  -43.6386 H         1 UNK         0.3116 
     86 H86        19.3763  -28.5980  -41.6809 H         1 UNK         0.0646 
     87 H87        17.8631  -26.6438  -42.0894 H         1 UNK         0.0847 
     88 H88        19.0849  -25.5743  -41.3944 H         1 UNK         0.0847 
     89 H89        18.3221  -26.8064  -40.4079 H         1 UNK         0.0847 
     90 H90        22.2902  -27.1198  -42.2763 H         1 UNK         0.3040 
     91 H91        23.3130  -26.5960  -39.6373 H         1 UNK         0.1015 
     92 H92        25.5200  -26.6574  -40.8289 H         1 UNK         0.0786 
     93 H93        24.3646  -25.6783  -41.7170 H         1 UNK         0.0786 
     94 H94        24.7430  -27.3103  -42.2656 H         1 UNK         0.0786 
     95 H95        24.5556  -27.9053  -38.3147 H         1 UNK         0.3172 
     96 H96        23.8061  -30.5660  -37.9964 H         1 UNK         0.0595 
     97 H97        26.2010  -29.0695  -36.8031 H         1 UNK         0.0839 
     98 H98        25.5241  -30.5662  -36.1778 H         1 UNK         0.0839 
     99 H99        24.5619  -29.1006  -36.1483 H         1 UNK         0.0839 
    100 H100       26.2962  -29.4094  -40.0710 H         1 UNK         0.2998 
    101 H101       27.9432  -31.7805  -40.1814 H         1 UNK         0.0822 
    102 H102       28.7909  -29.5410  -40.8634 H         1 UNK         0.0787 
    103 H103       28.8769  -30.6619  -42.2113 H         1 UNK         0.0787 
    104 H104       27.5962  -29.4587  -42.1598 H         1 UNK         0.0787 
    105 H105       24.8203  -30.9678  -41.5416 H         1 UNK         0.3055 
    106 H106       24.9337  -33.3630  -43.3491 H         1 UNK         0.1106 
    107 H107       24.9718  -31.3368  -44.7424 H         1 UNK         0.0828 
    108 H108       23.3889  -32.0900  -44.8629 H         1 UNK         0.0828 
    109 H109       23.6023  -30.6554  -43.8702 H         1 UNK         0.0828 
    110 H110       22.7924  -31.1832  -41.4301 H         1 UNK         0.2931 
    111 H111       20.6213  -33.1212  -41.4486 H         1 UNK         0.0412 
    112 H112       20.4295  -34.7982  -39.9644 H         1 UNK         0.3472 
    113 H113       21.1931  -34.8160  -38.3958 H         1 UNK         0.3472 
    114 H114       20.9189  -30.4359  -40.0287 H         1 UNK         0.0970 
    115 H115       20.2482  -30.6741  -41.6166 H         1 UNK         0.0970 
    116 H116       16.7903  -32.4237  -40.8943 H         1 UNK         0.0612 
    117 H117       18.2568  -33.1567  -41.4727 H         1 UNK         0.0612 
@<TRIPOS>BOND
     1    1    2 1    
     2    1   62 1    
     3    1   63 1    
     4    1   64 1    
     5    2    3 2    
     6    2    4 am   BACKBONE|DICT|INTERRES
     7    4    5 1    
     8    4   65 1    
     9    5    6 1    
    10    5   25 1    
    11    5   66 1    
    12    6    7 1    
    13    6   67 1    
    14    6   68 1    
    15    7    8 1    
    16    8    9 1    
    17    8   69 1    
    18    8   70 1    
    19    9   10 ar   
    20    9   14 ar   
    21   10   11 ar   
    22   10   71 1    
    23   11   12 ar   
    24   11   61 1    
    25   12   13 ar   
    26   12   72 1    
    27   13   14 ar   
    28   13   15 1    
    29   14   73 1    
    30   15   16 1    
    31   15   74 1    
    32   15   75 1    
    33   16   17 1    
    34   17   18 1    
    35   17   76 1    
    36   17   77 1    
    37   18   19 1    
    38   18   27 1    
    39   18   78 1    
    40   19   20 am   BACKBONE|DICT|INTERRES
    41   19   79 1    
    42   20   21 2    
    43   20   22 1    
    44   22   23 1    
    45   22   24 1    
    46   22   80 1    
    47   23   81 1    
    48   23   82 1    
    49   23   83 1    
    50   24   25 am   BACKBONE|DICT|INTERRES
    51   24   84 1    
    52   25   26 2    
    53   27   28 2    
    54   27   29 am   BACKBONE|DICT|INTERRES
    55   29   30 1    
    56   29   85 1    
    57   30   31 1    
    58   30   32 1    
    59   30   86 1    
    60   31   87 1    
    61   31   88 1    
    62   31   89 1    
    63   32   33 2    
    64   32   34 am   BACKBONE|DICT|INTERRES
    65   34   35 1    
    66   34   90 1    
    67   35   36 1    
    68   35   37 1    
    69   35   91 1    
    70   36   92 1    
    71   36   93 1    
    72   36   94 1    
    73   37   38 2    
    74   37   39 am   BACKBONE|DICT|INTERRES
    75   39   40 1    
    76   39   95 1    
    77   40   41 1    
    78   40   42 1    
    79   40   96 1    
    80   41   97 1    
    81   41   98 1    
    82   41   99 1    
    83   42   43 2    
    84   42   44 am   BACKBONE|DICT|INTERRES
    85   44   45 1    
    86   44  100 1    
    87   45   46 1    
    88   45   47 1    
    89   45  101 1    
    90   46  102 1    
    91   46  103 1    
    92   46  104 1    
    93   47   48 2    
    94   47   49 am   BACKBONE|DICT|INTERRES
    95   49   50 1    
    96   49  105 1    
    97   50   51 1    
    98   50   52 1    
    99   50  106 1    
   100   51  107 1    
   101   51  108 1    
   102   51  109 1    
   103   52   53 2    
   104   52   54 am   BACKBONE|DICT|INTERRES
   105   54   55 1    
   106   54  110 1    
   107   55   56 1    
   108   55   59 1    
   109   55  111 1    
   110   56   57 am   BACKBONE|DICT|INTERRES
   111   56   58 2    
   112   57  112 1    
   113   57  113 1    
   114   59   60 1    
   115   59  114 1    
   116   59  115 1    
   117   60   61 1    
   118   61  116 1    
   119   61  117 1    
@<TRIPOS>SUBSTRUCTURE
     1 UNK         1 GROUP             0       ****    0 ROOT    
