@<TRIPOS>MOLECULE
3R8
117   119    1
SMALL
USER_CHARGES


@<TRIPOS>ATOM
      1 CA         16.6195  -27.0359  -49.4050 C.3       0 UNK        -0.2013 
      2 C          16.8999  -27.2742  -47.9292 C.2       0 UNK         0.4866 
      3 O          17.8947  -27.9155  -47.5893 O.2       0 UNK        -0.5176 
      4 N          16.0388  -26.7548  -47.0453 N.am      1 UNK        -0.4884 
      5 CA         16.1287  -26.8852  -45.5849 C.3       1 UNK         0.0853 
      6 C6         14.7291  -26.7824  -44.9202 C.3       10 UNK        -0.0849 
      7 S7         13.7690  -28.3124  -45.1865 S.3       10 UNK        -0.2776 
      8 C8         13.9859  -29.1760  -43.5906 C.3       10 UNK         0.0316 
      9 C9         15.4547  -29.3468  -43.2209 C.ar      10 UNK        -0.0863 
     10 C10        16.2384  -30.3095  -43.8654 C.ar      10 UNK        -0.1009 
     11 C11        17.5974  -30.4291  -43.5634 C.ar      10 UNK        -0.0712 
     12 C12        18.1660  -29.5804  -42.6127 C.ar      10 UNK        -0.0894 
     13 C13        17.3936  -28.6311  -41.9342 C.ar      10 UNK        -0.0745 
     14 C14        16.0356  -28.5235  -42.2490 C.ar      10 UNK        -0.0972 
     15 C15        17.9900  -27.6955  -40.8796 C.3       10 UNK         0.0209 
     16 S16        19.4480  -28.3704  -40.0048 S.3       10 UNK        -0.2568 
     17 C17        20.7740  -27.2154  -40.4880 C.3       10 UNK        -0.0983 
     18 CA         21.2077  -27.3766  -41.9720 C.3       3 UNK         0.0876 
     19 N          20.5731  -26.3696  -42.8300 N.am      3 UNK        -0.4424 
     20 C          20.3919  -26.5103  -44.1477 C.2       2 UNK         0.4918 
     21 O          20.7898  -27.4754  -44.8001 O.2       2 UNK        -0.4875 
     22 CA         19.5994  -25.4067  -44.8549 C.3       2 UNK         0.0481 
     23 CB         20.4302  -24.7604  -45.9754 C.3       2 UNK        -0.1831 
     24 N          18.4182  -26.0396  -45.4293 N.am      2 UNK        -0.4498 
     25 C          17.1642  -25.9084  -44.9843 C.2       1 UNK         0.5027 
     26 O          16.8235  -25.0760  -44.1414 O.2       1 UNK        -0.4969 
     27 C          22.7399  -27.4182  -42.1241 C.2       3 UNK         0.5005 
     28 O          23.3248  -28.4847  -41.9195 O.2       3 UNK        -0.5279 
     29 N          23.3611  -26.2763  -42.4612 N.am      4 UNK        -0.4463 
     30 CA         24.8095  -26.0867  -42.6332 C.3       4 UNK         0.0283 
     31 CB         25.3048  -26.8386  -43.8880 C.3       4 UNK        -0.1875 
     32 C          25.6060  -26.4493  -41.3620 C.2       4 UNK         0.4949 
     33 O          26.5843  -27.1917  -41.4370 O.2       4 UNK        -0.5039 
     34 N          25.1335  -25.9409  -40.2123 N.am      5 UNK        -0.4663 
     35 CA         25.6084  -26.2392  -38.8512 C.3       5 UNK         0.0242 
     36 CB         27.0652  -25.7682  -38.6462 C.3       5 UNK        -0.1982 
     37 C          25.3827  -27.7140  -38.4541 C.2       5 UNK         0.5017 
     38 O          26.2383  -28.3194  -37.8065 O.2       5 UNK        -0.5012 
     39 N          24.2173  -28.2470  -38.8532 N.am      6 UNK        -0.4439 
     40 CA         23.7355  -29.6210  -38.6600 C.3       6 UNK         0.0297 
     41 CB         23.4892  -29.9181  -37.1657 C.3       6 UNK        -0.2006 
     42 C          24.6343  -30.6658  -39.3494 C.2       6 UNK         0.4892 
     43 O          24.9736  -31.6873  -38.7483 O.2       6 UNK        -0.5089 
     44 N          25.0062  -30.3752  -40.6015 N.am      7 UNK        -0.4243 
     45 CA         25.8047  -31.2457  -41.4634 C.3       7 UNK         0.0196 
     46 CB         26.9800  -30.4458  -42.0464 C.3       7 UNK        -0.2007 
     47 C          24.9593  -31.8435  -42.5959 C.2       7 UNK         0.5020 
     48 O          25.2357  -32.9689  -43.0117 O.2       7 UNK        -0.5147 
     49 N          23.9567  -31.0987  -43.0872 N.am      8 UNK        -0.4734 
     50 CA         23.0830  -31.5353  -44.1820 C.3       8 UNK         0.0238 
     51 CB         22.3780  -30.3150  -44.7899 C.3       8 UNK        -0.1912 
     52 C          22.0538  -32.5860  -43.7350 C.2       8 UNK         0.5038 
     53 O          21.7751  -33.5185  -44.4891 O.2       8 UNK        -0.5046 
     54 N          21.5293  -32.4128  -42.5181 N.am      9 UNK        -0.4200 
     55 CA         20.6312  -33.3335  -41.8152 C.3       9 UNK         0.0839 
     56 C          21.0980  -33.4395  -40.3421 C.2       9 UNK         0.5513 
     57 N          20.9479  -34.6032  -39.7259 N.am      9 UNK        -0.7519 
     58 O          21.5620  -32.4690  -39.7460 O.2       9 UNK        -0.4960 
     59 C59        19.1455  -32.8854  -41.8842 C.3       10 UNK        -0.0876 
     60 S60        18.3746  -33.1089  -43.5269 S.3       10 UNK        -0.2414 
     61 C61        18.4688  -31.4512  -44.2787 C.3       10 UNK         0.0169 
     62 H62        17.4480  -26.4951  -49.8615 H         1 UNK         0.0903 
     63 H63        15.7094  -26.4565  -49.5596 H         1 UNK         0.0903 
     64 H64        16.5071  -27.9879  -49.9231 H         1 UNK         0.0903 
     65 H65        15.2495  -26.2221  -47.3833 H         1 UNK         0.3096 
     66 H66        16.5254  -27.8778  -45.3609 H         1 UNK         0.1121 
     67 H67        14.1716  -25.9343  -45.3210 H         1 UNK         0.0849 
     68 H68        14.7975  -26.6031  -43.8466 H         1 UNK         0.0849 
     69 H69        13.4540  -28.6272  -42.8118 H         1 UNK         0.0865 
     70 H70        13.5092  -30.1556  -43.6490 H         1 UNK         0.0865 
     71 H71        15.7954  -30.9511  -44.6151 H         1 UNK         0.1346 
     72 H72        19.2160  -29.6858  -42.3968 H         1 UNK         0.1412 
     73 H73        15.4303  -27.7820  -41.7450 H         1 UNK         0.1426 
     74 H74        18.2347  -26.7447  -41.3527 H         1 UNK         0.0716 
     75 H75        17.2340  -27.4715  -40.1255 H         1 UNK         0.0716 
     76 H76        21.5968  -27.4147  -39.8002 H         1 UNK         0.0695 
     77 H77        20.4616  -26.1936  -40.2656 H         1 UNK         0.0695 
     78 H78        20.8886  -28.3561  -42.3236 H         1 UNK         0.0983 
     79 H79        20.2053  -25.5484  -42.3718 H         1 UNK         0.3095 
     80 H80        19.3214  -24.6328  -44.1365 H         1 UNK         0.0454 
     81 H81        19.8640  -23.9819  -46.4867 H         1 UNK         0.0851 
     82 H82        20.7430  -25.4904  -46.7234 H         1 UNK         0.0851 
     83 H83        21.3321  -24.2964  -45.5746 H         1 UNK         0.0851 
     84 H84        18.5939  -26.7683  -46.1167 H         1 UNK         0.2976 
     85 H85        22.7896  -25.4555  -42.6049 H         1 UNK         0.3116 
     86 H86        24.9700  -25.0210  -42.8026 H         1 UNK         0.0646 
     87 H87        24.7521  -26.5336  -44.7763 H         1 UNK         0.0847 
     88 H88        26.3593  -26.6333  -44.0764 H         1 UNK         0.0847 
     89 H89        25.1985  -27.9187  -43.7848 H         1 UNK         0.0847 
     90 H90        24.3335  -25.3252  -40.2701 H         1 UNK         0.3040 
     91 H91        24.9842  -25.6532  -38.1743 H         1 UNK         0.1015 
     92 H92        27.1888  -24.7235  -38.9311 H         1 UNK         0.0786 
     93 H93        27.7718  -26.3612  -39.2274 H         1 UNK         0.0786 
     94 H94        27.3582  -25.8541  -37.5990 H         1 UNK         0.0786 
     95 H95        23.6251  -27.6601  -39.4203 H         1 UNK         0.3172 
     96 H96        22.7697  -29.6797  -39.1652 H         1 UNK         0.0595 
     97 H97        22.8252  -29.1789  -36.7179 H         1 UNK         0.0839 
     98 H98        24.4177  -29.9278  -36.5943 H         1 UNK         0.0839 
     99 H99        23.0189  -30.8940  -37.0380 H         1 UNK         0.0839 
    100 H100       24.6430  -29.5235  -41.0209 H         1 UNK         0.2998 
    101 H101       26.2167  -32.0765  -40.8866 H         1 UNK         0.0822 
    102 H102       27.5967  -30.0163  -41.2565 H         1 UNK         0.0787 
    103 H103       27.6239  -31.0834  -42.6536 H         1 UNK         0.0787 
    104 H104       26.6370  -29.6285  -42.6814 H         1 UNK         0.0787 
    105 H105       23.7836  -30.1751  -42.6993 H         1 UNK         0.3055 
    106 H106       23.7033  -31.9895  -44.9585 H         1 UNK         0.1106 
    107 H107       23.0930  -29.5671  -45.1333 H         1 UNK         0.0828 
    108 H108       21.7693  -30.6007  -45.6487 H         1 UNK         0.0828 
    109 H109       21.7163  -29.8371  -44.0687 H         1 UNK         0.0828 
    110 H110       21.8786  -31.6562  -41.9463 H         1 UNK         0.2931 
    111 H111       20.7203  -34.3276  -42.2586 H         1 UNK         0.0412 
    112 H112       20.5588  -35.4019  -40.2034 H         1 UNK         0.3472 
    113 H113       21.2348  -34.6865  -38.7629 H         1 UNK         0.3472 
    114 H114       18.5468  -33.4814  -41.1925 H         1 UNK         0.0970 
    115 H115       19.0379  -31.8586  -41.5390 H         1 UNK         0.0970 
    116 H116       18.1584  -31.5242  -45.3220 H         1 UNK         0.0612 
    117 H117       19.5069  -31.1200  -44.2979 H         1 UNK         0.0612 
@<TRIPOS>BOND
     1    1    2 1    
     2    1   62 1    
     3    1   63 1    
     4    1   64 1    
     5    2    3 2    
     6    2    4 am   BACKBONE|DICT|INTERRES
     7    4    5 1    
     8    4   65 1    
     9    5    6 1    
    10    5   25 1    
    11    5   66 1    
    12    6    7 1    
    13    6   67 1    
    14    6   68 1    
    15    7    8 1    
    16    8    9 1    
    17    8   69 1    
    18    8   70 1    
    19    9   10 ar   
    20    9   14 ar   
    21   10   11 ar   
    22   10   71 1    
    23   11   12 ar   
    24   11   61 1    
    25   12   13 ar   
    26   12   72 1    
    27   13   14 ar   
    28   13   15 1    
    29   14   73 1    
    30   15   16 1    
    31   15   74 1    
    32   15   75 1    
    33   16   17 1    
    34   17   18 1    
    35   17   76 1    
    36   17   77 1    
    37   18   19 1    
    38   18   27 1    
    39   18   78 1    
    40   19   20 am   BACKBONE|DICT|INTERRES
    41   19   79 1    
    42   20   21 2    
    43   20   22 1    
    44   22   23 1    
    45   22   24 1    
    46   22   80 1    
    47   23   81 1    
    48   23   82 1    
    49   23   83 1    
    50   24   25 am   BACKBONE|DICT|INTERRES
    51   24   84 1    
    52   25   26 2    
    53   27   28 2    
    54   27   29 am   BACKBONE|DICT|INTERRES
    55   29   30 1    
    56   29   85 1    
    57   30   31 1    
    58   30   32 1    
    59   30   86 1    
    60   31   87 1    
    61   31   88 1    
    62   31   89 1    
    63   32   33 2    
    64   32   34 am   BACKBONE|DICT|INTERRES
    65   34   35 1    
    66   34   90 1    
    67   35   36 1    
    68   35   37 1    
    69   35   91 1    
    70   36   92 1    
    71   36   93 1    
    72   36   94 1    
    73   37   38 2    
    74   37   39 am   BACKBONE|DICT|INTERRES
    75   39   40 1    
    76   39   95 1    
    77   40   41 1    
    78   40   42 1    
    79   40   96 1    
    80   41   97 1    
    81   41   98 1    
    82   41   99 1    
    83   42   43 2    
    84   42   44 am   BACKBONE|DICT|INTERRES
    85   44   45 1    
    86   44  100 1    
    87   45   46 1    
    88   45   47 1    
    89   45  101 1    
    90   46  102 1    
    91   46  103 1    
    92   46  104 1    
    93   47   48 2    
    94   47   49 am   BACKBONE|DICT|INTERRES
    95   49   50 1    
    96   49  105 1    
    97   50   51 1    
    98   50   52 1    
    99   50  106 1    
   100   51  107 1    
   101   51  108 1    
   102   51  109 1    
   103   52   53 2    
   104   52   54 am   BACKBONE|DICT|INTERRES
   105   54   55 1    
   106   54  110 1    
   107   55   56 1    
   108   55   59 1    
   109   55  111 1    
   110   56   57 am   BACKBONE|DICT|INTERRES
   111   56   58 2    
   112   57  112 1    
   113   57  113 1    
   114   59   60 1    
   115   59  114 1    
   116   59  115 1    
   117   60   61 1    
   118   61  116 1    
   119   61  117 1    
@<TRIPOS>SUBSTRUCTURE
     1 UNK         1 GROUP             0       ****    0 ROOT    
