@<TRIPOS>MOLECULE
3R8
117   119    1
SMALL
USER_CHARGES


@<TRIPOS>ATOM
      1 CA         18.9543  -32.5461  -48.2947 C.3       0 UNK        -0.2013 
      2 C          18.7309  -31.0612  -48.0517 C.2       0 UNK         0.4866 
      3 O          18.8085  -30.2705  -48.9919 O.2       0 UNK        -0.5176 
      4 N          18.4709  -30.6837  -46.7931 N.am      1 UNK        -0.4884 
      5 CA         18.2409  -29.3131  -46.3088 C.3       1 UNK         0.0853 
      6 C6         16.9936  -28.6204  -46.9195 C.3       10 UNK        -0.0849 
      7 S7         15.4656  -29.4501  -46.3747 S.3       10 UNK        -0.2776 
      8 C8         14.7978  -28.2317  -45.1954 C.3       10 UNK         0.0316 
      9 C9         15.6818  -28.0297  -43.9677 C.ar      10 UNK        -0.0863 
     10 C10        15.7754  -29.0318  -42.9971 C.ar      10 UNK        -0.1009 
     11 C11        16.4871  -28.8090  -41.8148 C.ar      10 UNK        -0.0712 
     12 C12        17.1086  -27.5749  -41.6088 C.ar      10 UNK        -0.0894 
     13 C13        17.0570  -26.5712  -42.5836 C.ar      10 UNK        -0.0745 
     14 C14        16.3423  -26.8120  -43.7631 C.ar      10 UNK        -0.0972 
     15 C15        17.6743  -25.1899  -42.3514 C.3       10 UNK         0.0209 
     16 S16        19.1292  -25.1650  -41.2416 S.3       10 UNK        -0.2568 
     17 C17        20.5046  -25.5192  -42.3863 C.3       10 UNK        -0.0983 
     18 CA         20.8103  -27.0299  -42.5511 C.3       3 UNK         0.0876 
     19 N          21.3993  -27.2752  -43.8750 N.am      3 UNK        -0.4424 
     20 C          21.9170  -28.4064  -44.3720 C.2       2 UNK         0.4918 
     21 O          22.2066  -29.4080  -43.7210 O.2       2 UNK        -0.4875 
     22 CA         21.9513  -28.4800  -45.9064 C.3       2 UNK         0.0481 
     23 CB         23.1141  -29.3325  -46.4390 C.3       2 UNK        -0.1831 
     24 N          20.6860  -29.0834  -46.3176 N.am      2 UNK        -0.4498 
     25 C          19.5110  -28.4376  -46.3415 C.2       1 UNK         0.5027 
     26 O          19.4179  -27.2092  -46.3007 O.2       1 UNK        -0.4969 
     27 C          21.5846  -27.6010  -41.3410 C.2       3 UNK         0.5005 
     28 O          22.7873  -27.8507  -41.4273 O.2       3 UNK        -0.5279 
     29 N          20.8676  -27.7835  -40.2227 N.am      4 UNK        -0.4463 
     30 CA         21.2892  -28.4582  -38.9888 C.3       4 UNK         0.0283 
     31 CB         20.2315  -28.2304  -37.8967 C.3       4 UNK        -0.1875 
     32 C          22.6839  -28.0774  -38.4641 C.2       4 UNK         0.4949 
     33 O          23.4596  -28.9642  -38.1081 O.2       4 UNK        -0.5039 
     34 N          22.9816  -26.7726  -38.4583 N.am      5 UNK        -0.4663 
     35 CA         24.2644  -26.2178  -38.0197 C.3       5 UNK         0.0242 
     36 CB         24.0604  -24.7381  -37.6534 C.3       5 UNK        -0.1982 
     37 C          25.3965  -26.3612  -39.0552 C.2       5 UNK         0.5017 
     38 O          26.5596  -26.2005  -38.6828 O.2       5 UNK        -0.5012 
     39 N          25.0530  -26.6270  -40.3224 N.am      6 UNK        -0.4439 
     40 CA         25.9904  -26.7433  -41.4370 C.3       6 UNK         0.0297 
     41 CB         25.3972  -26.0697  -42.6879 C.3       6 UNK        -0.2006 
     42 C          26.3413  -28.2093  -41.7211 C.2       6 UNK         0.4892 
     43 O          27.5279  -28.5358  -41.7763 O.2       6 UNK        -0.5089 
     44 N          25.3231  -29.0610  -41.9110 N.am      7 UNK        -0.4243 
     45 CA         25.4957  -30.4540  -42.3337 C.3       7 UNK         0.0196 
     46 CB         25.7703  -30.5196  -43.8497 C.3       7 UNK        -0.2007 
     47 C          24.3241  -31.3517  -41.9051 C.2       7 UNK         0.5020 
     48 O          23.9563  -32.2661  -42.6453 O.2       7 UNK        -0.5147 
     49 N          23.7716  -31.1050  -40.7075 N.am      8 UNK        -0.4734 
     50 CA         22.7835  -31.9514  -40.0168 C.3       8 UNK         0.0238 
     51 CB         23.4428  -33.2741  -39.5676 C.3       8 UNK        -0.1912 
     52 C          21.4708  -32.1874  -40.7985 C.2       8 UNK         0.5038 
     53 O          20.8588  -33.2460  -40.6450 O.2       8 UNK        -0.5046 
     54 N          21.0686  -31.2041  -41.6154 N.am      9 UNK        -0.4200 
     55 CA         19.9015  -31.2305  -42.5176 C.3       9 UNK         0.0839 
     56 C          20.1084  -32.0968  -43.7960 C.2       9 UNK         0.5513 
     57 N          21.3107  -32.5691  -44.1029 N.am      9 UNK        -0.7519 
     58 O          19.1645  -32.3119  -44.5527 O.2       9 UNK        -0.4960 
     59 C59        18.5462  -31.5337  -41.8135 C.3       10 UNK        -0.0876 
     60 S60        18.2207  -30.4496  -40.3822 S.3       10 UNK        -0.2414 
     61 C61        16.5295  -29.8691  -40.7233 C.3       10 UNK         0.0169 
     62 H62        18.8790  -33.1251  -47.3740 H         1 UNK         0.0903 
     63 H63        18.2125  -32.9268  -48.9961 H         1 UNK         0.0903 
     64 H64        19.9437  -32.7128  -48.7197 H         1 UNK         0.0903 
     65 H65        18.4778  -31.3917  -46.0608 H         1 UNK         0.3096 
     66 H66        18.0448  -29.4227  -45.2403 H         1 UNK         0.1121 
     67 H67        16.9362  -27.5701  -46.6300 H         1 UNK         0.0849 
     68 H68        17.0329  -28.6219  -48.0091 H         1 UNK         0.0849 
     69 H69        14.6303  -27.2863  -45.7139 H         1 UNK         0.0865 
     70 H70        13.8132  -28.5692  -44.8683 H         1 UNK         0.0865 
     71 H71        15.2621  -29.9716  -43.1499 H         1 UNK         0.1346 
     72 H72        17.6132  -27.3986  -40.6700 H         1 UNK         0.1412 
     73 H73        16.2631  -26.0298  -44.5062 H         1 UNK         0.1426 
     74 H74        16.9058  -24.5555  -41.9083 H         1 UNK         0.0716 
     75 H75        17.9374  -24.7253  -43.3028 H         1 UNK         0.0716 
     76 H76        20.2489  -25.0715  -43.3481 H         1 UNK         0.0695 
     77 H77        21.3915  -24.9794  -42.0477 H         1 UNK         0.0695 
     78 H78        19.8617  -27.5688  -42.5851 H         1 UNK         0.0983 
     79 H79        21.1907  -26.5575  -44.5541 H         1 UNK         0.3095 
     80 H80        22.0417  -27.4750  -46.3242 H         1 UNK         0.0454 
     81 H81        23.0984  -30.3464  -46.0363 H         1 UNK         0.0851 
     82 H82        23.0832  -29.4064  -47.5260 H         1 UNK         0.0851 
     83 H83        24.0717  -28.8834  -46.1751 H         1 UNK         0.0851 
     84 H84        20.6607  -30.0929  -46.3400 H         1 UNK         0.2976 
     85 H85        19.9042  -27.4811  -40.2414 H         1 UNK         0.3116 
     86 H86        21.3020  -29.5229  -39.2134 H         1 UNK         0.0646 
     87 H87        20.5083  -28.7389  -36.9720 H         1 UNK         0.0847 
     88 H88        19.2576  -28.6185  -38.1943 H         1 UNK         0.0847 
     89 H89        20.1120  -27.1718  -37.6628 H         1 UNK         0.0847 
     90 H90        22.2861  -26.1186  -38.7881 H         1 UNK         0.3040 
     91 H91        24.5834  -26.7505  -37.1207 H         1 UNK         0.1015 
     92 H92        23.3145  -24.6227  -36.8667 H         1 UNK         0.0786 
     93 H93        23.7374  -24.1499  -38.5134 H         1 UNK         0.0786 
     94 H94        24.9868  -24.2946  -37.2852 H         1 UNK         0.0786 
     95 H95        24.0836  -26.8512  -40.5327 H         1 UNK         0.3172 
     96 H96        26.9173  -26.2186  -41.1952 H         1 UNK         0.0595 
     97 H97        25.1971  -25.0132  -42.5094 H         1 UNK         0.0839 
     98 H98        24.4642  -26.5356  -43.0062 H         1 UNK         0.0839 
     99 H99        26.0915  -26.1300  -43.5270 H         1 UNK         0.0839 
    100 H100       24.3652  -28.7162  -41.8437 H         1 UNK         0.2998 
    101 H101       26.3682  -30.8631  -41.8199 H         1 UNK         0.0822 
    102 H102       26.6362  -29.9212  -44.1321 H         1 UNK         0.0787 
    103 H103       25.9687  -31.5422  -44.1730 H         1 UNK         0.0787 
    104 H104       24.9123  -30.1589  -44.4128 H         1 UNK         0.0787 
    105 H105       24.1163  -30.3149  -40.1766 H         1 UNK         0.3055 
    106 H106       22.5019  -31.4206  -39.1077 H         1 UNK         0.1106 
    107 H107       23.7010  -33.9061  -40.4180 H         1 UNK         0.0828 
    108 H108       24.3529  -33.0907  -38.9966 H         1 UNK         0.0828 
    109 H109       22.7738  -33.8498  -38.9268 H         1 UNK         0.0828 
    110 H110       21.6950  -30.4224  -41.7611 H         1 UNK         0.2931 
    111 H111       19.8213  -30.2108  -42.8939 H         1 UNK         0.0412 
    112 H112       22.1142  -32.3684  -43.5161 H         1 UNK         0.3472 
    113 H113       21.4263  -33.1253  -44.9338 H         1 UNK         0.3472 
    114 H114       18.5050  -32.5705  -41.4777 H         1 UNK         0.0970 
    115 H115       17.7271  -31.4249  -42.5265 H         1 UNK         0.0970 
    116 H116       15.8975  -30.7224  -40.9743 H         1 UNK         0.0612 
    117 H117       16.1179  -29.4440  -39.8069 H         1 UNK         0.0612 
@<TRIPOS>BOND
     1    1    2 1    
     2    1   62 1    
     3    1   63 1    
     4    1   64 1    
     5    2    3 2    
     6    2    4 am   BACKBONE|DICT|INTERRES
     7    4    5 1    
     8    4   65 1    
     9    5    6 1    
    10    5   25 1    
    11    5   66 1    
    12    6    7 1    
    13    6   67 1    
    14    6   68 1    
    15    7    8 1    
    16    8    9 1    
    17    8   69 1    
    18    8   70 1    
    19    9   10 ar   
    20    9   14 ar   
    21   10   11 ar   
    22   10   71 1    
    23   11   12 ar   
    24   11   61 1    
    25   12   13 ar   
    26   12   72 1    
    27   13   14 ar   
    28   13   15 1    
    29   14   73 1    
    30   15   16 1    
    31   15   74 1    
    32   15   75 1    
    33   16   17 1    
    34   17   18 1    
    35   17   76 1    
    36   17   77 1    
    37   18   19 1    
    38   18   27 1    
    39   18   78 1    
    40   19   20 am   BACKBONE|DICT|INTERRES
    41   19   79 1    
    42   20   21 2    
    43   20   22 1    
    44   22   23 1    
    45   22   24 1    
    46   22   80 1    
    47   23   81 1    
    48   23   82 1    
    49   23   83 1    
    50   24   25 am   BACKBONE|DICT|INTERRES
    51   24   84 1    
    52   25   26 2    
    53   27   28 2    
    54   27   29 am   BACKBONE|DICT|INTERRES
    55   29   30 1    
    56   29   85 1    
    57   30   31 1    
    58   30   32 1    
    59   30   86 1    
    60   31   87 1    
    61   31   88 1    
    62   31   89 1    
    63   32   33 2    
    64   32   34 am   BACKBONE|DICT|INTERRES
    65   34   35 1    
    66   34   90 1    
    67   35   36 1    
    68   35   37 1    
    69   35   91 1    
    70   36   92 1    
    71   36   93 1    
    72   36   94 1    
    73   37   38 2    
    74   37   39 am   BACKBONE|DICT|INTERRES
    75   39   40 1    
    76   39   95 1    
    77   40   41 1    
    78   40   42 1    
    79   40   96 1    
    80   41   97 1    
    81   41   98 1    
    82   41   99 1    
    83   42   43 2    
    84   42   44 am   BACKBONE|DICT|INTERRES
    85   44   45 1    
    86   44  100 1    
    87   45   46 1    
    88   45   47 1    
    89   45  101 1    
    90   46  102 1    
    91   46  103 1    
    92   46  104 1    
    93   47   48 2    
    94   47   49 am   BACKBONE|DICT|INTERRES
    95   49   50 1    
    96   49  105 1    
    97   50   51 1    
    98   50   52 1    
    99   50  106 1    
   100   51  107 1    
   101   51  108 1    
   102   51  109 1    
   103   52   53 2    
   104   52   54 am   BACKBONE|DICT|INTERRES
   105   54   55 1    
   106   54  110 1    
   107   55   56 1    
   108   55   59 1    
   109   55  111 1    
   110   56   57 am   BACKBONE|DICT|INTERRES
   111   56   58 2    
   112   57  112 1    
   113   57  113 1    
   114   59   60 1    
   115   59  114 1    
   116   59  115 1    
   117   60   61 1    
   118   61  116 1    
   119   61  117 1    
@<TRIPOS>SUBSTRUCTURE
     1 UNK         1 GROUP             0       ****    0 ROOT    
