@<TRIPOS>MOLECULE
3R8
117   119    1
SMALL
USER_CHARGES


@<TRIPOS>ATOM
      1 CA         18.5229  -20.9061  -42.1304 C.3       0 UNK        -0.2013 
      2 C          17.9481  -22.0366  -42.9706 C.2       0 UNK         0.4866 
      3 O          17.0290  -21.8072  -43.7579 O.2       0 UNK        -0.5176 
      4 N          18.4788  -23.2540  -42.8058 N.am      1 UNK        -0.4884 
      5 CA         18.1198  -24.4355  -43.5982 C.3       1 UNK         0.0853 
      6 C6         18.3373  -25.7438  -42.7876 C.3       10 UNK        -0.0849 
      7 S7         17.0894  -27.0098  -43.1992 S.3       10 UNK        -0.2776 
      8 C8         17.7004  -28.4521  -42.2572 C.3       10 UNK         0.0316 
      9 C9         18.4504  -29.5033  -43.0792 C.ar      10 UNK        -0.0863 
     10 C10        18.5197  -30.8094  -42.5849 C.ar      10 UNK        -0.1009 
     11 C11        19.2092  -31.8069  -43.2803 C.ar      10 UNK        -0.0712 
     12 C12        19.8334  -31.4951  -44.4917 C.ar      10 UNK        -0.0894 
     13 C13        19.7625  -30.1995  -45.0101 C.ar      10 UNK        -0.0745 
     14 C14        19.0750  -29.2106  -44.2984 C.ar      10 UNK        -0.0972 
     15 C15        20.3860  -29.8760  -46.3622 C.3       10 UNK         0.0209 
     16 S16        22.2009  -29.6989  -46.3225 S.3       10 UNK        -0.2568 
     17 C17        22.5059  -28.4808  -44.9990 C.3       10 UNK        -0.0983 
     18 CA         22.4322  -26.9962  -45.4515 C.3       3 UNK         0.0876 
     19 N          21.0691  -26.6213  -45.8415 N.am      3 UNK        -0.4424 
     20 C          20.6999  -26.0519  -46.9954 C.2       2 UNK         0.4918 
     21 O          21.4680  -25.8359  -47.9321 O.2       2 UNK        -0.4875 
     22 CA         19.2230  -25.6123  -47.1120 C.3       2 UNK         0.0481 
     23 CB         18.4097  -26.6180  -47.9426 C.3       2 UNK        -0.1831 
     24 N          18.5509  -25.3930  -45.8223 N.am      2 UNK        -0.4498 
     25 C          18.8950  -24.4498  -44.9341 C.2       1 UNK         0.5027 
     26 O          19.8225  -23.6591  -45.1258 O.2       1 UNK        -0.4969 
     27 C          22.9364  -26.0435  -44.3376 C.2       3 UNK         0.5005 
     28 O          23.7983  -26.4323  -43.5476 O.2       3 UNK        -0.5279 
     29 N          22.3639  -24.8296  -44.2485 N.am      4 UNK        -0.4463 
     30 CA         22.4998  -23.8103  -43.1955 C.3       4 UNK         0.0283 
     31 CB         23.9625  -23.3863  -42.9577 C.3       4 UNK        -0.1875 
     32 C          21.7995  -24.2099  -41.8856 C.2       4 UNK         0.4949 
     33 O          20.9924  -23.4367  -41.3698 O.2       4 UNK        -0.5039 
     34 N          22.0733  -25.4224  -41.4036 N.am      5 UNK        -0.4663 
     35 CA         21.4432  -26.0626  -40.2528 C.3       5 UNK         0.0242 
     36 CB         22.3241  -25.8374  -39.0083 C.3       5 UNK        -0.1982 
     37 C          21.2456  -27.5522  -40.5740 C.2       5 UNK         0.5017 
     38 O          21.4294  -27.9582  -41.7230 O.2       5 UNK        -0.5012 
     39 N          20.8774  -28.3505  -39.5641 N.am      6 UNK        -0.4439 
     40 CA         20.8134  -29.8102  -39.6543 C.3       6 UNK         0.0297 
     41 CB         19.9574  -30.3589  -38.4995 C.3       6 UNK        -0.2006 
     42 C          22.2356  -30.3968  -39.6540 C.2       6 UNK         0.4892 
     43 O          22.7918  -30.6639  -38.5861 O.2       6 UNK        -0.5089 
     44 N          22.8170  -30.5305  -40.8518 N.am      7 UNK        -0.4243 
     45 CA         24.1817  -30.9975  -41.1014 C.3       7 UNK         0.0196 
     46 CB         24.5966  -30.5600  -42.5176 C.3       7 UNK        -0.2007 
     47 C          24.3255  -32.5155  -40.8843 C.2       7 UNK         0.5020 
     48 O          24.4929  -33.2661  -41.8477 O.2       7 UNK        -0.5147 
     49 N          24.2273  -32.9382  -39.6165 N.am      8 UNK        -0.4734 
     50 CA         24.2734  -34.3076  -39.0790 C.3       8 UNK         0.0238 
     51 CB         25.6001  -35.0166  -39.4169 C.3       8 UNK        -0.1912 
     52 C          23.0582  -35.1674  -39.4674 C.2       8 UNK         0.5038 
     53 O          22.4353  -35.7565  -38.5834 O.2       8 UNK        -0.5046 
     54 N          22.7327  -35.1967  -40.7648 N.am      9 UNK        -0.4200 
     55 CA         21.5384  -35.8156  -41.3640 C.3       9 UNK         0.0839 
     56 C          21.4787  -37.3700  -41.2606 C.2       9 UNK         0.5513 
     57 N          22.5873  -38.0567  -41.0111 N.am      9 UNK        -0.7519 
     58 O          20.4214  -37.9693  -41.4413 O.2       9 UNK        -0.4960 
     59 C59        20.2195  -35.1254  -40.9092 C.3       10 UNK        -0.0876 
     60 S60        20.2380  -33.3237  -41.2101 S.3       10 UNK        -0.2414 
     61 C61        19.2523  -33.2253  -42.7331 C.3       10 UNK         0.0169 
     62 H62        17.7349  -20.4363  -41.5425 H         1 UNK         0.0903 
     63 H63        19.2923  -21.2590  -41.4438 H         1 UNK         0.0903 
     64 H64        18.9662  -20.1481  -42.7755 H         1 UNK         0.0903 
     65 H65        19.2848  -23.3558  -42.1930 H         1 UNK         0.3096 
     66 H66        17.0591  -24.3504  -43.8475 H         1 UNK         0.1121 
     67 H67        19.3441  -26.1485  -42.9134 H         1 UNK         0.0849 
     68 H68        18.2334  -25.5446  -41.7194 H         1 UNK         0.0849 
     69 H69        18.3403  -28.1198  -41.4391 H         1 UNK         0.0865 
     70 H70        16.8337  -28.9215  -41.7892 H         1 UNK         0.0865 
     71 H71        18.0408  -31.0554  -41.6466 H         1 UNK         0.1346 
     72 H72        20.3625  -32.2616  -45.0413 H         1 UNK         0.1412 
     73 H73        19.0218  -28.2144  -44.7060 H         1 UNK         0.1426 
     74 H74        19.9522  -28.9692  -46.7777 H         1 UNK         0.0716 
     75 H75        20.1345  -30.6688  -47.0680 H         1 UNK         0.0716 
     76 H76        23.5068  -28.7082  -44.6304 H         1 UNK         0.0695 
     77 H77        21.8372  -28.6709  -44.1608 H         1 UNK         0.0695 
     78 H78        23.1140  -26.8644  -46.2943 H         1 UNK         0.0983 
     79 H79        20.3684  -26.7423  -45.1280 H         1 UNK         0.3095 
     80 H80        19.2214  -24.6612  -47.6486 H         1 UNK         0.0454 
     81 H81        18.9162  -26.8582  -48.8787 H         1 UNK         0.0851 
     82 H82        17.4327  -26.2111  -48.2039 H         1 UNK         0.0851 
     83 H83        18.2450  -27.5533  -47.4086 H         1 UNK         0.0851 
     84 H84        17.7789  -26.0072  -45.5989 H         1 UNK         0.2976 
     85 H85        21.6463  -24.6028  -44.9291 H         1 UNK         0.3116 
     86 H86        21.9728  -22.9330  -43.5742 H         1 UNK         0.0646 
     87 H87        24.5584  -24.1831  -42.5124 H         1 UNK         0.0847 
     88 H88        24.0099  -22.5350  -42.2776 H         1 UNK         0.0847 
     89 H89        24.4446  -23.0856  -43.8877 H         1 UNK         0.0847 
     90 H90        22.6874  -26.0221  -41.9510 H         1 UNK         0.3040 
     91 H91        20.4542  -25.6311  -40.0836 H         1 UNK         0.1015 
     92 H92        23.2899  -26.3357  -39.1046 H         1 UNK         0.0786 
     93 H93        21.8468  -26.2131  -38.1030 H         1 UNK         0.0786 
     94 H94        22.5135  -24.7758  -38.8476 H         1 UNK         0.0786 
     95 H95        20.7673  -27.9517  -38.6430 H         1 UNK         0.3172 
     96 H96        20.3268  -30.0893  -40.5902 H         1 UNK         0.0595 
     97 H97        20.3634  -30.0876  -37.5243 H         1 UNK         0.0839 
     98 H98        19.9077  -31.4480  -38.5401 H         1 UNK         0.0839 
     99 H99        18.9343  -29.9869  -38.5539 H         1 UNK         0.0839 
    100 H100       22.2864  -30.2401  -41.6628 H         1 UNK         0.2998 
    101 H101       24.8509  -30.5030  -40.3940 H         1 UNK         0.0822 
    102 H102       24.5841  -29.4737  -42.6114 H         1 UNK         0.0787 
    103 H103       25.6091  -30.8924  -42.7503 H         1 UNK         0.0787 
    104 H104       23.9328  -30.9715  -43.2796 H         1 UNK         0.0787 
    105 H105       23.9765  -32.2226  -38.9386 H         1 UNK         0.3055 
    106 H106       24.2349  -34.1954  -37.9939 H         1 UNK         0.1106 
    107 H107       25.6545  -35.9897  -38.9270 H         1 UNK         0.0828 
    108 H108       25.7165  -35.1883  -40.4872 H         1 UNK         0.0828 
    109 H109       26.4569  -34.4354  -39.0764 H         1 UNK         0.0828 
    110 H110       23.3179  -34.6541  -41.3947 H         1 UNK         0.2931 
    111 H111       21.6371  -35.6258  -42.4333 H         1 UNK         0.0412 
    112 H112       23.4623  -37.5772  -40.8717 H         1 UNK         0.3472 
    113 H113       22.5456  -39.0625  -40.9560 H         1 UNK         0.3472 
    114 H114       19.3585  -35.5603  -41.4199 H         1 UNK         0.0970 
    115 H115       20.0487  -35.2945  -39.8450 H         1 UNK         0.0970 
    116 H116       18.2359  -33.5650  -42.5291 H         1 UNK         0.0612 
    117 H117       19.6696  -33.9106  -43.4727 H         1 UNK         0.0612 
@<TRIPOS>BOND
     1    1    2 1    
     2    1   62 1    
     3    1   63 1    
     4    1   64 1    
     5    2    3 2    
     6    2    4 am   BACKBONE|DICT|INTERRES
     7    4    5 1    
     8    4   65 1    
     9    5    6 1    
    10    5   25 1    
    11    5   66 1    
    12    6    7 1    
    13    6   67 1    
    14    6   68 1    
    15    7    8 1    
    16    8    9 1    
    17    8   69 1    
    18    8   70 1    
    19    9   10 ar   
    20    9   14 ar   
    21   10   11 ar   
    22   10   71 1    
    23   11   12 ar   
    24   11   61 1    
    25   12   13 ar   
    26   12   72 1    
    27   13   14 ar   
    28   13   15 1    
    29   14   73 1    
    30   15   16 1    
    31   15   74 1    
    32   15   75 1    
    33   16   17 1    
    34   17   18 1    
    35   17   76 1    
    36   17   77 1    
    37   18   19 1    
    38   18   27 1    
    39   18   78 1    
    40   19   20 am   BACKBONE|DICT|INTERRES
    41   19   79 1    
    42   20   21 2    
    43   20   22 1    
    44   22   23 1    
    45   22   24 1    
    46   22   80 1    
    47   23   81 1    
    48   23   82 1    
    49   23   83 1    
    50   24   25 am   BACKBONE|DICT|INTERRES
    51   24   84 1    
    52   25   26 2    
    53   27   28 2    
    54   27   29 am   BACKBONE|DICT|INTERRES
    55   29   30 1    
    56   29   85 1    
    57   30   31 1    
    58   30   32 1    
    59   30   86 1    
    60   31   87 1    
    61   31   88 1    
    62   31   89 1    
    63   32   33 2    
    64   32   34 am   BACKBONE|DICT|INTERRES
    65   34   35 1    
    66   34   90 1    
    67   35   36 1    
    68   35   37 1    
    69   35   91 1    
    70   36   92 1    
    71   36   93 1    
    72   36   94 1    
    73   37   38 2    
    74   37   39 am   BACKBONE|DICT|INTERRES
    75   39   40 1    
    76   39   95 1    
    77   40   41 1    
    78   40   42 1    
    79   40   96 1    
    80   41   97 1    
    81   41   98 1    
    82   41   99 1    
    83   42   43 2    
    84   42   44 am   BACKBONE|DICT|INTERRES
    85   44   45 1    
    86   44  100 1    
    87   45   46 1    
    88   45   47 1    
    89   45  101 1    
    90   46  102 1    
    91   46  103 1    
    92   46  104 1    
    93   47   48 2    
    94   47   49 am   BACKBONE|DICT|INTERRES
    95   49   50 1    
    96   49  105 1    
    97   50   51 1    
    98   50   52 1    
    99   50  106 1    
   100   51  107 1    
   101   51  108 1    
   102   51  109 1    
   103   52   53 2    
   104   52   54 am   BACKBONE|DICT|INTERRES
   105   54   55 1    
   106   54  110 1    
   107   55   56 1    
   108   55   59 1    
   109   55  111 1    
   110   56   57 am   BACKBONE|DICT|INTERRES
   111   56   58 2    
   112   57  112 1    
   113   57  113 1    
   114   59   60 1    
   115   59  114 1    
   116   59  115 1    
   117   60   61 1    
   118   61  116 1    
   119   61  117 1    
@<TRIPOS>SUBSTRUCTURE
     1 UNK         1 GROUP             0       ****    0 ROOT    
