@<TRIPOS>MOLECULE
3R8
117   119    1
SMALL
USER_CHARGES


@<TRIPOS>ATOM
      1 CA         15.0775  -22.6126  -44.1007 C.3       0 UNK        -0.2013 
      2 C          15.1026  -24.0764  -43.6858 C.2       0 UNK         0.4866 
      3 O          14.4945  -24.4307  -42.6753 O.2       0 UNK        -0.5176 
      4 N          15.7955  -24.9195  -44.4655 N.am      1 UNK        -0.4884 
      5 CA         16.0122  -26.3570  -44.2412 C.3       1 UNK         0.0853 
      6 C6         14.6754  -27.1529  -44.1511 C.3       10 UNK        -0.0849 
      7 S7         14.7247  -28.9513  -44.4926 S.3       10 UNK        -0.2776 
      8 C8         15.6154  -29.1184  -46.0782 C.3       10 UNK         0.0316 
      9 C9         17.1009  -29.3854  -45.8650 C.ar      10 UNK        -0.0863 
     10 C10        17.5122  -30.5185  -45.1548 C.ar      10 UNK        -0.1009 
     11 C11        18.8676  -30.7566  -44.9119 C.ar      10 UNK        -0.0712 
     12 C12        19.8180  -29.8511  -45.3964 C.ar      10 UNK        -0.0894 
     13 C13        19.4239  -28.7300  -46.1314 C.ar      10 UNK        -0.0745 
     14 C14        18.0649  -28.5082  -46.3718 C.ar      10 UNK        -0.0972 
     15 C15        20.4615  -27.7622  -46.6797 C.3       10 UNK         0.0209 
     16 S16        20.6151  -26.2692  -45.6490 S.3       10 UNK        -0.2568 
     17 C17        21.7637  -26.8186  -44.3414 C.3       10 UNK        -0.0983 
     18 CA         21.3208  -26.3292  -42.9383 C.3       3 UNK         0.0876 
     19 N          20.0463  -26.9060  -42.4975 N.am      3 UNK        -0.4424 
     20 C          19.7370  -28.1833  -42.2387 C.2       2 UNK         0.4918 
     21 O          20.5305  -29.1216  -42.2801 O.2       2 UNK        -0.4875 
     22 CA         18.2664  -28.4829  -41.8908 C.3       2 UNK         0.0481 
     23 CB         17.9486  -28.1133  -40.4295 C.3       2 UNK        -0.1831 
     24 N          17.2914  -27.9090  -42.8307 N.am      2 UNK        -0.4498 
     25 C          16.9974  -26.6245  -43.0757 C.2       1 UNK         0.5027 
     26 O          17.5210  -25.6850  -42.4689 O.2       1 UNK        -0.4969 
     27 C          22.4477  -26.5136  -41.9008 C.2       3 UNK         0.5005 
     28 O          22.8776  -27.6380  -41.6416 O.2       3 UNK        -0.5279 
     29 N          22.9704  -25.4011  -41.3640 N.am      4 UNK        -0.4463 
     30 CA         24.0591  -25.3808  -40.3748 C.3       4 UNK         0.0283 
     31 CB         24.3276  -23.9316  -39.9386 C.3       4 UNK        -0.1875 
     32 C          25.3653  -26.0490  -40.8485 C.2       4 UNK         0.4949 
     33 O          26.0896  -26.6065  -40.0248 O.2       4 UNK        -0.5039 
     34 N          25.6243  -26.0101  -42.1633 N.am      5 UNK        -0.4663 
     35 CA         26.7498  -26.6907  -42.8095 C.3       5 UNK         0.0242 
     36 CB         26.9655  -26.0877  -44.2071 C.3       5 UNK        -0.1982 
     37 C          26.5671  -28.2174  -42.9075 C.2       5 UNK         0.5017 
     38 O          27.5668  -28.9357  -42.9405 O.2       5 UNK        -0.5012 
     39 N          25.3113  -28.6840  -42.9608 N.am      6 UNK        -0.4439 
     40 CA         24.9489  -30.1036  -43.0058 C.3       6 UNK         0.0297 
     41 CB         23.6887  -30.2718  -43.8705 C.3       6 UNK        -0.2006 
     42 C          24.7145  -30.6815  -41.5992 C.2       6 UNK         0.4892 
     43 O          24.8188  -31.8968  -41.4282 O.2       6 UNK        -0.5089 
     44 N          24.3843  -29.8084  -40.6345 N.am      7 UNK        -0.4243 
     45 CA         24.0861  -30.0860  -39.2266 C.3       7 UNK         0.0196 
     46 CB         25.3423  -30.5991  -38.4910 C.3       7 UNK        -0.2007 
     47 C          22.8673  -31.0125  -39.0750 C.2       7 UNK         0.5020 
     48 O          22.9465  -32.0282  -38.3827 O.2       7 UNK        -0.5147 
     49 N          21.7724  -30.6509  -39.7631 N.am      8 UNK        -0.4734 
     50 CA         20.5326  -31.4283  -39.9091 C.3       8 UNK         0.0238 
     51 CB         19.8296  -31.6478  -38.5516 C.3       8 UNK        -0.1912 
     52 C          20.7438  -32.7290  -40.7088 C.2       8 UNK         0.5038 
     53 O          20.0700  -33.7262  -40.4448 O.2       8 UNK        -0.5046 
     54 N          21.6600  -32.6751  -41.6874 N.am      9 UNK        -0.4200 
     55 CA         22.0652  -33.7779  -42.5726 C.3       9 UNK         0.0839 
     56 C          22.7014  -34.9573  -41.7850 C.2       9 UNK         0.5513 
     57 N          23.7238  -34.6816  -40.9852 N.am      9 UNK        -0.7519 
     58 O          22.2874  -36.1090  -41.8956 O.2       9 UNK        -0.4960 
     59 C59        20.9444  -34.1975  -43.5677 C.3       10 UNK        -0.0876 
     60 S60        20.6349  -32.9192  -44.8347 S.3       10 UNK        -0.2414 
     61 C61        19.2892  -31.9565  -44.0724 C.3       10 UNK         0.0169 
     62 H62        15.5097  -21.9935  -43.3149 H         1 UNK         0.0903 
     63 H63        15.6396  -22.4369  -45.0178 H         1 UNK         0.0903 
     64 H64        14.0508  -22.2867  -44.2653 H         1 UNK         0.0903 
     65 H65        16.2900  -24.5384  -45.2606 H         1 UNK         0.3096 
     66 H66        16.5360  -26.6739  -45.1385 H         1 UNK         0.1121 
     67 H67        13.9589  -26.7313  -44.8581 H         1 UNK         0.0849 
     68 H68        14.2215  -27.0162  -43.1680 H         1 UNK         0.0849 
     69 H69        15.1900  -29.9590  -46.6285 H         1 UNK         0.0865 
     70 H70        15.4468  -28.2362  -46.6979 H         1 UNK         0.0865 
     71 H71        16.7690  -31.2028  -44.7680 H         1 UNK         0.1346 
     72 H72        20.8662  -30.0187  -45.1920 H         1 UNK         0.1412 
     73 H73        17.7633  -27.6411  -46.9437 H         1 UNK         0.1426 
     74 H74        21.4344  -28.2467  -46.7777 H         1 UNK         0.0716 
     75 H75        20.1731  -27.4605  -47.6877 H         1 UNK         0.0716 
     76 H76        22.7511  -26.4285  -44.5955 H         1 UNK         0.0695 
     77 H77        21.8531  -27.9045  -44.3582 H         1 UNK         0.0695 
     78 H78        21.1327  -25.2571  -43.0168 H         1 UNK         0.0983 
     79 H79        19.2749  -26.2467  -42.4281 H         1 UNK         0.3095 
     80 H80        18.1417  -29.5630  -41.9824 H         1 UNK         0.0454 
     81 H81        18.0460  -27.0436  -40.2441 H         1 UNK         0.0851 
     82 H82        18.6278  -28.6213  -39.7437 H         1 UNK         0.0851 
     83 H83        16.9351  -28.4087  -40.1589 H         1 UNK         0.0851 
     84 H84        16.8259  -28.5922  -43.4166 H         1 UNK         0.2976 
     85 H85        22.5872  -24.5040  -41.6276 H         1 UNK         0.3116 
     86 H86        23.7127  -25.9388  -39.5021 H         1 UNK         0.0646 
     87 H87        23.4401  -23.4766  -39.4987 H         1 UNK         0.0847 
     88 H88        25.1154  -23.8909  -39.1848 H         1 UNK         0.0847 
     89 H89        24.6467  -23.3092  -40.7755 H         1 UNK         0.0847 
     90 H90        24.9853  -25.5081  -42.7624 H         1 UNK         0.3040 
     91 H91        27.6487  -26.5081  -42.2157 H         1 UNK         0.1015 
     92 H92        26.0945  -26.2292  -44.8484 H         1 UNK         0.0786 
     93 H93        27.8162  -26.5543  -44.7060 H         1 UNK         0.0786 
     94 H94        27.1725  -25.0188  -44.1509 H         1 UNK         0.0786 
     95 H95        24.5452  -28.0305  -42.8529 H         1 UNK         0.3172 
     96 H96        25.7559  -30.6724  -43.4726 H         1 UNK         0.0595 
     97 H97        22.8103  -29.8394  -43.3919 H         1 UNK         0.0839 
     98 H98        23.4757  -31.3251  -44.0492 H         1 UNK         0.0839 
     99 H99        23.8066  -29.8005  -44.8462 H         1 UNK         0.0839 
    100 H100       24.1922  -28.8559  -40.9305 H         1 UNK         0.2998 
    101 H101       23.8069  -29.1317  -38.7772 H         1 UNK         0.0822 
    102 H102       25.1507  -30.7090  -37.4230 H         1 UNK         0.0787 
    103 H103       25.6642  -31.5716  -38.8650 H         1 UNK         0.0787 
    104 H104       26.1751  -29.9045  -38.6017 H         1 UNK         0.0787 
    105 H105       21.8229  -29.8120  -40.3316 H         1 UNK         0.3055 
    106 H106       19.8573  -30.8256  -40.5144 H         1 UNK         0.1106 
    107 H107       18.8358  -32.0740  -38.6936 H         1 UNK         0.0828 
    108 H108       20.3835  -32.3333  -37.9101 H         1 UNK         0.0828 
    109 H109       19.7036  -30.7089  -38.0128 H         1 UNK         0.0828 
    110 H110       22.1782  -31.8168  -41.7960 H         1 UNK         0.2931 
    111 H111       22.8875  -33.3910  -43.1745 H         1 UNK         0.0412 
    112 H112       24.0845  -33.7342  -40.9310 H         1 UNK         0.3472 
    113 H113       24.1592  -35.4209  -40.4572 H         1 UNK         0.3472 
    114 H114       20.0201  -34.4489  -43.0457 H         1 UNK         0.0970 
    115 H115       21.2358  -35.1011  -44.1059 H         1 UNK         0.0970 
    116 H116       18.4427  -32.6208  -43.8922 H         1 UNK         0.0612 
    117 H117       19.6088  -31.5851  -43.1009 H         1 UNK         0.0612 
@<TRIPOS>BOND
     1    1    2 1    
     2    1   62 1    
     3    1   63 1    
     4    1   64 1    
     5    2    3 2    
     6    2    4 am   BACKBONE|DICT|INTERRES
     7    4    5 1    
     8    4   65 1    
     9    5    6 1    
    10    5   25 1    
    11    5   66 1    
    12    6    7 1    
    13    6   67 1    
    14    6   68 1    
    15    7    8 1    
    16    8    9 1    
    17    8   69 1    
    18    8   70 1    
    19    9   10 ar   
    20    9   14 ar   
    21   10   11 ar   
    22   10   71 1    
    23   11   12 ar   
    24   11   61 1    
    25   12   13 ar   
    26   12   72 1    
    27   13   14 ar   
    28   13   15 1    
    29   14   73 1    
    30   15   16 1    
    31   15   74 1    
    32   15   75 1    
    33   16   17 1    
    34   17   18 1    
    35   17   76 1    
    36   17   77 1    
    37   18   19 1    
    38   18   27 1    
    39   18   78 1    
    40   19   20 am   BACKBONE|DICT|INTERRES
    41   19   79 1    
    42   20   21 2    
    43   20   22 1    
    44   22   23 1    
    45   22   24 1    
    46   22   80 1    
    47   23   81 1    
    48   23   82 1    
    49   23   83 1    
    50   24   25 am   BACKBONE|DICT|INTERRES
    51   24   84 1    
    52   25   26 2    
    53   27   28 2    
    54   27   29 am   BACKBONE|DICT|INTERRES
    55   29   30 1    
    56   29   85 1    
    57   30   31 1    
    58   30   32 1    
    59   30   86 1    
    60   31   87 1    
    61   31   88 1    
    62   31   89 1    
    63   32   33 2    
    64   32   34 am   BACKBONE|DICT|INTERRES
    65   34   35 1    
    66   34   90 1    
    67   35   36 1    
    68   35   37 1    
    69   35   91 1    
    70   36   92 1    
    71   36   93 1    
    72   36   94 1    
    73   37   38 2    
    74   37   39 am   BACKBONE|DICT|INTERRES
    75   39   40 1    
    76   39   95 1    
    77   40   41 1    
    78   40   42 1    
    79   40   96 1    
    80   41   97 1    
    81   41   98 1    
    82   41   99 1    
    83   42   43 2    
    84   42   44 am   BACKBONE|DICT|INTERRES
    85   44   45 1    
    86   44  100 1    
    87   45   46 1    
    88   45   47 1    
    89   45  101 1    
    90   46  102 1    
    91   46  103 1    
    92   46  104 1    
    93   47   48 2    
    94   47   49 am   BACKBONE|DICT|INTERRES
    95   49   50 1    
    96   49  105 1    
    97   50   51 1    
    98   50   52 1    
    99   50  106 1    
   100   51  107 1    
   101   51  108 1    
   102   51  109 1    
   103   52   53 2    
   104   52   54 am   BACKBONE|DICT|INTERRES
   105   54   55 1    
   106   54  110 1    
   107   55   56 1    
   108   55   59 1    
   109   55  111 1    
   110   56   57 am   BACKBONE|DICT|INTERRES
   111   56   58 2    
   112   57  112 1    
   113   57  113 1    
   114   59   60 1    
   115   59  114 1    
   116   59  115 1    
   117   60   61 1    
   118   61  116 1    
   119   61  117 1    
@<TRIPOS>SUBSTRUCTURE
     1 UNK         1 GROUP             0       ****    0 ROOT    
