@<TRIPOS>MOLECULE
3R8
117   119    1
SMALL
USER_CHARGES


@<TRIPOS>ATOM
      1 CA         20.2662  -29.5396  -42.6886 C.3       0 UNK        -0.2013 
      2 C          19.2179  -28.5788  -42.1598 C.2       0 UNK         0.4866 
      3 O          19.4073  -27.9743  -41.1031 O.2       0 UNK        -0.5176 
      4 N          18.1249  -28.3911  -42.9084 N.am      1 UNK        -0.4884 
      5 CA         17.1107  -27.3605  -42.6600 C.3       1 UNK         0.0853 
      6 C6         15.7241  -27.7462  -43.2405 C.3       10 UNK        -0.0849 
      7 S7         15.1453  -29.3821  -42.6630 S.3       10 UNK        -0.2776 
      8 C8         15.0371  -30.3308  -44.2178 C.3       10 UNK         0.0316 
      9 C9         16.4016  -30.5959  -44.8427 C.ar      10 UNK        -0.0863 
     10 C10        17.1618  -31.7007  -44.4457 C.ar      10 UNK        -0.1009 
     11 C11        18.4027  -31.9616  -45.0382 C.ar      10 UNK        -0.0712 
     12 C12        18.8877  -31.0966  -46.0265 C.ar      10 UNK        -0.0894 
     13 C13        18.1294  -29.9978  -46.4425 C.ar      10 UNK        -0.0745 
     14 C14        16.8860  -29.7595  -45.8521 C.ar      10 UNK        -0.0972 
     15 C15        18.6110  -29.0973  -47.5718 C.3       10 UNK         0.0209 
     16 S16        18.9495  -27.4008  -47.0039 S.3       10 UNK        -0.2568 
     17 C17        20.6485  -27.5562  -46.3685 C.3       10 UNK        -0.0983 
     18 CA         21.3351  -26.1642  -46.2347 C.3       3 UNK         0.0876 
     19 N          20.6634  -25.3014  -45.2516 N.am      3 UNK        -0.4424 
     20 C          20.6701  -25.4691  -43.9223 C.2       2 UNK         0.4918 
     21 O          21.3534  -26.3145  -43.3428 O.2       2 UNK        -0.4875 
     22 CA         19.7221  -24.6027  -43.0749 C.3       2 UNK         0.0481 
     23 CB         19.1784  -23.3341  -43.7725 C.3       2 UNK        -0.1831 
     24 N          18.6725  -25.4834  -42.5507 N.am      2 UNK        -0.4498 
     25 C          17.6505  -26.0304  -43.2294 C.2       1 UNK         0.5027 
     26 O          17.2085  -25.5932  -44.2926 O.2       1 UNK        -0.4969 
     27 C          22.8558  -26.2450  -45.9676 C.2       3 UNK         0.5005 
     28 O          23.5540  -25.2491  -46.1685 O.2       3 UNK        -0.5279 
     29 N          23.3378  -27.4126  -45.5162 N.am      4 UNK        -0.4463 
     30 CA         24.7346  -27.6718  -45.1631 C.3       4 UNK         0.0283 
     31 CB         24.9429  -29.1895  -45.0269 C.3       4 UNK        -0.1875 
     32 C          25.1946  -26.9627  -43.8771 C.2       4 UNK         0.4949 
     33 O          26.3986  -26.7657  -43.7126 O.2       4 UNK        -0.5039 
     34 N          24.2533  -26.6289  -42.9797 N.am      5 UNK        -0.4663 
     35 CA         24.3973  -25.9528  -41.6785 C.3       5 UNK         0.0242 
     36 CB         24.9338  -24.5204  -41.8608 C.3       5 UNK        -0.1982 
     37 C          25.2081  -26.7108  -40.6066 C.2       5 UNK         0.5017 
     38 O          24.8559  -26.6374  -39.4291 O.2       5 UNK        -0.5012 
     39 N          26.2660  -27.4218  -41.0155 N.am      6 UNK        -0.4439 
     40 CA         27.1509  -28.2282  -40.1685 C.3       6 UNK         0.0297 
     41 CB         28.4006  -28.6104  -40.9781 C.3       6 UNK        -0.2006 
     42 C          26.4838  -29.4888  -39.5860 C.2       6 UNK         0.4892 
     43 O          26.9719  -30.0166  -38.5858 O.2       6 UNK        -0.5089 
     44 N          25.3916  -29.9417  -40.2101 N.am      7 UNK        -0.4243 
     45 CA         24.5171  -31.0101  -39.7404 C.3       7 UNK         0.0196 
     46 CB         24.6775  -32.2397  -40.6497 C.3       7 UNK        -0.2007 
     47 C          23.0811  -30.4807  -39.7914 C.2       7 UNK         0.5020 
     48 O          22.7666  -29.6835  -40.6765 O.2       7 UNK        -0.5147 
     49 N          22.2424  -30.9350  -38.8536 N.am      8 UNK        -0.4734 
     50 CA         20.8450  -30.5058  -38.7170 C.3       8 UNK         0.0238 
     51 CB         20.5205  -30.3614  -37.2196 C.3       8 UNK        -0.1912 
     52 C          19.8420  -31.4590  -39.3923 C.2       8 UNK         0.5038 
     53 O          18.6579  -31.1268  -39.4471 O.2       8 UNK        -0.5046 
     54 N          20.3125  -32.6220  -39.8694 N.am      9 UNK        -0.4200 
     55 CA         19.5082  -33.6961  -40.4860 C.3       9 UNK         0.0839 
     56 C          18.4768  -34.3666  -39.5237 C.2       9 UNK         0.5513 
     57 N          18.6426  -34.2703  -38.2097 N.am      9 UNK        -0.7519 
     58 O          17.5321  -35.0154  -39.9665 O.2       9 UNK        -0.4960 
     59 C59        18.8865  -33.2782  -41.8517 C.3       10 UNK        -0.0876 
     60 S60        20.1582  -32.9892  -43.1278 S.3       10 UNK        -0.2414 
     61 C61        19.1950  -33.2070  -44.6573 C.3       10 UNK         0.0169 
     62 H62        20.4350  -30.3411  -41.9739 H         1 UNK         0.0903 
     63 H63        19.9734  -29.9803  -43.6394 H         1 UNK         0.0903 
     64 H64        21.2106  -29.0164  -42.8346 H         1 UNK         0.0903 
     65 H65        18.0004  -28.9232  -43.7600 H         1 UNK         0.3096 
     66 H66        16.9857  -27.2348  -41.5818 H         1 UNK         0.1121 
     67 H67        15.7328  -27.7252  -44.3297 H         1 UNK         0.0849 
     68 H68        14.9810  -27.0050  -42.9413 H         1 UNK         0.0849 
     69 H69        14.5413  -31.2808  -44.0126 H         1 UNK         0.0865 
     70 H70        14.3899  -29.8032  -44.9204 H         1 UNK         0.0865 
     71 H71        16.7772  -32.3679  -43.6870 H         1 UNK         0.1346 
     72 H72        19.8423  -31.2978  -46.4934 H         1 UNK         0.1412 
     73 H73        16.2933  -28.9214  -46.1927 H         1 UNK         0.1426 
     74 H74        17.8356  -29.0557  -48.3380 H         1 UNK         0.0716 
     75 H75        19.4940  -29.5117  -48.0605 H         1 UNK         0.0716 
     76 H76        21.2054  -28.1909  -47.0605 H         1 UNK         0.0695 
     77 H77        20.6111  -28.0810  -45.4126 H         1 UNK         0.0695 
     78 H78        21.2413  -25.6589  -47.1976 H         1 UNK         0.0983 
     79 H79        20.0718  -24.5814  -45.6388 H         1 UNK         0.3095 
     80 H80        20.2986  -24.2722  -42.2097 H         1 UNK         0.0454 
     81 H81        19.9953  -22.6616  -44.0371 H         1 UNK         0.0851 
     82 H82        18.5124  -22.7815  -43.1101 H         1 UNK         0.0851 
     83 H83        18.6269  -23.5465  -44.6878 H         1 UNK         0.0851 
     84 H84        18.9661  -26.0107  -41.7338 H         1 UNK         0.2976 
     85 H85        22.6860  -28.1667  -45.3575 H         1 UNK         0.3116 
     86 H86        25.3637  -27.3108  -45.9796 H         1 UNK         0.0646 
     87 H87        24.3312  -29.6130  -44.2288 H         1 UNK         0.0847 
     88 H88        24.6967  -29.7101  -45.9525 H         1 UNK         0.0847 
     89 H89        25.9836  -29.4217  -44.7958 H         1 UNK         0.0847 
     90 H90        23.2877  -26.8279  -43.2276 H         1 UNK         0.3040 
     91 H91        23.3817  -25.8734  -41.2858 H         1 UNK         0.1015 
     92 H92        24.9463  -23.9850  -40.9105 H         1 UNK         0.0786 
     93 H93        24.3081  -23.9490  -42.5467 H         1 UNK         0.0786 
     94 H94        25.9523  -24.5128  -42.2504 H         1 UNK         0.0786 
     95 H95        26.4952  -27.3601  -42.0060 H         1 UNK         0.3172 
     96 H96        27.4643  -27.6071  -39.3270 H         1 UNK         0.0595 
     97 H97        28.1470  -29.2172  -41.8485 H         1 UNK         0.0839 
     98 H98        29.0994  -29.1872  -40.3705 H         1 UNK         0.0839 
     99 H99        28.9326  -27.7260  -41.3291 H         1 UNK         0.0839 
    100 H100       25.0134  -29.3960  -40.9733 H         1 UNK         0.2998 
    101 H101       24.7605  -31.2812  -38.7107 H         1 UNK         0.0822 
    102 H102       24.0404  -33.0599  -40.3168 H         1 UNK         0.0787 
    103 H103       24.4092  -32.0153  -41.6833 H         1 UNK         0.0787 
    104 H104       25.7051  -32.6037  -40.6430 H         1 UNK         0.0787 
    105 H105       22.5867  -31.5864  -38.1615 H         1 UNK         0.3055 
    106 H106       20.7119  -29.5272  -39.1858 H         1 UNK         0.1106 
    107 H107       21.1819  -29.6401  -36.7392 H         1 UNK         0.0828 
    108 H108       19.4994  -30.0062  -37.0725 H         1 UNK         0.0828 
    109 H109       20.6147  -31.3097  -36.6895 H         1 UNK         0.0828 
    110 H110       21.3001  -32.8073  -39.7824 H         1 UNK         0.2931 
    111 H111       20.2191  -34.4966  -40.6946 H         1 UNK         0.0412 
    112 H112       17.9792  -34.7160  -37.5952 H         1 UNK         0.3472 
    113 H113       19.4200  -33.7574  -37.8268 H         1 UNK         0.3472 
    114 H114       18.2217  -34.0591  -42.2238 H         1 UNK         0.0970 
    115 H115       18.2721  -32.3833  -41.7450 H         1 UNK         0.0970 
    116 H116       18.5250  -34.0623  -44.5601 H         1 UNK         0.0612 
    117 H117       19.8877  -33.4639  -45.4601 H         1 UNK         0.0612 
@<TRIPOS>BOND
     1    1    2 1    
     2    1   62 1    
     3    1   63 1    
     4    1   64 1    
     5    2    3 2    
     6    2    4 am   BACKBONE|DICT|INTERRES
     7    4    5 1    
     8    4   65 1    
     9    5    6 1    
    10    5   25 1    
    11    5   66 1    
    12    6    7 1    
    13    6   67 1    
    14    6   68 1    
    15    7    8 1    
    16    8    9 1    
    17    8   69 1    
    18    8   70 1    
    19    9   10 ar   
    20    9   14 ar   
    21   10   11 ar   
    22   10   71 1    
    23   11   12 ar   
    24   11   61 1    
    25   12   13 ar   
    26   12   72 1    
    27   13   14 ar   
    28   13   15 1    
    29   14   73 1    
    30   15   16 1    
    31   15   74 1    
    32   15   75 1    
    33   16   17 1    
    34   17   18 1    
    35   17   76 1    
    36   17   77 1    
    37   18   19 1    
    38   18   27 1    
    39   18   78 1    
    40   19   20 am   BACKBONE|DICT|INTERRES
    41   19   79 1    
    42   20   21 2    
    43   20   22 1    
    44   22   23 1    
    45   22   24 1    
    46   22   80 1    
    47   23   81 1    
    48   23   82 1    
    49   23   83 1    
    50   24   25 am   BACKBONE|DICT|INTERRES
    51   24   84 1    
    52   25   26 2    
    53   27   28 2    
    54   27   29 am   BACKBONE|DICT|INTERRES
    55   29   30 1    
    56   29   85 1    
    57   30   31 1    
    58   30   32 1    
    59   30   86 1    
    60   31   87 1    
    61   31   88 1    
    62   31   89 1    
    63   32   33 2    
    64   32   34 am   BACKBONE|DICT|INTERRES
    65   34   35 1    
    66   34   90 1    
    67   35   36 1    
    68   35   37 1    
    69   35   91 1    
    70   36   92 1    
    71   36   93 1    
    72   36   94 1    
    73   37   38 2    
    74   37   39 am   BACKBONE|DICT|INTERRES
    75   39   40 1    
    76   39   95 1    
    77   40   41 1    
    78   40   42 1    
    79   40   96 1    
    80   41   97 1    
    81   41   98 1    
    82   41   99 1    
    83   42   43 2    
    84   42   44 am   BACKBONE|DICT|INTERRES
    85   44   45 1    
    86   44  100 1    
    87   45   46 1    
    88   45   47 1    
    89   45  101 1    
    90   46  102 1    
    91   46  103 1    
    92   46  104 1    
    93   47   48 2    
    94   47   49 am   BACKBONE|DICT|INTERRES
    95   49   50 1    
    96   49  105 1    
    97   50   51 1    
    98   50   52 1    
    99   50  106 1    
   100   51  107 1    
   101   51  108 1    
   102   51  109 1    
   103   52   53 2    
   104   52   54 am   BACKBONE|DICT|INTERRES
   105   54   55 1    
   106   54  110 1    
   107   55   56 1    
   108   55   59 1    
   109   55  111 1    
   110   56   57 am   BACKBONE|DICT|INTERRES
   111   56   58 2    
   112   57  112 1    
   113   57  113 1    
   114   59   60 1    
   115   59  114 1    
   116   59  115 1    
   117   60   61 1    
   118   61  116 1    
   119   61  117 1    
@<TRIPOS>SUBSTRUCTURE
     1 UNK         1 GROUP             0       ****    0 ROOT    
