@<TRIPOS>MOLECULE
3R8
117   119    1
SMALL
USER_CHARGES


@<TRIPOS>ATOM
      1 CA         20.5734  -26.5817  -50.1071 C.3       0 UNK        -0.2013 
      2 C          20.5644  -27.7646  -49.1501 C.2       0 UNK         0.4866 
      3 O          20.5222  -28.9114  -49.5966 O.2       0 UNK        -0.5176 
      4 N          20.6113  -27.4946  -47.8413 N.am      1 UNK        -0.4884 
      5 CA         20.6294  -28.5071  -46.7789 C.3       1 UNK         0.0853 
      6 C6         19.2822  -29.2538  -46.5853 C.3       10 UNK        -0.0849 
      7 S7         17.8362  -28.1602  -46.3479 S.3       10 UNK        -0.2776 
      8 C8         16.5736  -29.3577  -45.8125 C.3       10 UNK         0.0316 
      9 C9         16.6427  -29.6103  -44.3138 C.ar      10 UNK        -0.0863 
     10 C10        17.4149  -30.6577  -43.8037 C.ar      10 UNK        -0.1009 
     11 C11        17.4927  -30.8747  -42.4252 C.ar      10 UNK        -0.0712 
     12 C12        16.7670  -30.0560  -41.5549 C.ar      10 UNK        -0.0894 
     13 C13        15.9830  -29.0115  -42.0541 C.ar      10 UNK        -0.0745 
     14 C14        15.9277  -28.7924  -43.4341 C.ar      10 UNK        -0.0972 
     15 C15        15.1878  -28.1231  -41.1065 C.3       10 UNK         0.0209 
     16 S16        16.2534  -27.1199  -40.0209 S.3       10 UNK        -0.2568 
     17 C17        17.2164  -26.1313  -41.2162 C.3       10 UNK        -0.0983 
     18 CA         18.7273  -26.4739  -41.1625 C.3       3 UNK         0.0876 
     19 N          19.3916  -26.1574  -42.4315 N.am      3 UNK        -0.4424 
     20 C          20.6761  -26.4149  -42.7132 C.2       2 UNK         0.4918 
     21 O          21.4288  -27.0579  -41.9776 O.2       2 UNK        -0.4875 
     22 CA         21.1903  -25.8350  -44.0417 C.3       2 UNK         0.0481 
     23 CB         22.7104  -25.5771  -44.0356 C.3       2 UNK        -0.1831 
     24 N          20.7987  -26.6603  -45.1863 N.am      2 UNK        -0.4498 
     25 C          21.1669  -27.9228  -45.4614 C.2       1 UNK         0.5027 
     26 O          21.9202  -28.6064  -44.7639 O.2       1 UNK        -0.4969 
     27 C          19.4204  -25.7583  -39.9794 C.2       3 UNK         0.5005 
     28 O          19.9523  -24.6584  -40.1573 O.2       3 UNK        -0.5279 
     29 N          19.4272  -26.4041  -38.8047 N.am      4 UNK        -0.4463 
     30 CA         20.0853  -26.0127  -37.5462 C.3       4 UNK         0.0283 
     31 CB         19.5954  -24.6436  -37.0347 C.3       4 UNK        -0.1875 
     32 C          21.6245  -26.0776  -37.5921 C.2       4 UNK         0.4949 
     33 O          22.2293  -26.5435  -36.6266 O.2       4 UNK        -0.5039 
     34 N          22.2312  -25.6555  -38.7099 N.am      5 UNK        -0.4663 
     35 CA         23.6530  -25.8426  -39.0179 C.3       5 UNK         0.0242 
     36 CB         24.0279  -24.9917  -40.2400 C.3       5 UNK        -0.1982 
     37 C          24.0047  -27.3222  -39.2578 C.2       5 UNK         0.5017 
     38 O          25.0959  -27.7500  -38.8811 O.2       5 UNK        -0.5012 
     39 N          23.0544  -28.0670  -39.8439 N.am      6 UNK        -0.4439 
     40 CA         23.0543  -29.5132  -40.0713 C.3       6 UNK         0.0297 
     41 CB         23.0712  -30.2758  -38.7274 C.3       6 UNK        -0.2006 
     42 C          24.1538  -29.9673  -41.0465 C.2       6 UNK         0.4892 
     43 O          24.8527  -30.9435  -40.7695 O.2       6 UNK        -0.5089 
     44 N          24.2935  -29.2465  -42.1696 N.am      7 UNK        -0.4243 
     45 CA         25.3202  -29.5086  -43.1827 C.3       7 UNK         0.0196 
     46 CB         25.4554  -28.3094  -44.1352 C.3       7 UNK        -0.2007 
     47 C          25.0605  -30.8089  -43.9585 C.2       7 UNK         0.5020 
     48 O          25.9428  -31.6659  -44.0135 O.2       7 UNK        -0.5147 
     49 N          23.8558  -30.9431  -44.5300 N.am      8 UNK        -0.4734 
     50 CA         23.4450  -32.1395  -45.2775 C.3       8 UNK         0.0238 
     51 CB         22.4855  -31.7269  -46.4027 C.3       8 UNK        -0.1912 
     52 C          22.7830  -33.2091  -44.3929 C.2       8 UNK         0.5038 
     53 O          22.5993  -34.3355  -44.8561 O.2       8 UNK        -0.5046 
     54 N          22.4054  -32.8384  -43.1636 N.am      9 UNK        -0.4200 
     55 CA         21.6397  -33.6758  -42.2259 C.3       9 UNK         0.0839 
     56 C          22.4290  -34.8678  -41.6109 C.2       9 UNK         0.5513 
     57 N          23.7513  -34.9174  -41.7182 N.am      9 UNK        -0.7519 
     58 O          21.8263  -35.7644  -41.0268 O.2       9 UNK        -0.4960 
     59 C59        20.9648  -32.8347  -41.1101 C.3       10 UNK        -0.0876 
     60 S60        20.0907  -31.3589  -41.7324 S.3       10 UNK        -0.2414 
     61 C61        18.3893  -31.9723  -41.8795 C.3       10 UNK         0.0169 
     62 H62        21.4134  -26.6629  -50.7965 H         1 UNK         0.0903 
     63 H63        19.6536  -26.5663  -50.6912 H         1 UNK         0.0903 
     64 H64        20.6572  -25.6305  -49.5818 H         1 UNK         0.0903 
     65 H65        20.7070  -26.5362  -47.5374 H         1 UNK         0.3096 
     66 H66        21.3707  -29.2447  -47.0856 H         1 UNK         0.1121 
     67 H67        19.3589  -29.9426  -45.7435 H         1 UNK         0.0849 
     68 H68        19.0852  -29.8798  -47.4568 H         1 UNK         0.0849 
     69 H69        15.5884  -28.9681  -46.0738 H         1 UNK         0.0865 
     70 H70        16.6833  -30.2912  -46.3669 H         1 UNK         0.0865 
     71 H71        17.9731  -31.2955  -44.4748 H         1 UNK         0.1346 
     72 H72        16.8244  -30.2192  -40.4872 H         1 UNK         0.1412 
     73 H73        15.3290  -27.9817  -43.8270 H         1 UNK         0.1426 
     74 H74        14.5454  -28.7500  -40.4865 H         1 UNK         0.0716 
     75 H75        14.5224  -27.4588  -41.6602 H         1 UNK         0.0716 
     76 H76        16.8221  -26.3174  -42.2159 H         1 UNK         0.0695 
     77 H77        17.0385  -25.0703  -41.0286 H         1 UNK         0.0695 
     78 H78        18.8417  -27.5527  -41.0289 H         1 UNK         0.0983 
     79 H79        18.8542  -25.6131  -43.0889 H         1 UNK         0.3095 
     80 H80        20.7048  -24.8683  -44.1857 H         1 UNK         0.0454 
     81 H81        22.9629  -24.7890  -43.3270 H         1 UNK         0.0851 
     82 H82        23.2741  -26.4635  -43.7507 H         1 UNK         0.0851 
     83 H83        23.0654  -25.2537  -45.0138 H         1 UNK         0.0851 
     84 H84        20.0981  -26.2479  -45.7857 H         1 UNK         0.2976 
     85 H85        18.9552  -27.2980  -38.7688 H         1 UNK         0.3116 
     86 H86        19.7685  -26.7588  -36.8155 H         1 UNK         0.0646 
     87 H87        19.9920  -24.4393  -36.0394 H         1 UNK         0.0847 
     88 H88        18.5083  -24.6123  -36.9630 H         1 UNK         0.0847 
     89 H89        19.9135  -23.8243  -37.6796 H         1 UNK         0.0847 
     90 H90        21.6419  -25.2479  -39.4312 H         1 UNK         0.3040 
     91 H91        24.2365  -25.4968  -38.1617 H         1 UNK         0.1015 
     92 H92        23.8403  -23.9330  -40.0605 H         1 UNK         0.0786 
     93 H93        23.4596  -25.2897  -41.1199 H         1 UNK         0.0786 
     94 H94        25.0863  -25.0988  -40.4817 H         1 UNK         0.0786 
     95 H95        22.2574  -27.5751  -40.2365 H         1 UNK         0.3172 
     96 H96        22.1072  -29.7311  -40.5616 H         1 UNK         0.0595 
     97 H97        22.2356  -29.9783  -38.0939 H         1 UNK         0.0839 
     98 H98        23.9922  -30.0982  -38.1717 H         1 UNK         0.0839 
     99 H99        22.9962  -31.3521  -38.8781 H         1 UNK         0.0839 
    100 H100       23.6517  -28.4833  -42.3401 H         1 UNK         0.2998 
    101 H101       26.2739  -29.6218  -42.6620 H         1 UNK         0.0822 
    102 H102       26.2811  -28.4621  -44.8314 H         1 UNK         0.0787 
    103 H103       24.5573  -28.1574  -44.7333 H         1 UNK         0.0787 
    104 H104       25.6603  -27.3883  -43.5894 H         1 UNK         0.0787 
    105 H105       23.1884  -30.1784  -44.4659 H         1 UNK         0.3055 
    106 H106       24.3209  -32.6017  -45.7390 H         1 UNK         0.1106 
    107 H107       22.9440  -30.9904  -47.0622 H         1 UNK         0.0828 
    108 H108       22.2142  -32.5848  -47.0197 H         1 UNK         0.0828 
    109 H109       21.5606  -31.3115  -46.0027 H         1 UNK         0.0828 
    110 H110       22.5954  -31.8932  -42.8687 H         1 UNK         0.2931 
    111 H111       20.8333  -34.1265  -42.8080 H         1 UNK         0.0412 
    112 H112       24.2523  -35.6952  -41.3183 H         1 UNK         0.3472 
    113 H113       24.2525  -34.1810  -42.1898 H         1 UNK         0.3472 
    114 H114       21.7157  -32.4935  -40.3980 H         1 UNK         0.0970 
    115 H115       20.2683  -33.4484  -40.5355 H         1 UNK         0.0970 
    116 H116       18.3690  -32.8400  -42.5406 H         1 UNK         0.0612 
    117 H117       18.0340  -32.3083  -40.9041 H         1 UNK         0.0612 
@<TRIPOS>BOND
     1    1    2 1    
     2    1   62 1    
     3    1   63 1    
     4    1   64 1    
     5    2    3 2    
     6    2    4 am   BACKBONE|DICT|INTERRES
     7    4    5 1    
     8    4   65 1    
     9    5    6 1    
    10    5   25 1    
    11    5   66 1    
    12    6    7 1    
    13    6   67 1    
    14    6   68 1    
    15    7    8 1    
    16    8    9 1    
    17    8   69 1    
    18    8   70 1    
    19    9   10 ar   
    20    9   14 ar   
    21   10   11 ar   
    22   10   71 1    
    23   11   12 ar   
    24   11   61 1    
    25   12   13 ar   
    26   12   72 1    
    27   13   14 ar   
    28   13   15 1    
    29   14   73 1    
    30   15   16 1    
    31   15   74 1    
    32   15   75 1    
    33   16   17 1    
    34   17   18 1    
    35   17   76 1    
    36   17   77 1    
    37   18   19 1    
    38   18   27 1    
    39   18   78 1    
    40   19   20 am   BACKBONE|DICT|INTERRES
    41   19   79 1    
    42   20   21 2    
    43   20   22 1    
    44   22   23 1    
    45   22   24 1    
    46   22   80 1    
    47   23   81 1    
    48   23   82 1    
    49   23   83 1    
    50   24   25 am   BACKBONE|DICT|INTERRES
    51   24   84 1    
    52   25   26 2    
    53   27   28 2    
    54   27   29 am   BACKBONE|DICT|INTERRES
    55   29   30 1    
    56   29   85 1    
    57   30   31 1    
    58   30   32 1    
    59   30   86 1    
    60   31   87 1    
    61   31   88 1    
    62   31   89 1    
    63   32   33 2    
    64   32   34 am   BACKBONE|DICT|INTERRES
    65   34   35 1    
    66   34   90 1    
    67   35   36 1    
    68   35   37 1    
    69   35   91 1    
    70   36   92 1    
    71   36   93 1    
    72   36   94 1    
    73   37   38 2    
    74   37   39 am   BACKBONE|DICT|INTERRES
    75   39   40 1    
    76   39   95 1    
    77   40   41 1    
    78   40   42 1    
    79   40   96 1    
    80   41   97 1    
    81   41   98 1    
    82   41   99 1    
    83   42   43 2    
    84   42   44 am   BACKBONE|DICT|INTERRES
    85   44   45 1    
    86   44  100 1    
    87   45   46 1    
    88   45   47 1    
    89   45  101 1    
    90   46  102 1    
    91   46  103 1    
    92   46  104 1    
    93   47   48 2    
    94   47   49 am   BACKBONE|DICT|INTERRES
    95   49   50 1    
    96   49  105 1    
    97   50   51 1    
    98   50   52 1    
    99   50  106 1    
   100   51  107 1    
   101   51  108 1    
   102   51  109 1    
   103   52   53 2    
   104   52   54 am   BACKBONE|DICT|INTERRES
   105   54   55 1    
   106   54  110 1    
   107   55   56 1    
   108   55   59 1    
   109   55  111 1    
   110   56   57 am   BACKBONE|DICT|INTERRES
   111   56   58 2    
   112   57  112 1    
   113   57  113 1    
   114   59   60 1    
   115   59  114 1    
   116   59  115 1    
   117   60   61 1    
   118   61  116 1    
   119   61  117 1    
@<TRIPOS>SUBSTRUCTURE
     1 UNK         1 GROUP             0       ****    0 ROOT    
