@<TRIPOS>MOLECULE
3R8
117   119    1
SMALL
USER_CHARGES


@<TRIPOS>ATOM
      1 CA         18.9950  -26.6993  -39.2400 C.3       0 UNK        -0.2013 
      2 C          18.7541  -27.2484  -40.6376 C.2       0 UNK         0.4866 
      3 O          19.7020  -27.6938  -41.2837 O.2       0 UNK        -0.5176 
      4 N          17.4946  -27.2305  -41.1027 N.am      1 UNK        -0.4884 
      5 CA         17.0619  -27.6819  -42.4385 C.3       1 UNK         0.0853 
      6 C6         17.4345  -29.1689  -42.7095 C.3       10 UNK        -0.0849 
      7 S7         16.1397  -30.1535  -43.5408 S.3       10 UNK        -0.2776 
      8 C8         16.6426  -30.1785  -45.3007 C.3       10 UNK         0.0316 
      9 C9         18.1194  -30.4782  -45.5562 C.ar      10 UNK        -0.0863 
     10 C10        18.8129  -31.4537  -44.8288 C.ar      10 UNK        -0.1009 
     11 C11        20.1813  -31.6650  -45.0416 C.ar      10 UNK        -0.0712 
     12 C12        20.8470  -30.9084  -46.0101 C.ar      10 UNK        -0.0894 
     13 C13        20.1650  -29.9409  -46.7518 C.ar      10 UNK        -0.0745 
     14 C14        18.8015  -29.7396  -46.5275 C.ar      10 UNK        -0.0972 
     15 C15        20.9133  -29.0783  -47.7594 C.3       10 UNK         0.0209 
     16 S16        20.9709  -27.3237  -47.2629 S.3       10 UNK        -0.2568 
     17 C17        21.7687  -27.4251  -45.6245 C.3       10 UNK        -0.0983 
     18 CA         21.6600  -26.1013  -44.8272 C.3       3 UNK         0.0876 
     19 N          20.2669  -25.7173  -44.6020 N.am      3 UNK        -0.4424 
     20 C          19.8209  -24.4946  -44.2965 C.2       2 UNK         0.4918 
     21 O          20.5536  -23.5071  -44.2197 O.2       2 UNK        -0.4875 
     22 CA         18.3174  -24.3388  -43.9936 C.3       2 UNK         0.0481 
     23 CB         17.5154  -24.0724  -45.2822 C.3       2 UNK        -0.1831 
     24 N          17.7434  -25.4394  -43.2016 N.am      2 UNK        -0.4498 
     25 C          17.5447  -26.7210  -43.5532 C.2       1 UNK         0.5027 
     26 O          17.7705  -27.1469  -44.6852 O.2       1 UNK        -0.4969 
     27 C          22.4024  -26.1882  -43.4779 C.2       3 UNK         0.5005 
     28 O          22.6833  -27.2866  -42.9940 O.2       3 UNK        -0.5279 
     29 N          22.7220  -25.0270  -42.8898 N.am      4 UNK        -0.4463 
     30 CA         23.3958  -24.8786  -41.5920 C.3       4 UNK         0.0283 
     31 CB         23.4892  -23.3850  -41.2428 C.3       4 UNK        -0.1875 
     32 C          24.7849  -25.5424  -41.4964 C.2       4 UNK         0.4949 
     33 O          25.2426  -25.8160  -40.3880 O.2       4 UNK        -0.5039 
     34 N          25.4212  -25.8095  -42.6455 N.am      5 UNK        -0.4663 
     35 CA         26.6474  -26.6038  -42.7512 C.3       5 UNK         0.0242 
     36 CB         27.2709  -26.3846  -44.1392 C.3       5 UNK        -0.1982 
     37 C          26.4188  -28.1069  -42.4955 C.2       5 UNK         0.5017 
     38 O          27.3467  -28.7805  -42.0463 O.2       5 UNK        -0.5012 
     39 N          25.2069  -28.6037  -42.7848 N.am      6 UNK        -0.4439 
     40 CA         24.7815  -29.9790  -42.5186 C.3       6 UNK         0.0297 
     41 CB         23.8523  -30.4625  -43.6432 C.3       6 UNK        -0.2006 
     42 C          24.0877  -30.0800  -41.1510 C.2       6 UNK         0.4892 
     43 O          24.3589  -31.0300  -40.4168 O.2       6 UNK        -0.5089 
     44 N          23.2460  -29.0828  -40.8320 N.am      7 UNK        -0.4243 
     45 CA         22.5636  -28.8574  -39.5532 C.3       7 UNK         0.0196 
     46 CB         23.5836  -28.4881  -38.4549 C.3       7 UNK        -0.2007 
     47 C          21.6453  -30.0235  -39.1404 C.2       7 UNK         0.5020 
     48 O          21.9211  -30.7026  -38.1501 O.2       7 UNK        -0.5147 
     49 N          20.5552  -30.2021  -39.9010 N.am      8 UNK        -0.4734 
     50 CA         19.4545  -31.1500  -39.6718 C.3       8 UNK         0.0238 
     51 CB         18.6397  -30.7429  -38.4255 C.3       8 UNK        -0.1912 
     52 C          19.9049  -32.6225  -39.6272 C.2       8 UNK         0.5038 
     53 O          19.9667  -33.2261  -38.5541 O.2       8 UNK        -0.5046 
     54 N          20.1911  -33.1734  -40.8124 N.am      9 UNK        -0.4200 
     55 CA         20.5308  -34.5892  -41.0368 C.3       9 UNK         0.0839 
     56 C          19.3814  -35.6080  -40.7700 C.2       9 UNK         0.5513 
     57 N          18.1291  -35.1864  -40.6377 N.am      9 UNK        -0.7519 
     58 O          19.6371  -36.8055  -40.6721 O.2       9 UNK        -0.4960 
     59 C59        21.1748  -34.8051  -42.4339 C.3       10 UNK        -0.0876 
     60 S60        20.1405  -34.2001  -43.8169 S.3       10 UNK        -0.2414 
     61 C61        20.9844  -32.6273  -44.1746 C.3       10 UNK         0.0169 
     62 H62        19.4350  -27.4678  -38.6054 H         1 UNK         0.0903 
     63 H63        19.6867  -25.8584  -39.2841 H         1 UNK         0.0903 
     64 H64        18.0731  -26.3578  -38.7699 H         1 UNK         0.0903 
     65 H65        16.7571  -26.8693  -40.5116 H         1 UNK         0.3096 
     66 H66        15.9738  -27.5991  -42.4346 H         1 UNK         0.1121 
     67 H67        17.5755  -29.6744  -41.7564 H         1 UNK         0.0849 
     68 H68        18.3989  -29.2562  -43.2114 H         1 UNK         0.0849 
     69 H69        16.0425  -30.9243  -45.8232 H         1 UNK         0.0865 
     70 H70        16.3730  -29.2151  -45.7360 H         1 UNK         0.0865 
     71 H71        18.2934  -32.0191  -44.0679 H         1 UNK         0.1346 
     72 H72        21.9084  -31.0477  -46.1633 H         1 UNK         0.1412 
     73 H73        18.2819  -28.9721  -47.0853 H         1 UNK         0.1426 
     74 H74        21.9336  -29.4389  -47.8993 H         1 UNK         0.0716 
     75 H75        20.4237  -29.1557  -48.7310 H         1 UNK         0.0716 
     76 H76        21.3111  -28.2343  -45.0531 H         1 UNK         0.0695 
     77 H77        22.8138  -27.7033  -45.7738 H         1 UNK         0.0695 
     78 H78        22.1431  -25.3195  -45.4175 H         1 UNK         0.0983 
     79 H79        19.5797  -26.4617  -44.6708 H         1 UNK         0.3095 
     80 H80        18.2196  -23.4526  -43.3647 H         1 UNK         0.0454 
     81 H81        17.6002  -24.8914  -45.9970 H         1 UNK         0.0851 
     82 H82        16.4576  -23.9212  -45.0681 H         1 UNK         0.0851 
     83 H83        17.8765  -23.1730  -45.7825 H         1 UNK         0.0851 
     84 H84        17.5586  -25.2102  -42.2350 H         1 UNK         0.2976 
     85 H85        22.3917  -24.1761  -43.3316 H         1 UNK         0.3116 
     86 H86        22.7628  -25.3640  -40.8461 H         1 UNK         0.0646 
     87 H87        23.9530  -23.2397  -40.2660 H         1 UNK         0.0847 
     88 H88        22.5024  -22.9233  -41.2013 H         1 UNK         0.0847 
     89 H89        24.0874  -22.8371  -41.9719 H         1 UNK         0.0847 
     90 H90        24.9862  -25.5192  -43.5088 H         1 UNK         0.3040 
     91 H91        27.3534  -26.2476  -41.9973 H         1 UNK         0.1015 
     92 H92        27.5055  -25.3334  -44.3078 H         1 UNK         0.0786 
     93 H93        26.6062  -26.7145  -44.9387 H         1 UNK         0.0786 
     94 H94        28.2030  -26.9427  -44.2399 H         1 UNK         0.0786 
     95 H95        24.4748  -27.9633  -43.0774 H         1 UNK         0.3172 
     96 H96        25.6545  -30.6351  -42.5061 H         1 UNK         0.0595 
     97 H97        23.6126  -31.5165  -43.5058 H         1 UNK         0.0839 
     98 H98        24.3252  -30.3640  -44.6203 H         1 UNK         0.0839 
     99 H99        22.9121  -29.9101  -43.6686 H         1 UNK         0.0839 
    100 H100       23.0432  -28.3948  -41.5554 H         1 UNK         0.2998 
    101 H101       21.9220  -27.9874  -39.7002 H         1 UNK         0.0822 
    102 H102       24.1681  -27.6125  -38.7348 H         1 UNK         0.0787 
    103 H103       23.0784  -28.2530  -37.5174 H         1 UNK         0.0787 
    104 H104       24.2794  -29.3033  -38.2538 H         1 UNK         0.0787 
    105 H105       20.4219  -29.5526  -40.6713 H         1 UNK         0.3055 
    106 H106       18.7865  -31.0661  -40.5276 H         1 UNK         0.1106 
    107 H107       17.7985  -31.4201  -38.2720 H         1 UNK         0.0828 
    108 H108       19.2425  -30.7663  -37.5172 H         1 UNK         0.0828 
    109 H109       18.2289  -29.7391  -38.5301 H         1 UNK         0.0828 
    110 H110       20.1003  -32.6143  -41.6464 H         1 UNK         0.2931 
    111 H111       21.3000  -34.8343  -40.3016 H         1 UNK         0.0412 
    112 H112       17.3991  -35.8587  -40.4611 H         1 UNK         0.3472 
    113 H113       17.9041  -34.2093  -40.7252 H         1 UNK         0.3472 
    114 H114       22.1472  -34.3109  -42.4658 H         1 UNK         0.0970 
    115 H115       21.3916  -35.8621  -42.6008 H         1 UNK         0.0970 
    116 H116       21.9382  -32.8624  -44.6495 H         1 UNK         0.0612 
    117 H117       21.2171  -32.1160  -43.2403 H         1 UNK         0.0612 
@<TRIPOS>BOND
     1    1    2 1    
     2    1   62 1    
     3    1   63 1    
     4    1   64 1    
     5    2    3 2    
     6    2    4 am   BACKBONE|DICT|INTERRES
     7    4    5 1    
     8    4   65 1    
     9    5    6 1    
    10    5   25 1    
    11    5   66 1    
    12    6    7 1    
    13    6   67 1    
    14    6   68 1    
    15    7    8 1    
    16    8    9 1    
    17    8   69 1    
    18    8   70 1    
    19    9   10 ar   
    20    9   14 ar   
    21   10   11 ar   
    22   10   71 1    
    23   11   12 ar   
    24   11   61 1    
    25   12   13 ar   
    26   12   72 1    
    27   13   14 ar   
    28   13   15 1    
    29   14   73 1    
    30   15   16 1    
    31   15   74 1    
    32   15   75 1    
    33   16   17 1    
    34   17   18 1    
    35   17   76 1    
    36   17   77 1    
    37   18   19 1    
    38   18   27 1    
    39   18   78 1    
    40   19   20 am   BACKBONE|DICT|INTERRES
    41   19   79 1    
    42   20   21 2    
    43   20   22 1    
    44   22   23 1    
    45   22   24 1    
    46   22   80 1    
    47   23   81 1    
    48   23   82 1    
    49   23   83 1    
    50   24   25 am   BACKBONE|DICT|INTERRES
    51   24   84 1    
    52   25   26 2    
    53   27   28 2    
    54   27   29 am   BACKBONE|DICT|INTERRES
    55   29   30 1    
    56   29   85 1    
    57   30   31 1    
    58   30   32 1    
    59   30   86 1    
    60   31   87 1    
    61   31   88 1    
    62   31   89 1    
    63   32   33 2    
    64   32   34 am   BACKBONE|DICT|INTERRES
    65   34   35 1    
    66   34   90 1    
    67   35   36 1    
    68   35   37 1    
    69   35   91 1    
    70   36   92 1    
    71   36   93 1    
    72   36   94 1    
    73   37   38 2    
    74   37   39 am   BACKBONE|DICT|INTERRES
    75   39   40 1    
    76   39   95 1    
    77   40   41 1    
    78   40   42 1    
    79   40   96 1    
    80   41   97 1    
    81   41   98 1    
    82   41   99 1    
    83   42   43 2    
    84   42   44 am   BACKBONE|DICT|INTERRES
    85   44   45 1    
    86   44  100 1    
    87   45   46 1    
    88   45   47 1    
    89   45  101 1    
    90   46  102 1    
    91   46  103 1    
    92   46  104 1    
    93   47   48 2    
    94   47   49 am   BACKBONE|DICT|INTERRES
    95   49   50 1    
    96   49  105 1    
    97   50   51 1    
    98   50   52 1    
    99   50  106 1    
   100   51  107 1    
   101   51  108 1    
   102   51  109 1    
   103   52   53 2    
   104   52   54 am   BACKBONE|DICT|INTERRES
   105   54   55 1    
   106   54  110 1    
   107   55   56 1    
   108   55   59 1    
   109   55  111 1    
   110   56   57 am   BACKBONE|DICT|INTERRES
   111   56   58 2    
   112   57  112 1    
   113   57  113 1    
   114   59   60 1    
   115   59  114 1    
   116   59  115 1    
   117   60   61 1    
   118   61  116 1    
   119   61  117 1    
@<TRIPOS>SUBSTRUCTURE
     1 UNK         1 GROUP             0       ****    0 ROOT    
