@<TRIPOS>MOLECULE
3R8
117   119    1
SMALL
USER_CHARGES


@<TRIPOS>ATOM
      1 CA         15.0628  -22.9368  -41.5800 C.3       0 UNK        -0.2013 
      2 C          15.7411  -23.3826  -42.8669 C.2       0 UNK         0.4866 
      3 O          16.3229  -22.5547  -43.5684 O.2       0 UNK        -0.5176 
      4 N          15.6567  -24.6802  -43.1832 N.am      1 UNK        -0.4884 
      5 CA         16.2948  -25.3210  -44.3351 C.3       1 UNK         0.0853 
      6 C6         15.4234  -26.4778  -44.9002 C.3       10 UNK        -0.0849 
      7 S7         14.8806  -27.7182  -43.6639 S.3       10 UNK        -0.2776 
      8 C8         14.7182  -29.2195  -44.6791 C.3       10 UNK         0.0316 
      9 C9         16.0653  -29.8049  -45.0834 C.ar      10 UNK        -0.0863 
     10 C10        16.7543  -30.6596  -44.2157 C.ar      10 UNK        -0.1009 
     11 C11        17.9468  -31.2684  -44.6209 C.ar      10 UNK        -0.0712 
     12 C12        18.4618  -30.9977  -45.8920 C.ar      10 UNK        -0.0894 
     13 C13        17.7920  -30.1317  -46.7601 C.ar      10 UNK        -0.0745 
     14 C14        16.5920  -29.5441  -46.3522 C.ar      10 UNK        -0.0972 
     15 C15        18.3301  -29.8660  -48.1581 C.3       10 UNK         0.0209 
     16 S16        19.3336  -28.3494  -48.2256 S.3       10 UNK        -0.2568 
     17 C17        20.9176  -28.9154  -47.5183 C.3       10 UNK        -0.0983 
     18 CA         21.3364  -28.1086  -46.2664 C.3       3 UNK         0.0876 
     19 N          20.3182  -28.1518  -45.2053 N.am      3 UNK        -0.4424 
     20 C          20.3675  -27.4458  -44.0682 C.2       2 UNK         0.4918 
     21 O          21.3030  -26.7033  -43.7674 O.2       2 UNK        -0.4875 
     22 CA         19.1757  -27.6133  -43.1127 C.3       2 UNK         0.0481 
     23 CB         19.4891  -27.1142  -41.6864 C.3       2 UNK        -0.1831 
     24 N          17.9460  -26.9940  -43.6122 N.am      2 UNK        -0.4498 
     25 C          17.7416  -25.7159  -43.9646 C.2       1 UNK         0.5027 
     26 O          18.6215  -24.8540  -43.9794 O.2       1 UNK        -0.4969 
     27 C          22.7454  -28.5423  -45.7986 C.2       3 UNK         0.5005 
     28 O          23.7362  -28.0820  -46.3678 O.2       3 UNK        -0.5279 
     29 N          22.8161  -29.3923  -44.7631 N.am      4 UNK        -0.4463 
     30 CA         24.0578  -29.8223  -44.1123 C.3       4 UNK         0.0283 
     31 CB         23.8200  -31.1868  -43.4502 C.3       4 UNK        -0.1875 
     32 C          24.6008  -28.8120  -43.0804 C.2       4 UNK         0.4949 
     33 O          25.6507  -29.0753  -42.4921 O.2       4 UNK        -0.5039 
     34 N          23.8919  -27.6945  -42.8559 N.am      5 UNK        -0.4663 
     35 CA         24.1931  -26.6299  -41.8953 C.3       5 UNK         0.0242 
     36 CB         25.4554  -25.8441  -42.3206 C.3       5 UNK        -0.1982 
     37 C          24.2383  -27.1696  -40.4547 C.2       5 UNK         0.5017 
     38 O          23.1796  -27.4288  -39.8831 O.2       5 UNK        -0.5012 
     39 N          25.4476  -27.3239  -39.9026 N.am      6 UNK        -0.4439 
     40 CA         25.6983  -27.8479  -38.5595 C.3       6 UNK         0.0297 
     41 CB         26.7827  -26.9830  -37.8931 C.3       6 UNK        -0.2006 
     42 C          26.1214  -29.3288  -38.5570 C.2       6 UNK         0.4892 
     43 O          26.2084  -29.9089  -37.4736 O.2       6 UNK        -0.5089 
     44 N          26.4077  -29.9180  -39.7295 N.am      7 UNK        -0.4243 
     45 CA         26.9112  -31.2927  -39.8434 C.3       7 UNK         0.0196 
     46 CB         27.6322  -31.4674  -41.1900 C.3       7 UNK        -0.2007 
     47 C          25.8180  -32.3615  -39.6746 C.2       7 UNK         0.5020 
     48 O          26.1326  -33.4847  -39.2799 O.2       7 UNK        -0.5147 
     49 N          24.5655  -32.0027  -39.9716 N.am      8 UNK        -0.4734 
     50 CA         23.3694  -32.8354  -39.8606 C.3       8 UNK         0.0238 
     51 CB         23.3553  -33.9255  -40.9574 C.3       8 UNK        -0.1912 
     52 C          22.1401  -31.9151  -39.9310 C.2       8 UNK         0.5038 
     53 O          22.2952  -30.6932  -39.8698 O.2       8 UNK        -0.5046 
     54 N          20.9515  -32.5137  -40.0791 N.am      9 UNK        -0.4200 
     55 CA         19.6489  -31.8375  -40.2352 C.3       9 UNK         0.0839 
     56 C          19.0976  -31.1807  -38.9333 C.2       9 UNK         0.5513 
     57 N          19.6396  -31.4808  -37.7591 N.am      9 UNK        -0.7519 
     58 O          18.1410  -30.4117  -38.9810 O.2       9 UNK        -0.4960 
     59 C59        19.5802  -30.8696  -41.4553 C.3       10 UNK        -0.0876 
     60 S60        20.1841  -31.5992  -43.0156 S.3       10 UNK        -0.2414 
     61 C61        18.6526  -32.2731  -43.7231 C.3       10 UNK         0.0169 
     62 H62        14.3083  -22.1808  -41.7957 H         1 UNK         0.0903 
     63 H63        14.5748  -23.7654  -41.0669 H         1 UNK         0.0903 
     64 H64        15.7961  -22.5025  -40.9008 H         1 UNK         0.0903 
     65 H65        15.1685  -25.3137  -42.5647 H         1 UNK         0.3096 
     66 H66        16.3874  -24.5839  -45.1365 H         1 UNK         0.1121 
     67 H67        15.9471  -26.9617  -45.7239 H         1 UNK         0.0849 
     68 H68        14.5218  -26.0552  -45.3466 H         1 UNK         0.0849 
     69 H69        14.1569  -29.9641  -44.1125 H         1 UNK         0.0865 
     70 H70        14.1134  -28.9984  -45.5602 H         1 UNK         0.0865 
     71 H71        16.3423  -30.8781  -43.2397 H         1 UNK         0.1346 
     72 H72        19.3746  -31.4828  -46.2098 H         1 UNK         0.1412 
     73 H73        16.0574  -28.8998  -47.0369 H         1 UNK         0.1426 
     74 H74        18.9141  -30.7151  -48.5172 H         1 UNK         0.0716 
     75 H75        17.4969  -29.7616  -48.8547 H         1 UNK         0.0716 
     76 H76        21.6714  -28.8150  -48.3019 H         1 UNK         0.0695 
     77 H77        20.8677  -29.9806  -47.2888 H         1 UNK         0.0695 
     78 H78        21.4265  -27.0612  -46.5633 H         1 UNK         0.0983 
     79 H79        19.5024  -28.7176  -45.3970 H         1 UNK         0.3095 
     80 H80        18.9703  -28.6809  -43.0567 H         1 UNK         0.0454 
     81 H81        18.6832  -27.3599  -40.9950 H         1 UNK         0.0851 
     82 H82        20.4002  -27.5727  -41.2990 H         1 UNK         0.0851 
     83 H83        19.6386  -26.0344  -41.6576 H         1 UNK         0.0851 
     84 H84        17.1365  -27.6031  -43.6490 H         1 UNK         0.2976 
     85 H85        21.9532  -29.7276  -44.3580 H         1 UNK         0.3116 
     86 H86        24.8290  -29.9490  -44.8749 H         1 UNK         0.0646 
     87 H87        23.4367  -31.9176  -44.1624 H         1 UNK         0.0847 
     88 H88        24.7447  -31.5924  -43.0389 H         1 UNK         0.0847 
     89 H89        23.1072  -31.1078  -42.6303 H         1 UNK         0.0847 
     90 H90        23.0198  -27.5659  -43.3597 H         1 UNK         0.3040 
     91 H91        23.3504  -25.9370  -41.9309 H         1 UNK         0.1015 
     92 H92        26.3418  -26.4749  -42.3917 H         1 UNK         0.0786 
     93 H93        25.6741  -25.0406  -41.6158 H         1 UNK         0.0786 
     94 H94        25.3095  -25.3796  -43.2960 H         1 UNK         0.0786 
     95 H95        26.2567  -27.1039  -40.4663 H         1 UNK         0.3172 
     96 H96        24.7921  -27.7727  -37.9548 H         1 UNK         0.0595 
     97 H97        27.7287  -27.0310  -38.4338 H         1 UNK         0.0839 
     98 H98        26.9750  -27.3137  -36.8713 H         1 UNK         0.0839 
     99 H99        26.4787  -25.9374  -37.8396 H         1 UNK         0.0839 
    100 H100       26.2588  -29.4138  -40.5987 H         1 UNK         0.2998 
    101 H101       27.6465  -31.4546  -39.0518 H         1 UNK         0.0822 
    102 H102       28.0769  -32.4605  -41.2669 H         1 UNK         0.0787 
    103 H103       26.9516  -31.3518  -42.0332 H         1 UNK         0.0787 
    104 H104       28.4373  -30.7419  -41.3071 H         1 UNK         0.0787 
    105 H105       24.3718  -31.0377  -40.2137 H         1 UNK         0.3055 
    106 H106       23.3713  -33.3104  -38.8773 H         1 UNK         0.1106 
    107 H107       22.5372  -34.6303  -40.8078 H         1 UNK         0.0828 
    108 H108       23.2376  -33.4996  -41.9532 H         1 UNK         0.0828 
    109 H109       24.2725  -34.5139  -40.9565 H         1 UNK         0.0828 
    110 H110       20.9181  -33.5219  -40.1109 H         1 UNK         0.2931 
    111 H111       18.9470  -32.6457  -40.4436 H         1 UNK         0.0412 
    112 H112       19.2685  -31.0590  -36.9221 H         1 UNK         0.3472 
    113 H113       20.4173  -32.1180  -37.7015 H         1 UNK         0.3472 
    114 H114       18.5573  -30.5195  -41.6048 H         1 UNK         0.0970 
    115 H115       20.1746  -29.9781  -41.2545 H         1 UNK         0.0970 
    116 H116       18.9046  -33.1570  -44.3108 H         1 UNK         0.0612 
    117 H117       17.9942  -32.6201  -42.9253 H         1 UNK         0.0612 
@<TRIPOS>BOND
     1    1    2 1    
     2    1   62 1    
     3    1   63 1    
     4    1   64 1    
     5    2    3 2    
     6    2    4 am   BACKBONE|DICT|INTERRES
     7    4    5 1    
     8    4   65 1    
     9    5    6 1    
    10    5   25 1    
    11    5   66 1    
    12    6    7 1    
    13    6   67 1    
    14    6   68 1    
    15    7    8 1    
    16    8    9 1    
    17    8   69 1    
    18    8   70 1    
    19    9   10 ar   
    20    9   14 ar   
    21   10   11 ar   
    22   10   71 1    
    23   11   12 ar   
    24   11   61 1    
    25   12   13 ar   
    26   12   72 1    
    27   13   14 ar   
    28   13   15 1    
    29   14   73 1    
    30   15   16 1    
    31   15   74 1    
    32   15   75 1    
    33   16   17 1    
    34   17   18 1    
    35   17   76 1    
    36   17   77 1    
    37   18   19 1    
    38   18   27 1    
    39   18   78 1    
    40   19   20 am   BACKBONE|DICT|INTERRES
    41   19   79 1    
    42   20   21 2    
    43   20   22 1    
    44   22   23 1    
    45   22   24 1    
    46   22   80 1    
    47   23   81 1    
    48   23   82 1    
    49   23   83 1    
    50   24   25 am   BACKBONE|DICT|INTERRES
    51   24   84 1    
    52   25   26 2    
    53   27   28 2    
    54   27   29 am   BACKBONE|DICT|INTERRES
    55   29   30 1    
    56   29   85 1    
    57   30   31 1    
    58   30   32 1    
    59   30   86 1    
    60   31   87 1    
    61   31   88 1    
    62   31   89 1    
    63   32   33 2    
    64   32   34 am   BACKBONE|DICT|INTERRES
    65   34   35 1    
    66   34   90 1    
    67   35   36 1    
    68   35   37 1    
    69   35   91 1    
    70   36   92 1    
    71   36   93 1    
    72   36   94 1    
    73   37   38 2    
    74   37   39 am   BACKBONE|DICT|INTERRES
    75   39   40 1    
    76   39   95 1    
    77   40   41 1    
    78   40   42 1    
    79   40   96 1    
    80   41   97 1    
    81   41   98 1    
    82   41   99 1    
    83   42   43 2    
    84   42   44 am   BACKBONE|DICT|INTERRES
    85   44   45 1    
    86   44  100 1    
    87   45   46 1    
    88   45   47 1    
    89   45  101 1    
    90   46  102 1    
    91   46  103 1    
    92   46  104 1    
    93   47   48 2    
    94   47   49 am   BACKBONE|DICT|INTERRES
    95   49   50 1    
    96   49  105 1    
    97   50   51 1    
    98   50   52 1    
    99   50  106 1    
   100   51  107 1    
   101   51  108 1    
   102   51  109 1    
   103   52   53 2    
   104   52   54 am   BACKBONE|DICT|INTERRES
   105   54   55 1    
   106   54  110 1    
   107   55   56 1    
   108   55   59 1    
   109   55  111 1    
   110   56   57 am   BACKBONE|DICT|INTERRES
   111   56   58 2    
   112   57  112 1    
   113   57  113 1    
   114   59   60 1    
   115   59  114 1    
   116   59  115 1    
   117   60   61 1    
   118   61  116 1    
   119   61  117 1    
@<TRIPOS>SUBSTRUCTURE
     1 UNK         1 GROUP             0       ****    0 ROOT    
