@<TRIPOS>MOLECULE
3R8
117   119    1
SMALL
USER_CHARGES


@<TRIPOS>ATOM
      1 CA         12.4726  -25.0618  -43.3432 C.3       0 UNK        -0.2013 
      2 C          13.9578  -25.1755  -43.6537 C.2       0 UNK         0.4866 
      3 O          14.7187  -24.2544  -43.3542 O.2       0 UNK        -0.5176 
      4 N          14.3742  -26.2931  -44.2608 N.am      1 UNK        -0.4884 
      5 CA         15.7730  -26.6123  -44.5638 C.3       1 UNK         0.0853 
      6 C6         15.8840  -27.6496  -45.7112 C.3       10 UNK        -0.0849 
      7 S7         14.9918  -29.2173  -45.4087 S.3       10 UNK        -0.2776 
      8 C8         15.6861  -30.2875  -46.7097 C.3       10 UNK         0.0316 
      9 C9         17.1254  -30.6799  -46.4095 C.ar      10 UNK        -0.0863 
     10 C10        17.3979  -31.7048  -45.5001 C.ar      10 UNK        -0.1009 
     11 C11        18.7172  -32.0575  -45.1980 C.ar      10 UNK        -0.0712 
     12 C12        19.7705  -31.3780  -45.8208 C.ar      10 UNK        -0.0894 
     13 C13        19.5087  -30.3657  -46.7499 C.ar      10 UNK        -0.0745 
     14 C14        18.1851  -30.0257  -47.0430 C.ar      10 UNK        -0.0972 
     15 C15        20.6445  -29.6536  -47.4693 C.3       10 UNK         0.0209 
     16 S16        20.8462  -27.9410  -46.8895 S.3       10 UNK        -0.2568 
     17 C17        21.9835  -28.1705  -45.4854 C.3       10 UNK        -0.0983 
     18 CA         21.9407  -26.9535  -44.5219 C.3       3 UNK         0.0876 
     19 N          20.6615  -26.8348  -43.8045 N.am      3 UNK        -0.4424 
     20 C          20.2006  -27.6605  -42.8499 C.2       2 UNK         0.4918 
     21 O          20.8163  -28.6296  -42.4063 O.2       2 UNK        -0.4875 
     22 CA         18.8041  -27.3526  -42.2976 C.3       2 UNK         0.0481 
     23 CB         18.8726  -26.2688  -41.2061 C.3       2 UNK        -0.1831 
     24 N          17.8839  -26.9665  -43.3701 N.am      2 UNK        -0.4498 
     25 C          16.5489  -27.0446  -43.2978 C.2       1 UNK         0.5027 
     26 O          15.9399  -27.4407  -42.2995 O.2       1 UNK        -0.4969 
     27 C          23.1660  -26.8401  -43.5825 C.2       3 UNK         0.5005 
     28 O          24.1726  -27.5285  -43.7743 O.2       3 UNK        -0.5279 
     29 N          23.0537  -25.9304  -42.5993 N.am      4 UNK        -0.4463 
     30 CA         24.0594  -25.5510  -41.5989 C.3       4 UNK         0.0283 
     31 CB         25.2666  -24.8770  -42.2909 C.3       4 UNK        -0.1875 
     32 C          24.4823  -26.7154  -40.6816 C.2       4 UNK         0.4949 
     33 O          23.8709  -27.7842  -40.7000 O.2       4 UNK        -0.5039 
     34 N          25.5385  -26.4934  -39.8881 N.am      5 UNK        -0.4663 
     35 CA         26.1488  -27.4999  -39.0106 C.3       5 UNK         0.0242 
     36 CB         27.1177  -26.7996  -38.0437 C.3       5 UNK        -0.1982 
     37 C          26.8674  -28.6312  -39.7724 C.2       5 UNK         0.5017 
     38 O          27.1542  -29.6669  -39.1725 O.2       5 UNK        -0.5012 
     39 N          27.1438  -28.4151  -41.0677 N.am      6 UNK        -0.4439 
     40 CA         27.7135  -29.3968  -41.9904 C.3       6 UNK         0.0297 
     41 CB         28.0507  -28.7140  -43.3264 C.3       6 UNK        -0.2006 
     42 C          26.7817  -30.6001  -42.2082 C.2       6 UNK         0.4892 
     43 O          27.2375  -31.7394  -42.1010 O.2       6 UNK        -0.5089 
     44 N          25.4991  -30.3265  -42.4866 N.am      7 UNK        -0.4243 
     45 CA         24.4573  -31.3499  -42.5823 C.3       7 UNK         0.0196 
     46 CB         23.3799  -30.8976  -43.5756 C.3       7 UNK        -0.2007 
     47 C          23.8263  -31.6378  -41.2133 C.2       7 UNK         0.5020 
     48 O          23.5552  -32.8006  -40.9138 O.2       7 UNK        -0.5147 
     49 N          23.5942  -30.5778  -40.4211 N.am      8 UNK        -0.4734 
     50 CA         22.9308  -30.5707  -39.1111 C.3       8 UNK         0.0238 
     51 CB         23.8044  -31.2767  -38.0524 C.3       8 UNK        -0.1912 
     52 C          21.4888  -31.1139  -39.1696 C.2       8 UNK         0.5038 
     53 O          21.0573  -31.8107  -38.2488 O.2       8 UNK        -0.5046 
     54 N          20.7774  -30.7992  -40.2612 N.am      9 UNK        -0.4200 
     55 CA         19.4212  -31.2908  -40.5464 C.3       9 UNK         0.0839 
     56 C          18.2865  -30.5308  -39.7979 C.2       9 UNK         0.5513 
     57 N          18.5671  -29.4356  -39.1008 N.am      9 UNK        -0.7519 
     58 O          17.1332  -30.9500  -39.8357 O.2       9 UNK        -0.4960 
     59 C59        19.1717  -31.3684  -42.0788 C.3       10 UNK        -0.0876 
     60 S60        18.2772  -32.8771  -42.5717 S.3       10 UNK        -0.2414 
     61 C61        19.0006  -33.1871  -44.2147 C.3       10 UNK         0.0169 
     62 H62        12.0514  -24.1868  -43.8374 H         1 UNK         0.0903 
     63 H63        11.9181  -25.9391  -43.6762 H         1 UNK         0.0903 
     64 H64        12.3217  -24.9530  -42.2695 H         1 UNK         0.0903 
     65 H65        13.7177  -27.0377  -44.4507 H         1 UNK         0.3096 
     66 H66        16.2449  -25.6916  -44.9157 H         1 UNK         0.1121 
     67 H67        16.9328  -27.8614  -45.9199 H         1 UNK         0.0849 
     68 H68        15.4877  -27.2145  -46.6301 H         1 UNK         0.0849 
     69 H69        15.0743  -31.1873  -46.7901 H         1 UNK         0.0865 
     70 H70        15.6127  -29.7847  -47.6755 H         1 UNK         0.0865 
     71 H71        16.5809  -32.2216  -45.0148 H         1 UNK         0.1346 
     72 H72        20.7933  -31.6468  -45.5955 H         1 UNK         0.1412 
     73 H73        17.9835  -29.2415  -47.7602 H         1 UNK         0.1426 
     74 H74        20.4303  -29.6360  -48.5389 H         1 UNK         0.0716 
     75 H75        21.5846  -30.1963  -47.3579 H         1 UNK         0.0716 
     76 H76        22.9818  -28.3196  -45.9005 H         1 UNK         0.0695 
     77 H77        21.7190  -29.0891  -44.9634 H         1 UNK         0.0695 
     78 H78        22.0138  -26.0588  -45.1429 H         1 UNK         0.0983 
     79 H79        20.1049  -26.0332  -44.0605 H         1 UNK         0.3095 
     80 H80        18.4312  -28.2700  -41.8409 H         1 UNK         0.0454 
     81 H81        19.1716  -25.3017  -41.6111 H         1 UNK         0.0851 
     82 H82        19.5931  -26.5388  -40.4328 H         1 UNK         0.0851 
     83 H83        17.9088  -26.1407  -40.7134 H         1 UNK         0.0851 
     84 H84        18.3071  -26.7098  -44.2503 H         1 UNK         0.2976 
     85 H85        22.1657  -25.4576  -42.5133 H         1 UNK         0.3116 
     86 H86        23.5817  -24.8107  -40.9555 H         1 UNK         0.0646 
     87 H87        25.8591  -25.5916  -42.8634 H         1 UNK         0.0847 
     88 H88        25.9323  -24.4002  -41.5712 H         1 UNK         0.0847 
     89 H89        24.9403  -24.0958  -42.9776 H         1 UNK         0.0847 
     90 H90        25.9776  -25.5838  -39.9053 H         1 UNK         0.3040 
     91 H91        25.3539  -27.9663  -38.4239 H         1 UNK         0.1015 
     92 H92        27.9334  -26.3070  -38.5746 H         1 UNK         0.0786 
     93 H93        27.5649  -27.5153  -37.3522 H         1 UNK         0.0786 
     94 H94        26.6052  -26.0492  -37.4415 H         1 UNK         0.0786 
     95 H95        26.8722  -27.5258  -41.4589 H         1 UNK         0.3172 
     96 H96        28.6429  -29.7665  -41.5520 H         1 UNK         0.0595 
     97 H97        28.4826  -29.4276  -44.0295 H         1 UNK         0.0839 
     98 H98        28.7793  -27.9145  -43.1912 H         1 UNK         0.0839 
     99 H99        27.1659  -28.2855  -43.8001 H         1 UNK         0.0839 
    100 H100       25.2048  -29.3615  -42.5772 H         1 UNK         0.2998 
    101 H101       24.8895  -32.2798  -42.9588 H         1 UNK         0.0822 
    102 H102       22.6032  -31.6554  -43.6857 H         1 UNK         0.0787 
    103 H103       22.8988  -29.9822  -43.2345 H         1 UNK         0.0787 
    104 H104       23.8003  -30.7099  -44.5636 H         1 UNK         0.0787 
    105 H105       23.8209  -29.6486  -40.7712 H         1 UNK         0.3055 
    106 H106       22.8435  -29.5231  -38.8187 H         1 UNK         0.1106 
    107 H107       23.3813  -31.1594  -37.0541 H         1 UNK         0.0828 
    108 H108       23.8897  -32.3463  -38.2456 H         1 UNK         0.0828 
    109 H109       24.8110  -30.8595  -38.0276 H         1 UNK         0.0828 
    110 H110       21.1754  -30.1720  -40.9511 H         1 UNK         0.2931 
    111 H111       19.3861  -32.3101  -40.1564 H         1 UNK         0.0412 
    112 H112       17.8255  -28.9582  -38.6134 H         1 UNK         0.3472 
    113 H113       19.5118  -29.0922  -39.0484 H         1 UNK         0.3472 
    114 H114       18.6262  -30.5008  -42.4524 H         1 UNK         0.0970 
    115 H115       20.1219  -31.3605  -42.6156 H         1 UNK         0.0970 
    116 H116       20.0736  -33.3531  -44.1055 H         1 UNK         0.0612 
    117 H117       18.5843  -34.1135  -44.6121 H         1 UNK         0.0612 
@<TRIPOS>BOND
     1    1    2 1    
     2    1   62 1    
     3    1   63 1    
     4    1   64 1    
     5    2    3 2    
     6    2    4 am   BACKBONE|DICT|INTERRES
     7    4    5 1    
     8    4   65 1    
     9    5    6 1    
    10    5   25 1    
    11    5   66 1    
    12    6    7 1    
    13    6   67 1    
    14    6   68 1    
    15    7    8 1    
    16    8    9 1    
    17    8   69 1    
    18    8   70 1    
    19    9   10 ar   
    20    9   14 ar   
    21   10   11 ar   
    22   10   71 1    
    23   11   12 ar   
    24   11   61 1    
    25   12   13 ar   
    26   12   72 1    
    27   13   14 ar   
    28   13   15 1    
    29   14   73 1    
    30   15   16 1    
    31   15   74 1    
    32   15   75 1    
    33   16   17 1    
    34   17   18 1    
    35   17   76 1    
    36   17   77 1    
    37   18   19 1    
    38   18   27 1    
    39   18   78 1    
    40   19   20 am   BACKBONE|DICT|INTERRES
    41   19   79 1    
    42   20   21 2    
    43   20   22 1    
    44   22   23 1    
    45   22   24 1    
    46   22   80 1    
    47   23   81 1    
    48   23   82 1    
    49   23   83 1    
    50   24   25 am   BACKBONE|DICT|INTERRES
    51   24   84 1    
    52   25   26 2    
    53   27   28 2    
    54   27   29 am   BACKBONE|DICT|INTERRES
    55   29   30 1    
    56   29   85 1    
    57   30   31 1    
    58   30   32 1    
    59   30   86 1    
    60   31   87 1    
    61   31   88 1    
    62   31   89 1    
    63   32   33 2    
    64   32   34 am   BACKBONE|DICT|INTERRES
    65   34   35 1    
    66   34   90 1    
    67   35   36 1    
    68   35   37 1    
    69   35   91 1    
    70   36   92 1    
    71   36   93 1    
    72   36   94 1    
    73   37   38 2    
    74   37   39 am   BACKBONE|DICT|INTERRES
    75   39   40 1    
    76   39   95 1    
    77   40   41 1    
    78   40   42 1    
    79   40   96 1    
    80   41   97 1    
    81   41   98 1    
    82   41   99 1    
    83   42   43 2    
    84   42   44 am   BACKBONE|DICT|INTERRES
    85   44   45 1    
    86   44  100 1    
    87   45   46 1    
    88   45   47 1    
    89   45  101 1    
    90   46  102 1    
    91   46  103 1    
    92   46  104 1    
    93   47   48 2    
    94   47   49 am   BACKBONE|DICT|INTERRES
    95   49   50 1    
    96   49  105 1    
    97   50   51 1    
    98   50   52 1    
    99   50  106 1    
   100   51  107 1    
   101   51  108 1    
   102   51  109 1    
   103   52   53 2    
   104   52   54 am   BACKBONE|DICT|INTERRES
   105   54   55 1    
   106   54  110 1    
   107   55   56 1    
   108   55   59 1    
   109   55  111 1    
   110   56   57 am   BACKBONE|DICT|INTERRES
   111   56   58 2    
   112   57  112 1    
   113   57  113 1    
   114   59   60 1    
   115   59  114 1    
   116   59  115 1    
   117   60   61 1    
   118   61  116 1    
   119   61  117 1    
@<TRIPOS>SUBSTRUCTURE
     1 UNK         1 GROUP             0       ****    0 ROOT    
