@<TRIPOS>MOLECULE
3R8
117   119    1
SMALL
USER_CHARGES


@<TRIPOS>ATOM
      1 CA         15.7640  -27.8360  -48.8236 C.3       0 UNK        -0.2013 
      2 C          17.2834  -27.8055  -48.7483 C.2       0 UNK         0.4866 
      3 O          17.9312  -27.3046  -49.6685 O.2       0 UNK        -0.5176 
      4 N          17.8542  -28.3452  -47.6636 N.am      1 UNK        -0.4884 
      5 CA         19.2946  -28.3403  -47.3817 C.3       1 UNK         0.0853 
      6 C6         19.7144  -29.6184  -46.5890 C.3       10 UNK        -0.0849 
      7 S7         19.7855  -29.4902  -44.7683 S.3       10 UNK        -0.2776 
      8 C8         18.0745  -29.8646  -44.2940 C.3       10 UNK         0.0316 
      9 C9         17.8596  -29.4597  -42.8486 C.ar      10 UNK        -0.0863 
     10 C10        18.1954  -30.3311  -41.8080 C.ar      10 UNK        -0.1009 
     11 C11        18.0532  -29.9339  -40.4700 C.ar      10 UNK        -0.0712 
     12 C12        17.5719  -28.6488  -40.1960 C.ar      10 UNK        -0.0894 
     13 C13        17.2369  -27.7708  -41.2309 C.ar      10 UNK        -0.0745 
     14 C14        17.3681  -28.1871  -42.5557 C.ar      10 UNK        -0.0972 
     15 C15        16.7671  -26.3595  -40.9209 C.3       10 UNK         0.0209 
     16 S16        18.1699  -25.2794  -40.5007 S.3       10 UNK        -0.2568 
     17 C17        19.0574  -25.1266  -42.0948 C.3       10 UNK        -0.0983 
     18 CA         20.2121  -26.1560  -42.3031 C.3       3 UNK         0.0876 
     19 N          20.6214  -26.2772  -43.7069 N.am      3 UNK        -0.4424 
     20 C          21.1823  -25.3112  -44.4500 C.2       2 UNK         0.4918 
     21 O          21.3467  -24.1543  -44.0604 O.2       2 UNK        -0.4875 
     22 CA         21.6660  -25.6828  -45.8672 C.3       2 UNK         0.0481 
     23 CB         23.1915  -25.8737  -45.8590 C.3       2 UNK        -0.1831 
     24 N          21.0378  -26.8733  -46.4529 N.am      2 UNK        -0.4498 
     25 C          19.7372  -26.9901  -46.7599 C.2       1 UNK         0.5027 
     26 O          18.9125  -26.0938  -46.5583 O.2       1 UNK        -0.4969 
     27 C          21.4486  -25.9755  -41.3919 C.2       3 UNK         0.5005 
     28 O          22.4807  -26.5969  -41.6542 O.2       3 UNK        -0.5279 
     29 N          21.3150  -25.1941  -40.3089 N.am      4 UNK        -0.4463 
     30 CA         22.3162  -24.9278  -39.2637 C.3       4 UNK         0.0283 
     31 CB         23.4832  -24.0962  -39.8371 C.3       4 UNK        -0.1875 
     32 C          22.8045  -26.2003  -38.5370 C.2       4 UNK         0.4949 
     33 O          23.9294  -26.2234  -38.0358 O.2       4 UNK        -0.5039 
     34 N          21.9542  -27.2404  -38.5207 N.am      5 UNK        -0.4663 
     35 CA         22.2294  -28.6127  -38.0736 C.3       5 UNK         0.0242 
     36 CB         22.4311  -28.6628  -36.5442 C.3       5 UNK        -0.1982 
     37 C          23.3760  -29.2934  -38.8554 C.2       5 UNK         0.5017 
     38 O          24.0683  -30.1459  -38.2977 O.2       5 UNK        -0.5012 
     39 N          23.5515  -28.9066  -40.1251 N.am      6 UNK        -0.4439 
     40 CA         24.5572  -29.4167  -41.0520 C.3       6 UNK         0.0297 
     41 CB         25.5559  -28.2811  -41.3521 C.3       6 UNK        -0.2006 
     42 C          23.8711  -29.9387  -42.3268 C.2       6 UNK         0.4892 
     43 O          22.6439  -30.0747  -42.3594 O.2       6 UNK        -0.5089 
     44 N          24.6890  -30.2375  -43.3479 N.am      7 UNK        -0.4243 
     45 CA         24.3236  -30.7795  -44.6608 C.3       7 UNK         0.0196 
     46 CB         23.5294  -29.7493  -45.4923 C.3       7 UNK        -0.2007 
     47 C          23.6420  -32.1526  -44.5402 C.2       7 UNK         0.5020 
     48 O          24.3466  -33.1567  -44.4304 O.2       7 UNK        -0.5147 
     49 N          22.3027  -32.1842  -44.5576 N.am      8 UNK        -0.4734 
     50 CA         21.5187  -33.4048  -44.3454 C.3       8 UNK         0.0238 
     51 CB         20.0888  -33.1963  -44.8643 C.3       8 UNK        -0.1912 
     52 C          21.4929  -33.8422  -42.8701 C.2       8 UNK         0.5038 
     53 O          21.3651  -35.0387  -42.6060 O.2       8 UNK        -0.5046 
     54 N          21.6110  -32.8779  -41.9493 N.am      9 UNK        -0.4200 
     55 CA         21.7212  -33.1036  -40.5034 C.3       9 UNK         0.0839 
     56 C          23.2035  -33.1921  -40.0478 C.2       9 UNK         0.5513 
     57 N          23.4417  -33.6574  -38.8289 N.am      9 UNK        -0.7519 
     58 O          24.1373  -32.8581  -40.7733 O.2       9 UNK        -0.4960 
     59 C59        20.9184  -32.0332  -39.7154 C.3       10 UNK        -0.0876 
     60 S60        19.1441  -32.4531  -39.6829 S.3       10 UNK        -0.2414 
     61 C61        18.3782  -30.8450  -39.2832 C.3       10 UNK         0.0169 
     62 H62        15.4430  -28.3764  -49.7138 H         1 UNK         0.0903 
     63 H63        15.3210  -28.3219  -47.9543 H         1 UNK         0.0903 
     64 H64        15.3716  -26.8210  -48.8809 H         1 UNK         0.0903 
     65 H65        17.2655  -28.7042  -46.9274 H         1 UNK         0.3096 
     66 H66        19.8085  -28.3942  -48.3447 H         1 UNK         0.1121 
     67 H67        19.0868  -30.4683  -46.8635 H         1 UNK         0.0849 
     68 H68        20.7158  -29.9093  -46.9087 H         1 UNK         0.0849 
     69 H69        17.3832  -29.3217  -44.9389 H         1 UNK         0.0865 
     70 H70        17.8600  -30.9241  -44.4346 H         1 UNK         0.0865 
     71 H71        18.5779  -31.3105  -42.0561 H         1 UNK         0.1346 
     72 H72        17.4657  -28.3236  -39.1697 H         1 UNK         0.1412 
     73 H73        17.1262  -27.5056  -43.3603 H         1 UNK         0.1426 
     74 H74        16.0734  -26.3830  -40.0792 H         1 UNK         0.0716 
     75 H75        16.2146  -25.9356  -41.7610 H         1 UNK         0.0716 
     76 H76        19.4327  -24.1055  -42.1800 H         1 UNK         0.0695 
     77 H77        18.3258  -25.2313  -42.8974 H         1 UNK         0.0695 
     78 H78        19.8317  -27.1431  -42.0428 H         1 UNK         0.0983 
     79 H79        20.5569  -27.2064  -44.1006 H         1 UNK         0.3095 
     80 H80        21.4343  -24.8392  -46.5206 H         1 UNK         0.0454 
     81 H81        23.4925  -26.6711  -45.1788 H         1 UNK         0.0851 
     82 H82        23.6942  -24.9640  -45.5275 H         1 UNK         0.0851 
     83 H83        23.5746  -26.1085  -46.8521 H         1 UNK         0.0851 
     84 H84        21.6482  -27.6563  -46.6343 H         1 UNK         0.2976 
     85 H85        20.4048  -24.7717  -40.1640 H         1 UNK         0.3116 
     86 H86        21.8157  -24.3209  -38.5079 H         1 UNK         0.0646 
     87 H87        24.0744  -24.6704  -40.5515 H         1 UNK         0.0847 
     88 H88        24.1588  -23.7689  -39.0459 H         1 UNK         0.0847 
     89 H89        23.1225  -23.2011  -40.3434 H         1 UNK         0.0847 
     90 H90        21.0508  -27.0957  -38.9494 H         1 UNK         0.3040 
     91 H91        21.3333  -29.1910  -38.3024 H         1 UNK         0.1015 
     92 H92        21.6024  -28.1885  -36.0186 H         1 UNK         0.0786 
     93 H93        23.3516  -28.1635  -36.2407 H         1 UNK         0.0786 
     94 H94        22.4893  -29.6930  -36.1904 H         1 UNK         0.0786 
     95 H95        22.9359  -28.2038  -40.5249 H         1 UNK         0.3172 
     96 H96        25.0972  -30.2541  -40.6064 H         1 UNK         0.0595 
     97 H97        25.0868  -27.4718  -41.9139 H         1 UNK         0.0839 
     98 H98        26.4087  -28.6347  -41.9317 H         1 UNK         0.0839 
     99 H99        25.9544  -27.8544  -40.4312 H         1 UNK         0.0839 
    100 H100       25.6815  -30.1308  -43.1940 H         1 UNK         0.2998 
    101 H101       25.2609  -30.9592  -45.1902 H         1 UNK         0.0822 
    102 H102       24.1632  -28.9037  -45.7572 H         1 UNK         0.0787 
    103 H103       23.1748  -30.1857  -46.4269 H         1 UNK         0.0787 
    104 H104       22.6679  -29.3567  -44.9548 H         1 UNK         0.0787 
    105 H105       21.7982  -31.3080  -44.5957 H         1 UNK         0.3055 
    106 H106       21.9750  -34.2130  -44.9220 H         1 UNK         0.1106 
    107 H107       19.5234  -34.1283  -44.8273 H         1 UNK         0.0828 
    108 H108       19.5512  -32.4697  -44.2575 H         1 UNK         0.0828 
    109 H109       20.0811  -32.8512  -45.8982 H         1 UNK         0.0828 
    110 H110       21.8009  -31.9299  -42.2586 H         1 UNK         0.2931 
    111 H111       21.2945  -34.0815  -40.2701 H         1 UNK         0.0412 
    112 H112       24.3957  -33.7158  -38.5084 H         1 UNK         0.3472 
    113 H113       22.6912  -33.9509  -38.2233 H         1 UNK         0.3472 
    114 H114       21.2508  -31.9611  -38.6782 H         1 UNK         0.0970 
    115 H115       21.0596  -31.0428  -40.1525 H         1 UNK         0.0970 
    116 H116       19.0187  -30.3136  -38.5779 H         1 UNK         0.0612 
    117 H117       17.4462  -31.0490  -38.7544 H         1 UNK         0.0612 
@<TRIPOS>BOND
     1    1    2 1    
     2    1   62 1    
     3    1   63 1    
     4    1   64 1    
     5    2    3 2    
     6    2    4 am   BACKBONE|DICT|INTERRES
     7    4    5 1    
     8    4   65 1    
     9    5    6 1    
    10    5   25 1    
    11    5   66 1    
    12    6    7 1    
    13    6   67 1    
    14    6   68 1    
    15    7    8 1    
    16    8    9 1    
    17    8   69 1    
    18    8   70 1    
    19    9   10 ar   
    20    9   14 ar   
    21   10   11 ar   
    22   10   71 1    
    23   11   12 ar   
    24   11   61 1    
    25   12   13 ar   
    26   12   72 1    
    27   13   14 ar   
    28   13   15 1    
    29   14   73 1    
    30   15   16 1    
    31   15   74 1    
    32   15   75 1    
    33   16   17 1    
    34   17   18 1    
    35   17   76 1    
    36   17   77 1    
    37   18   19 1    
    38   18   27 1    
    39   18   78 1    
    40   19   20 am   BACKBONE|DICT|INTERRES
    41   19   79 1    
    42   20   21 2    
    43   20   22 1    
    44   22   23 1    
    45   22   24 1    
    46   22   80 1    
    47   23   81 1    
    48   23   82 1    
    49   23   83 1    
    50   24   25 am   BACKBONE|DICT|INTERRES
    51   24   84 1    
    52   25   26 2    
    53   27   28 2    
    54   27   29 am   BACKBONE|DICT|INTERRES
    55   29   30 1    
    56   29   85 1    
    57   30   31 1    
    58   30   32 1    
    59   30   86 1    
    60   31   87 1    
    61   31   88 1    
    62   31   89 1    
    63   32   33 2    
    64   32   34 am   BACKBONE|DICT|INTERRES
    65   34   35 1    
    66   34   90 1    
    67   35   36 1    
    68   35   37 1    
    69   35   91 1    
    70   36   92 1    
    71   36   93 1    
    72   36   94 1    
    73   37   38 2    
    74   37   39 am   BACKBONE|DICT|INTERRES
    75   39   40 1    
    76   39   95 1    
    77   40   41 1    
    78   40   42 1    
    79   40   96 1    
    80   41   97 1    
    81   41   98 1    
    82   41   99 1    
    83   42   43 2    
    84   42   44 am   BACKBONE|DICT|INTERRES
    85   44   45 1    
    86   44  100 1    
    87   45   46 1    
    88   45   47 1    
    89   45  101 1    
    90   46  102 1    
    91   46  103 1    
    92   46  104 1    
    93   47   48 2    
    94   47   49 am   BACKBONE|DICT|INTERRES
    95   49   50 1    
    96   49  105 1    
    97   50   51 1    
    98   50   52 1    
    99   50  106 1    
   100   51  107 1    
   101   51  108 1    
   102   51  109 1    
   103   52   53 2    
   104   52   54 am   BACKBONE|DICT|INTERRES
   105   54   55 1    
   106   54  110 1    
   107   55   56 1    
   108   55   59 1    
   109   55  111 1    
   110   56   57 am   BACKBONE|DICT|INTERRES
   111   56   58 2    
   112   57  112 1    
   113   57  113 1    
   114   59   60 1    
   115   59  114 1    
   116   59  115 1    
   117   60   61 1    
   118   61  116 1    
   119   61  117 1    
@<TRIPOS>SUBSTRUCTURE
     1 UNK         1 GROUP             0       ****    0 ROOT    
