@<TRIPOS>MOLECULE
3R8
117   119    1
SMALL
USER_CHARGES


@<TRIPOS>ATOM
      1 CA         15.7998  -22.6789  -42.3964 C.3       0 UNK        -0.2013 
      2 C          16.3225  -23.2074  -43.7239 C.2       0 UNK         0.4866 
      3 O          16.4568  -22.4411  -44.6789 O.2       0 UNK        -0.5176 
      4 N          16.6070  -24.5135  -43.7933 N.am      1 UNK        -0.4884 
      5 CA         17.1610  -25.1978  -44.9684 C.3       1 UNK         0.0853 
      6 C6         17.1068  -26.7446  -44.8370 C.3       10 UNK        -0.0849 
      7 S7         15.5381  -27.3972  -44.1731 S.3       10 UNK        -0.2776 
      8 C8         15.6264  -29.1400  -44.6926 C.3       10 UNK         0.0316 
      9 C9         16.8799  -29.8447  -44.1864 C.ar      10 UNK        -0.0863 
     10 C10        16.9516  -30.3122  -42.8705 C.ar      10 UNK        -0.1009 
     11 C11        18.0671  -31.0348  -42.4321 C.ar      10 UNK        -0.0712 
     12 C12        19.1252  -31.2651  -43.3182 C.ar      10 UNK        -0.0894 
     13 C13        19.0857  -30.7703  -44.6250 C.ar      10 UNK        -0.0745 
     14 C14        17.9512  -30.0734  -45.0546 C.ar      10 UNK        -0.0972 
     15 C15        20.2320  -31.0690  -45.5869 C.3       10 UNK         0.0209 
     16 S16        20.7128  -29.6383  -46.6142 S.3       10 UNK        -0.2568 
     17 C17        22.1786  -28.9625  -45.7531 C.3       10 UNK        -0.0983 
     18 CA         21.9325  -27.6564  -44.9460 C.3       3 UNK         0.0876 
     19 N          21.1219  -26.6901  -45.6893 N.am      3 UNK        -0.4424 
     20 C          21.5334  -25.5060  -46.1564 C.2       2 UNK         0.4918 
     21 O          22.6798  -25.0750  -46.0313 O.2       2 UNK        -0.4875 
     22 CA         20.4769  -24.6418  -46.8775 C.3       2 UNK         0.0481 
     23 CB         20.5998  -24.8142  -48.3999 C.3       2 UNK        -0.1831 
     24 N          19.0895  -24.9115  -46.4699 N.am      2 UNK        -0.4498 
     25 C          18.6211  -24.7667  -45.2216 C.2       1 UNK         0.5027 
     26 O          19.3237  -24.4019  -44.2752 O.2       1 UNK        -0.4969 
     27 C          21.3787  -27.9083  -43.5272 C.2       3 UNK         0.5005 
     28 O          21.8082  -28.8673  -42.8843 O.2       3 UNK        -0.5279 
     29 N          20.4784  -27.0448  -43.0242 N.am      4 UNK        -0.4463 
     30 CA         19.9804  -27.1166  -41.6458 C.3       4 UNK         0.0283 
     31 CB         18.8058  -26.1483  -41.4357 C.3       4 UNK        -0.1875 
     32 C          21.1031  -26.8165  -40.6410 C.2       4 UNK         0.4949 
     33 O          21.8648  -25.8694  -40.8449 O.2       4 UNK        -0.5039 
     34 N          21.1846  -27.6453  -39.5923 N.am      5 UNK        -0.4663 
     35 CA         22.2000  -27.6446  -38.5279 C.3       5 UNK         0.0242 
     36 CB         22.1403  -26.3386  -37.7067 C.3       5 UNK        -0.1982 
     37 C          23.6366  -27.9742  -38.9942 C.2       5 UNK         0.5017 
     38 O          24.5637  -27.8582  -38.1905 O.2       5 UNK        -0.5012 
     39 N          23.8074  -28.4065  -40.2523 N.am      6 UNK        -0.4439 
     40 CA         25.0626  -28.9369  -40.7891 C.3       6 UNK         0.0297 
     41 CB         25.0599  -28.7660  -42.3193 C.3       6 UNK        -0.2006 
     42 C          25.2302  -30.4171  -40.4047 C.2       6 UNK         0.4892 
     43 O          24.3174  -31.0152  -39.8298 O.2       6 UNK        -0.5089 
     44 N          26.3700  -31.0118  -40.7837 N.am      7 UNK        -0.4243 
     45 CA         26.6822  -32.4353  -40.5817 C.3       7 UNK         0.0196 
     46 CB         28.1126  -32.7137  -41.0710 C.3       7 UNK        -0.2007 
     47 C          25.6865  -33.4067  -41.2498 C.2       7 UNK         0.5020 
     48 O          25.5353  -34.5349  -40.7818 O.2       7 UNK        -0.5147 
     49 N          25.0080  -32.9454  -42.3095 N.am      8 UNK        -0.4734 
     50 CA         23.9125  -33.6507  -42.9798 C.3       8 UNK         0.0238 
     51 CB         23.7006  -33.0244  -44.3685 C.3       8 UNK        -0.1912 
     52 C          22.5906  -33.6407  -42.1854 C.2       8 UNK         0.5038 
     53 O          21.7190  -34.4585  -42.4817 O.2       8 UNK        -0.5046 
     54 N          22.4521  -32.7184  -41.2242 N.am      9 UNK        -0.4200 
     55 CA         21.2745  -32.5449  -40.3643 C.3       9 UNK         0.0839 
     56 C          21.5272  -33.0698  -38.9271 C.2       9 UNK         0.5513 
     57 N          22.6939  -32.8225  -38.3446 N.am      9 UNK        -0.7519 
     58 O          20.6669  -33.7238  -38.3436 O.2       9 UNK        -0.4960 
     59 C59        20.8297  -31.0575  -40.3682 C.3       10 UNK        -0.0876 
     60 S60        19.1129  -30.7316  -39.8342 S.3       10 UNK        -0.2414 
     61 C61        18.0819  -31.6444  -41.0344 C.3       10 UNK         0.0169 
     62 H62        16.4651  -21.9056  -42.0132 H         1 UNK         0.0903 
     63 H63        14.8101  -22.2426  -42.5292 H         1 UNK         0.0903 
     64 H64        15.7260  -23.4649  -41.6449 H         1 UNK         0.0903 
     65 H65        16.4549  -25.1006  -42.9864 H         1 UNK         0.3096 
     66 H66        16.5610  -24.8999  -45.8314 H         1 UNK         0.1121 
     67 H67        17.9043  -27.1191  -44.1940 H         1 UNK         0.0849 
     68 H68        17.2788  -27.1983  -45.8148 H         1 UNK         0.0849 
     69 H69        14.7427  -29.6624  -44.3233 H         1 UNK         0.0865 
     70 H70        15.5706  -29.1911  -45.7812 H         1 UNK         0.0865 
     71 H71        16.1196  -30.1449  -42.2001 H         1 UNK         0.1346 
     72 H72        19.9728  -31.8544  -42.9992 H         1 UNK         0.1412 
     73 H73        17.8938  -29.7256  -46.0768 H         1 UNK         0.1426 
     74 H74        19.9134  -31.8735  -46.2507 H         1 UNK         0.0716 
     75 H75        21.1019  -31.4468  -45.0491 H         1 UNK         0.0716 
     76 H76        22.9103  -28.7447  -46.5323 H         1 UNK         0.0695 
     77 H77        22.6501  -29.7336  -45.1425 H         1 UNK         0.0695 
     78 H78        22.9164  -27.2210  -44.7584 H         1 UNK         0.0983 
     79 H79        20.1741  -26.9783  -45.8800 H         1 UNK         0.3095 
     80 H80        20.6918  -23.5990  -46.6354 H         1 UNK         0.0454 
     81 H81        20.3720  -25.8345  -48.7113 H         1 UNK         0.0851 
     82 H82        21.6129  -24.5904  -48.7374 H         1 UNK         0.0851 
     83 H83        19.9287  -24.1406  -48.9330 H         1 UNK         0.0851 
     84 H84        18.4619  -25.2266  -47.1965 H         1 UNK         0.2976 
     85 H85        20.2447  -26.2109  -43.5498 H         1 UNK         0.3116 
     86 H86        19.6137  -28.1319  -41.4782 H         1 UNK         0.0646 
     87 H87        17.9375  -26.4436  -42.0203 H         1 UNK         0.0847 
     88 H88        19.0704  -25.1242  -41.7010 H         1 UNK         0.0847 
     89 H89        18.4907  -26.1400  -40.3913 H         1 UNK         0.0847 
     90 H90        20.4973  -28.3852  -39.5282 H         1 UNK         0.3040 
     91 H91        21.9235  -28.4603  -37.8576 H         1 UNK         0.1015 
     92 H92        22.4814  -25.4789  -38.2840 H         1 UNK         0.0786 
     93 H93        22.7735  -26.4031  -36.8209 H         1 UNK         0.0786 
     94 H94        21.1270  -26.1318  -37.3624 H         1 UNK         0.0786 
     95 H95        22.9935  -28.4946  -40.8472 H         1 UNK         0.3172 
     96 H96        25.9000  -28.3724  -40.3740 H         1 UNK         0.0595 
     97 H97        24.3458  -29.4344  -42.8014 H         1 UNK         0.0839 
     98 H98        26.0410  -28.9806  -42.7441 H         1 UNK         0.0839 
     99 H99        24.8064  -27.7448  -42.6050 H         1 UNK         0.0839 
    100 H100       27.0735  -30.4587  -41.2525 H         1 UNK         0.2998 
    101 H101       26.6437  -32.6280  -39.5073 H         1 UNK         0.0822 
    102 H102       28.8418  -32.1053  -40.5355 H         1 UNK         0.0787 
    103 H103       28.3845  -33.7579  -40.9089 H         1 UNK         0.0787 
    104 H104       28.2214  -32.5106  -42.1372 H         1 UNK         0.0787 
    105 H105       25.2173  -32.0137  -42.6364 H         1 UNK         0.3055 
    106 H106       24.2017  -34.6959  -43.1120 H         1 UNK         0.1106 
    107 H107       23.4320  -31.9699  -44.2976 H         1 UNK         0.0828 
    108 H108       22.8989  -33.5300  -44.9089 H         1 UNK         0.0828 
    109 H109       24.5992  -33.1022  -44.9807 H         1 UNK         0.0828 
    110 H110       23.2439  -32.1291  -40.9914 H         1 UNK         0.2931 
    111 H111       20.4666  -33.1471  -40.7751 H         1 UNK         0.0412 
    112 H112       22.8694  -33.1705  -37.4157 H         1 UNK         0.3472 
    113 H113       23.3844  -32.2389  -38.8097 H         1 UNK         0.3472 
    114 H114       20.9375  -30.6387  -41.3654 H         1 UNK         0.0970 
    115 H115       21.5036  -30.4678  -39.7454 H         1 UNK         0.0970 
    116 H116       17.0657  -31.6657  -40.6379 H         1 UNK         0.0612 
    117 H117       18.3823  -32.6895  -41.0898 H         1 UNK         0.0612 
@<TRIPOS>BOND
     1    1    2 1    
     2    1   62 1    
     3    1   63 1    
     4    1   64 1    
     5    2    3 2    
     6    2    4 am   BACKBONE|DICT|INTERRES
     7    4    5 1    
     8    4   65 1    
     9    5    6 1    
    10    5   25 1    
    11    5   66 1    
    12    6    7 1    
    13    6   67 1    
    14    6   68 1    
    15    7    8 1    
    16    8    9 1    
    17    8   69 1    
    18    8   70 1    
    19    9   10 ar   
    20    9   14 ar   
    21   10   11 ar   
    22   10   71 1    
    23   11   12 ar   
    24   11   61 1    
    25   12   13 ar   
    26   12   72 1    
    27   13   14 ar   
    28   13   15 1    
    29   14   73 1    
    30   15   16 1    
    31   15   74 1    
    32   15   75 1    
    33   16   17 1    
    34   17   18 1    
    35   17   76 1    
    36   17   77 1    
    37   18   19 1    
    38   18   27 1    
    39   18   78 1    
    40   19   20 am   BACKBONE|DICT|INTERRES
    41   19   79 1    
    42   20   21 2    
    43   20   22 1    
    44   22   23 1    
    45   22   24 1    
    46   22   80 1    
    47   23   81 1    
    48   23   82 1    
    49   23   83 1    
    50   24   25 am   BACKBONE|DICT|INTERRES
    51   24   84 1    
    52   25   26 2    
    53   27   28 2    
    54   27   29 am   BACKBONE|DICT|INTERRES
    55   29   30 1    
    56   29   85 1    
    57   30   31 1    
    58   30   32 1    
    59   30   86 1    
    60   31   87 1    
    61   31   88 1    
    62   31   89 1    
    63   32   33 2    
    64   32   34 am   BACKBONE|DICT|INTERRES
    65   34   35 1    
    66   34   90 1    
    67   35   36 1    
    68   35   37 1    
    69   35   91 1    
    70   36   92 1    
    71   36   93 1    
    72   36   94 1    
    73   37   38 2    
    74   37   39 am   BACKBONE|DICT|INTERRES
    75   39   40 1    
    76   39   95 1    
    77   40   41 1    
    78   40   42 1    
    79   40   96 1    
    80   41   97 1    
    81   41   98 1    
    82   41   99 1    
    83   42   43 2    
    84   42   44 am   BACKBONE|DICT|INTERRES
    85   44   45 1    
    86   44  100 1    
    87   45   46 1    
    88   45   47 1    
    89   45  101 1    
    90   46  102 1    
    91   46  103 1    
    92   46  104 1    
    93   47   48 2    
    94   47   49 am   BACKBONE|DICT|INTERRES
    95   49   50 1    
    96   49  105 1    
    97   50   51 1    
    98   50   52 1    
    99   50  106 1    
   100   51  107 1    
   101   51  108 1    
   102   51  109 1    
   103   52   53 2    
   104   52   54 am   BACKBONE|DICT|INTERRES
   105   54   55 1    
   106   54  110 1    
   107   55   56 1    
   108   55   59 1    
   109   55  111 1    
   110   56   57 am   BACKBONE|DICT|INTERRES
   111   56   58 2    
   112   57  112 1    
   113   57  113 1    
   114   59   60 1    
   115   59  114 1    
   116   59  115 1    
   117   60   61 1    
   118   61  116 1    
   119   61  117 1    
@<TRIPOS>SUBSTRUCTURE
     1 UNK         1 GROUP             0       ****    0 ROOT    
