@<TRIPOS>MOLECULE
3R8
117   119    1
SMALL
USER_CHARGES


@<TRIPOS>ATOM
      1 CA         15.4594  -25.1953  -44.9000 C.3       0 UNK        -0.2013 
      2 C          14.8792  -25.7969  -46.1788 C.2       0 UNK         0.4866 
      3 O          13.7501  -25.4496  -46.5203 O.2       0 UNK        -0.5176 
      4 N          15.5519  -26.6843  -46.9301 N.am      1 UNK        -0.4884 
      5 CA         16.8967  -27.2718  -46.7940 C.3       1 UNK         0.0853 
      6 C6         17.1107  -28.1223  -45.5074 C.3       10 UNK        -0.0849 
      7 S7         15.8214  -29.3687  -45.1612 S.3       10 UNK        -0.2776 
      8 C8         15.2034  -28.8731  -43.5139 C.3       10 UNK         0.0316 
      9 C9         16.3161  -28.7443  -42.4782 C.ar      10 UNK        -0.0863 
     10 C10        16.9183  -29.8808  -41.9300 C.ar      10 UNK        -0.1009 
     11 C11        17.9538  -29.7549  -40.9967 C.ar      10 UNK        -0.0712 
     12 C12        18.3969  -28.4801  -40.6249 C.ar      10 UNK        -0.0894 
     13 C13        17.8081  -27.3374  -41.1739 C.ar      10 UNK        -0.0745 
     14 C14        16.7507  -27.4786  -42.0744 C.ar      10 UNK        -0.0972 
     15 C15        18.3060  -25.9453  -40.8111 C.3       10 UNK         0.0209 
     16 S16        19.0854  -25.1157  -42.2384 S.3       10 UNK        -0.2568 
     17 C17        20.7327  -25.8967  -42.2793 C.3       10 UNK        -0.0983 
     18 CA         20.8059  -27.1148  -43.2360 C.3       3 UNK         0.0876 
     19 N          20.4665  -26.8309  -44.6391 N.am      3 UNK        -0.4424 
     20 C          21.0538  -25.9956  -45.5094 C.2       2 UNK         0.4918 
     21 O          22.0174  -25.2831  -45.2268 O.2       2 UNK        -0.4875 
     22 CA         20.5201  -26.0004  -46.9581 C.3       2 UNK         0.0481 
     23 CB         21.5729  -26.5979  -47.9070 C.3       2 UNK        -0.1831 
     24 N          19.2743  -26.7672  -47.0882 N.am      2 UNK        -0.4498 
     25 C          18.0450  -26.2470  -46.9620 C.2       1 UNK         0.5027 
     26 O          17.8240  -25.0347  -46.9286 O.2       1 UNK        -0.4969 
     27 C          22.1427  -27.8617  -43.0649 C.2       3 UNK         0.5005 
     28 O          22.2012  -28.7800  -42.2512 O.2       3 UNK        -0.5279 
     29 N          23.1886  -27.4709  -43.8083 N.am      4 UNK        -0.4463 
     30 CA         24.5241  -28.0832  -43.8505 C.3       4 UNK         0.0283 
     31 CB         24.4588  -29.4169  -44.6172 C.3       4 UNK        -0.1875 
     32 C          25.1419  -28.2144  -42.4429 C.2       4 UNK         0.4949 
     33 O          25.3530  -29.3226  -41.9405 O.2       4 UNK        -0.5039 
     34 N          25.3101  -27.0476  -41.8022 N.am      5 UNK        -0.4663 
     35 CA         25.7433  -26.8303  -40.4128 C.3       5 UNK         0.0242 
     36 CB         27.1609  -27.3968  -40.1810 C.3       5 UNK        -0.1982 
     37 C          24.7431  -27.3283  -39.3473 C.2       5 UNK         0.5017 
     38 O          25.0937  -27.3506  -38.1669 O.2       5 UNK        -0.5012 
     39 N          23.5300  -27.7189  -39.7730 N.am      6 UNK        -0.4439 
     40 CA         22.4735  -28.3703  -38.9890 C.3       6 UNK         0.0297 
     41 CB         21.9028  -27.4221  -37.9138 C.3       6 UNK        -0.2006 
     42 C          22.9253  -29.7345  -38.4306 C.2       6 UNK         0.4892 
     43 O          22.5242  -30.1113  -37.3277 O.2       6 UNK        -0.5089 
     44 N          23.7693  -30.4351  -39.2005 N.am      7 UNK        -0.4243 
     45 CA         24.3807  -31.7077  -38.8288 C.3       7 UNK         0.0196 
     46 CB         25.8237  -31.4698  -38.3504 C.3       7 UNK        -0.2007 
     47 C          24.3361  -32.6896  -40.0009 C.2       7 UNK         0.5020 
     48 O          23.8269  -33.7992  -39.8396 O.2       7 UNK        -0.5147 
     49 N          24.8433  -32.2729  -41.1711 N.am      8 UNK        -0.4734 
     50 CA         24.9091  -33.1191  -42.3699 C.3       8 UNK         0.0238 
     51 CB         26.0146  -32.6021  -43.3032 C.3       8 UNK        -0.1912 
     52 C          23.5586  -33.2897  -43.0941 C.2       8 UNK         0.5038 
     53 O          23.4715  -34.1069  -44.0117 O.2       8 UNK        -0.5046 
     54 N          22.5279  -32.5565  -42.6538 N.am      9 UNK        -0.4200 
     55 CA         21.1185  -32.7622  -43.0181 C.3       9 UNK         0.0839 
     56 C          20.5017  -34.1019  -42.5139 C.2       9 UNK         0.5513 
     57 N          21.1094  -34.8015  -41.5611 N.am      9 UNK        -0.7519 
     58 O          19.4553  -34.5157  -43.0061 O.2       9 UNK        -0.4960 
     59 C59        20.2491  -31.5453  -42.6074 C.3       10 UNK        -0.0876 
     60 S60        20.3407  -31.1659  -40.8195 S.3       10 UNK        -0.2414 
     61 C61        18.5853  -30.9948  -40.3776 C.3       10 UNK         0.0169 
     62 H62        15.3988  -24.1088  -44.9529 H         1 UNK         0.0903 
     63 H63        14.8717  -25.5157  -44.0413 H         1 UNK         0.0903 
     64 H64        16.4995  -25.4433  -44.7162 H         1 UNK         0.0903 
     65 H65        15.0733  -27.0024  -47.7612 H         1 UNK         0.3096 
     66 H66        16.9820  -27.9501  -47.6452 H         1 UNK         0.1121 
     67 H67        17.2491  -27.4787  -44.6442 H         1 UNK         0.0849 
     68 H68        18.0395  -28.6889  -45.5852 H         1 UNK         0.0849 
     69 H69        14.6528  -27.9365  -43.6080 H         1 UNK         0.0865 
     70 H70        14.4781  -29.6133  -43.1730 H         1 UNK         0.0865 
     71 H71        16.5802  -30.8622  -42.2339 H         1 UNK         0.1346 
     72 H72        19.2072  -28.3828  -39.9157 H         1 UNK         0.1412 
     73 H73        16.2916  -26.5920  -42.4865 H         1 UNK         0.1426 
     74 H74        19.0034  -25.9794  -39.9727 H         1 UNK         0.0716 
     75 H75        17.4590  -25.3440  -40.4778 H         1 UNK         0.0716 
     76 H76        21.0009  -26.1897  -41.2621 H         1 UNK         0.0695 
     77 H77        21.4588  -25.1361  -42.5706 H         1 UNK         0.0695 
     78 H78        20.0446  -27.8242  -42.9078 H         1 UNK         0.0983 
     79 H79        19.7028  -27.3811  -44.9945 H         1 UNK         0.3095 
     80 H80        20.3529  -24.9618  -47.2505 H         1 UNK         0.0454 
     81 H81        21.8138  -27.6303  -47.6503 H         1 UNK         0.0851 
     82 H82        22.5026  -26.0284  -47.8686 H         1 UNK         0.0851 
     83 H83        21.2294  -26.5803  -48.9414 H         1 UNK         0.0851 
     84 H84        19.3760  -27.7674  -47.1943 H         1 UNK         0.2976 
     85 H85        23.0402  -26.6647  -44.4109 H         1 UNK         0.3116 
     86 H86        25.1630  -27.4059  -44.4194 H         1 UNK         0.0646 
     87 H87        23.9642  -29.2964  -45.5808 H         1 UNK         0.0847 
     88 H88        25.4621  -29.7893  -44.8209 H         1 UNK         0.0847 
     89 H89        23.9167  -30.1815  -44.0594 H         1 UNK         0.0847 
     90 H90        25.0669  -26.2063  -42.3084 H         1 UNK         0.3040 
     91 H91        25.7977  -25.7485  -40.2802 H         1 UNK         0.1015 
     92 H92        27.1725  -28.4869  -40.2033 H         1 UNK         0.0786 
     93 H93        27.5508  -27.0914  -39.2092 H         1 UNK         0.0786 
     94 H94        27.8610  -27.0376  -40.9352 H         1 UNK         0.0786 
     95 H95        23.3702  -27.7263  -40.7732 H         1 UNK         0.3172 
     96 H96        21.6649  -28.5870  -39.6870 H         1 UNK         0.0595 
     97 H97        22.6310  -27.2099  -37.1307 H         1 UNK         0.0839 
     98 H98        21.0288  -27.8620  -37.4320 H         1 UNK         0.0839 
     99 H99        21.5884  -26.4732  -38.3481 H         1 UNK         0.0839 
    100 H100       24.0244  -30.0498  -40.1014 H         1 UNK         0.2998 
    101 H101       23.8206  -32.1661  -38.0106 H         1 UNK         0.0822 
    102 H102       26.3116  -32.4111  -38.0936 H         1 UNK         0.0787 
    103 H103       26.4305  -30.9816  -39.1141 H         1 UNK         0.0787 
    104 H104       25.8430  -30.8404  -37.4604 H         1 UNK         0.0787 
    105 H105       25.2187  -31.3339  -41.2598 H         1 UNK         0.3055 
    106 H106       25.2006  -34.1253  -42.0590 H         1 UNK         0.1106 
    107 H107       26.0231  -33.1400  -44.2523 H         1 UNK         0.0828 
    108 H108       25.8945  -31.5452  -43.5222 H         1 UNK         0.0828 
    109 H109       26.9981  -32.7319  -42.8516 H         1 UNK         0.0828 
    110 H110       22.6895  -31.9038  -41.9009 H         1 UNK         0.2931 
    111 H111       21.0874  -32.8169  -44.1079 H         1 UNK         0.0412 
    112 H112       20.7002  -35.6675  -41.2480 H         1 UNK         0.3472 
    113 H113       21.9570  -34.4591  -41.1302 H         1 UNK         0.3472 
    114 H114       20.5762  -30.6617  -43.1554 H         1 UNK         0.0970 
    115 H115       19.2107  -31.6998  -42.9059 H         1 UNK         0.0970 
    116 H116       18.0512  -31.9000  -40.6711 H         1 UNK         0.0612 
    117 H117       18.5041  -30.9279  -39.2920 H         1 UNK         0.0612 
@<TRIPOS>BOND
     1    1    2 1    
     2    1   62 1    
     3    1   63 1    
     4    1   64 1    
     5    2    3 2    
     6    2    4 am   BACKBONE|DICT|INTERRES
     7    4    5 1    
     8    4   65 1    
     9    5    6 1    
    10    5   25 1    
    11    5   66 1    
    12    6    7 1    
    13    6   67 1    
    14    6   68 1    
    15    7    8 1    
    16    8    9 1    
    17    8   69 1    
    18    8   70 1    
    19    9   10 ar   
    20    9   14 ar   
    21   10   11 ar   
    22   10   71 1    
    23   11   12 ar   
    24   11   61 1    
    25   12   13 ar   
    26   12   72 1    
    27   13   14 ar   
    28   13   15 1    
    29   14   73 1    
    30   15   16 1    
    31   15   74 1    
    32   15   75 1    
    33   16   17 1    
    34   17   18 1    
    35   17   76 1    
    36   17   77 1    
    37   18   19 1    
    38   18   27 1    
    39   18   78 1    
    40   19   20 am   BACKBONE|DICT|INTERRES
    41   19   79 1    
    42   20   21 2    
    43   20   22 1    
    44   22   23 1    
    45   22   24 1    
    46   22   80 1    
    47   23   81 1    
    48   23   82 1    
    49   23   83 1    
    50   24   25 am   BACKBONE|DICT|INTERRES
    51   24   84 1    
    52   25   26 2    
    53   27   28 2    
    54   27   29 am   BACKBONE|DICT|INTERRES
    55   29   30 1    
    56   29   85 1    
    57   30   31 1    
    58   30   32 1    
    59   30   86 1    
    60   31   87 1    
    61   31   88 1    
    62   31   89 1    
    63   32   33 2    
    64   32   34 am   BACKBONE|DICT|INTERRES
    65   34   35 1    
    66   34   90 1    
    67   35   36 1    
    68   35   37 1    
    69   35   91 1    
    70   36   92 1    
    71   36   93 1    
    72   36   94 1    
    73   37   38 2    
    74   37   39 am   BACKBONE|DICT|INTERRES
    75   39   40 1    
    76   39   95 1    
    77   40   41 1    
    78   40   42 1    
    79   40   96 1    
    80   41   97 1    
    81   41   98 1    
    82   41   99 1    
    83   42   43 2    
    84   42   44 am   BACKBONE|DICT|INTERRES
    85   44   45 1    
    86   44  100 1    
    87   45   46 1    
    88   45   47 1    
    89   45  101 1    
    90   46  102 1    
    91   46  103 1    
    92   46  104 1    
    93   47   48 2    
    94   47   49 am   BACKBONE|DICT|INTERRES
    95   49   50 1    
    96   49  105 1    
    97   50   51 1    
    98   50   52 1    
    99   50  106 1    
   100   51  107 1    
   101   51  108 1    
   102   51  109 1    
   103   52   53 2    
   104   52   54 am   BACKBONE|DICT|INTERRES
   105   54   55 1    
   106   54  110 1    
   107   55   56 1    
   108   55   59 1    
   109   55  111 1    
   110   56   57 am   BACKBONE|DICT|INTERRES
   111   56   58 2    
   112   57  112 1    
   113   57  113 1    
   114   59   60 1    
   115   59  114 1    
   116   59  115 1    
   117   60   61 1    
   118   61  116 1    
   119   61  117 1    
@<TRIPOS>SUBSTRUCTURE
     1 UNK         1 GROUP             0       ****    0 ROOT    
