@<TRIPOS>MOLECULE
3R8
117   119    1
SMALL
USER_CHARGES


@<TRIPOS>ATOM
      1 CA         18.4711  -26.9664  -48.7179 C.3       0 UNK        -0.2013 
      2 C          18.3116  -27.5194  -47.3097 C.2       0 UNK         0.4866 
      3 O          18.5326  -28.7093  -47.0913 O.2       0 UNK        -0.5176 
      4 N          17.9253  -26.6667  -46.3531 N.am      1 UNK        -0.4884 
      5 CA         17.7751  -27.0004  -44.9354 C.3       1 UNK         0.0853 
      6 C6         16.7683  -26.0310  -44.2646 C.3       10 UNK        -0.0849 
      7 S7         16.3989  -26.3768  -42.5114 S.3       10 UNK        -0.2776 
      8 C8         15.3502  -27.8647  -42.6131 C.3       10 UNK         0.0316 
      9 C9         16.1597  -29.1159  -42.3083 C.ar      10 UNK        -0.0863 
     10 C10        16.4336  -30.0615  -43.3018 C.ar      10 UNK        -0.1009 
     11 C11        17.2150  -31.1846  -43.0112 C.ar      10 UNK        -0.0712 
     12 C12        17.7124  -31.3646  -41.7178 C.ar      10 UNK        -0.0894 
     13 C13        17.4266  -30.4367  -40.7141 C.ar      10 UNK        -0.0745 
     14 C14        16.6421  -29.3211  -41.0130 C.ar      10 UNK        -0.0972 
     15 C15        17.9657  -30.6435  -39.3086 C.3       10 UNK         0.0209 
     16 S16        19.7033  -30.1256  -39.1766 S.3       10 UNK        -0.2568 
     17 C17        19.5603  -28.3057  -39.1823 C.3       10 UNK        -0.0983 
     18 CA         20.6420  -27.6531  -40.0729 C.3       3 UNK         0.0876 
     19 N          20.5202  -28.0352  -41.4881 N.am      3 UNK        -0.4424 
     20 C          21.5071  -27.9225  -42.3882 C.2       2 UNK         0.4918 
     21 O          22.6237  -27.4846  -42.1152 O.2       2 UNK        -0.4875 
     22 CA         21.2182  -28.3495  -43.8336 C.3       2 UNK         0.0481 
     23 CB         21.6622  -29.8040  -44.0429 C.3       2 UNK        -0.1831 
     24 N          19.8254  -28.1773  -44.2618 N.am      2 UNK        -0.4498 
     25 C          19.1687  -27.0069  -44.2759 C.2       1 UNK         0.5027 
     26 O          19.6414  -25.9557  -43.8387 O.2       1 UNK        -0.4969 
     27 C          20.7316  -26.1276  -39.8467 C.2       3 UNK         0.5005 
     28 O          21.0447  -25.7118  -38.7300 O.2       3 UNK        -0.5279 
     29 N          20.5267  -25.3155  -40.8964 N.am      4 UNK        -0.4463 
     30 CA         20.8958  -23.8966  -40.9116 C.3       4 UNK         0.0283 
     31 CB         20.1769  -23.1983  -42.0771 C.3       4 UNK        -0.1875 
     32 C          22.4219  -23.6780  -41.0100 C.2       4 UNK         0.4949 
     33 O          22.8808  -22.5641  -40.7553 O.2       4 UNK        -0.5039 
     34 N          23.1744  -24.7233  -41.3812 N.am      5 UNK        -0.4663 
     35 CA         24.6258  -24.7344  -41.5187 C.3       5 UNK         0.0242 
     36 CB         24.9869  -24.6729  -43.0183 C.3       5 UNK        -0.1982 
     37 C          25.1903  -25.9589  -40.7743 C.2       5 UNK         0.5017 
     38 O          25.0847  -26.0153  -39.5486 O.2       5 UNK        -0.5012 
     39 N          25.8024  -26.8970  -41.5098 N.am      6 UNK        -0.4439 
     40 CA         26.5691  -28.0307  -40.9817 C.3       6 UNK         0.0297 
     41 CB         27.5066  -28.5421  -42.0893 C.3       6 UNK        -0.2006 
     42 C          25.7377  -29.1979  -40.4118 C.2       6 UNK         0.4892 
     43 O          26.3201  -30.0352  -39.7205 O.2       6 UNK        -0.5089 
     44 N          24.4303  -29.2447  -40.7123 N.am      7 UNK        -0.4243 
     45 CA         23.4670  -30.3189  -40.4150 C.3       7 UNK         0.0196 
     46 CB         23.4217  -30.6563  -38.9088 C.3       7 UNK        -0.2007 
     47 C          23.6555  -31.5757  -41.2862 C.2       7 UNK         0.5020 
     48 O          24.6993  -31.7483  -41.9166 O.2       7 UNK        -0.5147 
     49 N          22.6116  -32.4205  -41.2925 N.am      8 UNK        -0.4734 
     50 CA         22.4544  -33.6850  -42.0272 C.3       8 UNK         0.0238 
     51 CB         23.5243  -34.7151  -41.6084 C.3       8 UNK        -0.1912 
     52 C          22.4105  -33.4955  -43.5566 C.2       8 UNK         0.5038 
     53 O          23.4544  -33.3274  -44.1891 O.2       8 UNK        -0.5046 
     54 N          21.1990  -33.5498  -44.1280 N.am      9 UNK        -0.4200 
     55 CA         20.9570  -33.4615  -45.5817 C.3       9 UNK         0.0839 
     56 C          21.4432  -34.6930  -46.4024 C.2       9 UNK         0.5513 
     57 N          21.7452  -35.8299  -45.7862 N.am      9 UNK        -0.7519 
     58 O          21.5476  -34.6124  -47.6236 O.2       9 UNK        -0.4960 
     59 C59        19.4741  -33.1451  -45.9171 C.3       10 UNK        -0.0876 
     60 S60        18.8912  -31.6019  -45.1416 S.3       10 UNK        -0.2414 
     61 C61        17.5362  -32.2007  -44.0931 C.3       10 UNK         0.0169 
     62 H62        17.8103  -27.4946  -49.4048 H         1 UNK         0.0903 
     63 H63        18.2343  -25.9038  -48.7694 H         1 UNK         0.0903 
     64 H64        19.4968  -27.1026  -49.0597 H         1 UNK         0.0903 
     65 H65        17.7895  -25.6931  -46.5878 H         1 UNK         0.3096 
     66 H66        17.3632  -28.0070  -44.8646 H         1 UNK         0.1121 
     67 H67        17.1346  -25.0043  -44.3270 H         1 UNK         0.0849 
     68 H68        15.8258  -26.0381  -44.8147 H         1 UNK         0.0849 
     69 H69        14.5432  -27.7774  -41.8840 H         1 UNK         0.0865 
     70 H70        14.8700  -27.9306  -43.5906 H         1 UNK         0.0865 
     71 H71        16.0539  -29.9225  -44.3049 H         1 UNK         0.1346 
     72 H72        18.3242  -32.2265  -41.4891 H         1 UNK         0.1412 
     73 H73        16.4177  -28.5971  -40.2414 H         1 UNK         0.1426 
     74 H74        17.8922  -31.6991  -39.0429 H         1 UNK         0.0716 
     75 H75        17.3649  -30.1028  -38.5755 H         1 UNK         0.0716 
     76 H76        18.5671  -27.9944  -39.5044 H         1 UNK         0.0695 
     77 H77        19.6591  -27.9759  -38.1462 H         1 UNK         0.0695 
     78 H78        21.6047  -28.0278  -39.7195 H         1 UNK         0.0983 
     79 H79        19.6300  -28.4139  -41.7794 H         1 UNK         0.3095 
     80 H80        21.8289  -27.7177  -44.4817 H         1 UNK         0.0454 
     81 H81        22.7145  -29.9345  -43.7861 H         1 UNK         0.0851 
     82 H82        21.0887  -30.4938  -43.4228 H         1 UNK         0.0851 
     83 H83        21.5496  -30.1090  -45.0831 H         1 UNK         0.0851 
     84 H84        19.3822  -28.9822  -44.6879 H         1 UNK         0.2976 
     85 H85        20.2464  -25.7160  -41.7857 H         1 UNK         0.3116 
     86 H86        20.5547  -23.4391  -39.9805 H         1 UNK         0.0646 
     87 H87        20.3520  -22.1219  -42.0530 H         1 UNK         0.0847 
     88 H88        19.0986  -23.3532  -42.0325 H         1 UNK         0.0847 
     89 H89        20.5285  -23.5613  -43.0435 H         1 UNK         0.0847 
     90 H90        22.7266  -25.6194  -41.5459 H         1 UNK         0.3040 
     91 H91        25.0564  -23.8584  -41.0284 H         1 UNK         0.1015 
     92 H92        24.6164  -23.7508  -43.4669 H         1 UNK         0.0786 
     93 H93        24.5547  -25.5030  -43.5791 H         1 UNK         0.0786 
     94 H94        26.0674  -24.6843  -43.1695 H         1 UNK         0.0786 
     95 H95        25.8055  -26.7798  -42.5127 H         1 UNK         0.3172 
     96 H96        27.1909  -27.6583  -40.1646 H         1 UNK         0.0595 
     97 H97        28.1362  -29.3553  -41.7249 H         1 UNK         0.0839 
     98 H98        28.1733  -27.7557  -42.4438 H         1 UNK         0.0839 
     99 H99        26.9481  -28.9245  -42.9447 H         1 UNK         0.0839 
    100 H100       24.0605  -28.4957  -41.2904 H         1 UNK         0.2998 
    101 H101       22.4907  -29.9224  -40.6813 H         1 UNK         0.0822 
    102 H102       23.3148  -29.7558  -38.3040 H         1 UNK         0.0787 
    103 H103       22.5740  -31.3009  -38.6750 H         1 UNK         0.0787 
    104 H104       24.3181  -31.1810  -38.5781 H         1 UNK         0.0787 
    105 H105       21.8074  -32.1563  -40.7392 H         1 UNK         0.3055 
    106 H106       21.4909  -34.0933  -41.7167 H         1 UNK         0.1106 
    107 H107       24.5303  -34.3993  -41.8861 H         1 UNK         0.0828 
    108 H108       23.5126  -34.8841  -40.5317 H         1 UNK         0.0828 
    109 H109       23.3463  -35.6773  -42.0899 H         1 UNK         0.0828 
    110 H110       20.3821  -33.6902  -43.5536 H         1 UNK         0.2931 
    111 H111       21.5492  -32.6182  -45.9434 H         1 UNK         0.0412 
    112 H112       21.6617  -35.9103  -44.7860 H         1 UNK         0.3472 
    113 H113       22.0609  -36.6173  -46.3311 H         1 UNK         0.3472 
    114 H114       19.3459  -33.0284  -46.9951 H         1 UNK         0.0970 
    115 H115       18.8300  -33.9780  -45.6298 H         1 UNK         0.0970 
    116 H116       17.8107  -33.1547  -43.6405 H         1 UNK         0.0612 
    117 H117       16.6556  -32.3883  -44.7092 H         1 UNK         0.0612 
@<TRIPOS>BOND
     1    1    2 1    
     2    1   62 1    
     3    1   63 1    
     4    1   64 1    
     5    2    3 2    
     6    2    4 am   BACKBONE|DICT|INTERRES
     7    4    5 1    
     8    4   65 1    
     9    5    6 1    
    10    5   25 1    
    11    5   66 1    
    12    6    7 1    
    13    6   67 1    
    14    6   68 1    
    15    7    8 1    
    16    8    9 1    
    17    8   69 1    
    18    8   70 1    
    19    9   10 ar   
    20    9   14 ar   
    21   10   11 ar   
    22   10   71 1    
    23   11   12 ar   
    24   11   61 1    
    25   12   13 ar   
    26   12   72 1    
    27   13   14 ar   
    28   13   15 1    
    29   14   73 1    
    30   15   16 1    
    31   15   74 1    
    32   15   75 1    
    33   16   17 1    
    34   17   18 1    
    35   17   76 1    
    36   17   77 1    
    37   18   19 1    
    38   18   27 1    
    39   18   78 1    
    40   19   20 am   BACKBONE|DICT|INTERRES
    41   19   79 1    
    42   20   21 2    
    43   20   22 1    
    44   22   23 1    
    45   22   24 1    
    46   22   80 1    
    47   23   81 1    
    48   23   82 1    
    49   23   83 1    
    50   24   25 am   BACKBONE|DICT|INTERRES
    51   24   84 1    
    52   25   26 2    
    53   27   28 2    
    54   27   29 am   BACKBONE|DICT|INTERRES
    55   29   30 1    
    56   29   85 1    
    57   30   31 1    
    58   30   32 1    
    59   30   86 1    
    60   31   87 1    
    61   31   88 1    
    62   31   89 1    
    63   32   33 2    
    64   32   34 am   BACKBONE|DICT|INTERRES
    65   34   35 1    
    66   34   90 1    
    67   35   36 1    
    68   35   37 1    
    69   35   91 1    
    70   36   92 1    
    71   36   93 1    
    72   36   94 1    
    73   37   38 2    
    74   37   39 am   BACKBONE|DICT|INTERRES
    75   39   40 1    
    76   39   95 1    
    77   40   41 1    
    78   40   42 1    
    79   40   96 1    
    80   41   97 1    
    81   41   98 1    
    82   41   99 1    
    83   42   43 2    
    84   42   44 am   BACKBONE|DICT|INTERRES
    85   44   45 1    
    86   44  100 1    
    87   45   46 1    
    88   45   47 1    
    89   45  101 1    
    90   46  102 1    
    91   46  103 1    
    92   46  104 1    
    93   47   48 2    
    94   47   49 am   BACKBONE|DICT|INTERRES
    95   49   50 1    
    96   49  105 1    
    97   50   51 1    
    98   50   52 1    
    99   50  106 1    
   100   51  107 1    
   101   51  108 1    
   102   51  109 1    
   103   52   53 2    
   104   52   54 am   BACKBONE|DICT|INTERRES
   105   54   55 1    
   106   54  110 1    
   107   55   56 1    
   108   55   59 1    
   109   55  111 1    
   110   56   57 am   BACKBONE|DICT|INTERRES
   111   56   58 2    
   112   57  112 1    
   113   57  113 1    
   114   59   60 1    
   115   59  114 1    
   116   59  115 1    
   117   60   61 1    
   118   61  116 1    
   119   61  117 1    
@<TRIPOS>SUBSTRUCTURE
     1 UNK         1 GROUP             0       ****    0 ROOT    
