@<TRIPOS>MOLECULE
3R8
117   119    1
SMALL
USER_CHARGES


@<TRIPOS>ATOM
      1 CA         14.6093  -24.1155  -47.2082 C.3       0 UNK        -0.2013 
      2 C          15.8236  -25.0209  -47.3521 C.2       0 UNK         0.4866 
      3 O          16.0943  -25.5139  -48.4473 O.2       0 UNK        -0.5176 
      4 N          16.5570  -25.2422  -46.2572 N.am      1 UNK        -0.4884 
      5 CA         17.7723  -26.0514  -46.1964 C.3       1 UNK         0.0853 
      6 C6         17.4510  -27.5627  -46.0564 C.3       10 UNK        -0.0849 
      7 S7         18.7745  -28.6501  -46.6925 S.3       10 UNK        -0.2776 
      8 C8         19.6267  -29.2355  -45.1892 C.3       10 UNK         0.0316 
      9 C9         18.7139  -30.0139  -44.2522 C.ar      10 UNK        -0.0863 
     10 C10        18.4176  -31.3571  -44.5030 C.ar      10 UNK        -0.1009 
     11 C11        17.5772  -32.0666  -43.6396 C.ar      10 UNK        -0.0712 
     12 C12        17.0485  -31.4290  -42.5130 C.ar      10 UNK        -0.0894 
     13 C13        17.3341  -30.0857  -42.2516 C.ar      10 UNK        -0.0745 
     14 C14        18.1707  -29.3877  -43.1267 C.ar      10 UNK        -0.0972 
     15 C15        16.6806  -29.3860  -41.0636 C.3       10 UNK         0.0209 
     16 S16        17.8806  -28.7632  -39.8393 S.3       10 UNK        -0.2568 
     17 C17        18.2523  -27.0920  -40.4764 C.3       10 UNK        -0.0983 
     18 CA         19.7423  -26.9533  -40.8864 C.3       3 UNK         0.0876 
     19 N          19.8912  -26.1558  -42.1050 N.am      3 UNK        -0.4424 
     20 C          20.9586  -26.1745  -42.9104 C.2       2 UNK         0.4918 
     21 O          21.9179  -26.9317  -42.7581 O.2       2 UNK        -0.4875 
     22 CA         20.9127  -25.2110  -44.1128 C.3       2 UNK         0.0481 
     23 CB         22.2859  -25.0453  -44.7876 C.3       2 UNK        -0.1831 
     24 N          19.9410  -25.6424  -45.1220 N.am      2 UNK        -0.4498 
     25 C          18.6114  -25.5196  -45.0223 C.2       1 UNK         0.5027 
     26 O          18.0425  -25.0147  -44.0485 O.2       1 UNK        -0.4969 
     27 C          20.6019  -26.3909  -39.7335 C.2       3 UNK         0.5005 
     28 O          21.0083  -25.2261  -39.7789 O.2       3 UNK        -0.5279 
     29 N          20.8310  -27.2280  -38.7086 N.am      4 UNK        -0.4463 
     30 CA         21.6351  -26.9563  -37.5061 C.3       4 UNK         0.0283 
     31 CB         20.9599  -25.8877  -36.6198 C.3       4 UNK        -0.1875 
     32 C          23.1060  -26.6257  -37.8345 C.2       4 UNK         0.4949 
     33 O          23.7013  -25.7366  -37.2235 O.2       4 UNK        -0.5039 
     34 N          23.6575  -27.3553  -38.8077 N.am      5 UNK        -0.4663 
     35 CA         25.0071  -27.2236  -39.3424 C.3       5 UNK         0.0242 
     36 CB         25.0423  -26.0699  -40.3649 C.3       5 UNK        -0.1982 
     37 C          25.3861  -28.5563  -39.9991 C.2       5 UNK         0.5017 
     38 O          24.5245  -29.4246  -40.1604 O.2       5 UNK        -0.5012 
     39 N          26.6518  -28.6832  -40.4198 N.am      6 UNK        -0.4439 
     40 CA         27.1942  -29.8586  -41.1186 C.3       6 UNK         0.0297 
     41 CB         28.7111  -29.6804  -41.2972 C.3       6 UNK        -0.2006 
     42 C          26.5254  -30.1688  -42.4754 C.2       6 UNK         0.4892 
     43 O          26.6591  -31.2882  -42.9698 O.2       6 UNK        -0.5089 
     44 N          25.8204  -29.1823  -43.0451 N.am      7 UNK        -0.4243 
     45 CA         25.0127  -29.3061  -44.2575 C.3       7 UNK         0.0196 
     46 CB         24.7951  -27.9020  -44.8429 C.3       7 UNK        -0.2007 
     47 C          23.6623  -30.0184  -44.0378 C.2       7 UNK         0.5020 
     48 O          23.0332  -30.3964  -45.0268 O.2       7 UNK        -0.5147 
     49 N          23.2242  -30.1890  -42.7802 N.am      8 UNK        -0.4734 
     50 CA         21.9985  -30.9130  -42.4270 C.3       8 UNK         0.0238 
     51 CB         21.6567  -30.6487  -40.9519 C.3       8 UNK        -0.1912 
     52 C          22.1381  -32.4240  -42.6821 C.2       8 UNK         0.5038 
     53 O          23.2477  -32.9584  -42.6006 O.2       8 UNK        -0.5046 
     54 N          21.0118  -33.0875  -42.9698 N.am      9 UNK        -0.4200 
     55 CA         20.9503  -34.5373  -43.2015 C.3       9 UNK         0.0839 
     56 C          21.2438  -35.3898  -41.9322 C.2       9 UNK         0.5513 
     57 N          21.6496  -36.6401  -42.1106 N.am      9 UNK        -0.7519 
     58 O          21.0852  -34.9446  -40.7968 O.2       9 UNK        -0.4960 
     59 C59        19.6340  -34.9486  -43.9112 C.3       10 UNK        -0.0876 
     60 S60        18.1182  -34.6901  -42.9226 S.3       10 UNK        -0.2414 
     61 C61        17.1875  -33.5054  -43.9404 C.3       10 UNK         0.0169 
     62 H62        14.7088  -23.2476  -47.8595 H         1 UNK         0.0903 
     63 H63        13.7050  -24.6529  -47.4923 H         1 UNK         0.0903 
     64 H64        14.4847  -23.7598  -46.1856 H         1 UNK         0.0903 
     65 H65        16.3328  -24.7863  -45.3798 H         1 UNK         0.3096 
     66 H66        18.3345  -25.8796  -47.1177 H         1 UNK         0.1121 
     67 H67        16.5698  -27.8037  -46.6531 H         1 UNK         0.0849 
     68 H68        17.1704  -27.8194  -45.0359 H         1 UNK         0.0849 
     69 H69        20.4546  -29.8763  -45.4947 H         1 UNK         0.0865 
     70 H70        20.0829  -28.3945  -44.6685 H         1 UNK         0.0865 
     71 H71        18.8240  -31.8409  -45.3811 H         1 UNK         0.1346 
     72 H72        16.3900  -31.9783  -41.8538 H         1 UNK         0.1412 
     73 H73        18.3837  -28.3455  -42.9482 H         1 UNK         0.1426 
     74 H74        16.0122  -30.0755  -40.5457 H         1 UNK         0.0716 
     75 H75        16.0452  -28.5746  -41.4208 H         1 UNK         0.0716 
     76 H76        17.9653  -26.3557  -39.7225 H         1 UNK         0.0695 
     77 H77        17.5980  -26.8876  -41.3249 H         1 UNK         0.0695 
     78 H78        20.1328  -27.9430  -41.1287 H         1 UNK         0.0983 
     79 H79        19.1390  -25.5157  -42.3311 H         1 UNK         0.3095 
     80 H80        20.6147  -24.2313  -43.7331 H         1 UNK         0.0454 
     81 H81        22.6064  -25.9639  -45.2784 H         1 UNK         0.0851 
     82 H82        23.0523  -24.7760  -44.0595 H         1 UNK         0.0851 
     83 H83        22.2642  -24.2563  -45.5393 H         1 UNK         0.0851 
     84 H84        20.3221  -26.0947  -45.9411 H         1 UNK         0.2976 
     85 H85        20.4139  -28.1486  -38.7514 H         1 UNK         0.3116 
     86 H86        21.6559  -27.8865  -36.9361 H         1 UNK         0.0646 
     87 H87        20.9540  -24.9079  -37.0982 H         1 UNK         0.0847 
     88 H88        21.4845  -25.7803  -35.6697 H         1 UNK         0.0847 
     89 H89        19.9286  -26.1554  -36.3904 H         1 UNK         0.0847 
     90 H90        23.1321  -28.1165  -39.2199 H         1 UNK         0.3040 
     91 H91        25.7055  -27.0273  -38.5258 H         1 UNK         0.1015 
     92 H92        24.3606  -26.2513  -41.1977 H         1 UNK         0.0786 
     93 H93        26.0412  -25.9314  -40.7797 H         1 UNK         0.0786 
     94 H94        24.7547  -25.1243  -39.9047 H         1 UNK         0.0786 
     95 H95        27.2954  -27.9218  -40.2552 H         1 UNK         0.3172 
     96 H96        27.0268  -30.7259  -40.4765 H         1 UNK         0.0595 
     97 H97        29.1525  -30.5520  -41.7829 H         1 UNK         0.0839 
     98 H98        29.2144  -29.5600  -40.3377 H         1 UNK         0.0839 
     99 H99        28.9462  -28.8117  -41.9136 H         1 UNK         0.0839 
    100 H100       25.7761  -28.2969  -42.5635 H         1 UNK         0.2998 
    101 H101       25.5716  -29.8968  -44.9867 H         1 UNK         0.0822 
    102 H102       24.1866  -27.9428  -45.7474 H         1 UNK         0.0787 
    103 H103       24.2858  -27.2507  -44.1323 H         1 UNK         0.0787 
    104 H104       25.7414  -27.4321  -45.1111 H         1 UNK         0.0787 
    105 H105       23.8075  -29.8878  -42.0068 H         1 UNK         0.3055 
    106 H106       21.1918  -30.5217  -43.0475 H         1 UNK         0.1106 
    107 H107       20.6607  -31.0214  -40.7086 H         1 UNK         0.0828 
    108 H108       22.3635  -31.1410  -40.2823 H         1 UNK         0.0828 
    109 H109       21.6750  -29.5846  -40.7237 H         1 UNK         0.0828 
    110 H110       20.1255  -32.6031  -42.9645 H         1 UNK         0.2931 
    111 H111       21.7566  -34.7591  -43.9042 H         1 UNK         0.0412 
    112 H112       21.8353  -37.2143  -41.3027 H         1 UNK         0.3472 
    113 H113       21.7818  -37.0206  -43.0351 H         1 UNK         0.3472 
    114 H114       19.6738  -36.0036  -44.1878 H         1 UNK         0.0970 
    115 H115       19.5533  -34.4118  -44.8573 H         1 UNK         0.0970 
    116 H116       16.1243  -33.6364  -43.7335 H         1 UNK         0.0612 
    117 H117       17.3140  -33.7341  -44.9997 H         1 UNK         0.0612 
@<TRIPOS>BOND
     1    1    2 1    
     2    1   62 1    
     3    1   63 1    
     4    1   64 1    
     5    2    3 2    
     6    2    4 am   BACKBONE|DICT|INTERRES
     7    4    5 1    
     8    4   65 1    
     9    5    6 1    
    10    5   25 1    
    11    5   66 1    
    12    6    7 1    
    13    6   67 1    
    14    6   68 1    
    15    7    8 1    
    16    8    9 1    
    17    8   69 1    
    18    8   70 1    
    19    9   10 ar   
    20    9   14 ar   
    21   10   11 ar   
    22   10   71 1    
    23   11   12 ar   
    24   11   61 1    
    25   12   13 ar   
    26   12   72 1    
    27   13   14 ar   
    28   13   15 1    
    29   14   73 1    
    30   15   16 1    
    31   15   74 1    
    32   15   75 1    
    33   16   17 1    
    34   17   18 1    
    35   17   76 1    
    36   17   77 1    
    37   18   19 1    
    38   18   27 1    
    39   18   78 1    
    40   19   20 am   BACKBONE|DICT|INTERRES
    41   19   79 1    
    42   20   21 2    
    43   20   22 1    
    44   22   23 1    
    45   22   24 1    
    46   22   80 1    
    47   23   81 1    
    48   23   82 1    
    49   23   83 1    
    50   24   25 am   BACKBONE|DICT|INTERRES
    51   24   84 1    
    52   25   26 2    
    53   27   28 2    
    54   27   29 am   BACKBONE|DICT|INTERRES
    55   29   30 1    
    56   29   85 1    
    57   30   31 1    
    58   30   32 1    
    59   30   86 1    
    60   31   87 1    
    61   31   88 1    
    62   31   89 1    
    63   32   33 2    
    64   32   34 am   BACKBONE|DICT|INTERRES
    65   34   35 1    
    66   34   90 1    
    67   35   36 1    
    68   35   37 1    
    69   35   91 1    
    70   36   92 1    
    71   36   93 1    
    72   36   94 1    
    73   37   38 2    
    74   37   39 am   BACKBONE|DICT|INTERRES
    75   39   40 1    
    76   39   95 1    
    77   40   41 1    
    78   40   42 1    
    79   40   96 1    
    80   41   97 1    
    81   41   98 1    
    82   41   99 1    
    83   42   43 2    
    84   42   44 am   BACKBONE|DICT|INTERRES
    85   44   45 1    
    86   44  100 1    
    87   45   46 1    
    88   45   47 1    
    89   45  101 1    
    90   46  102 1    
    91   46  103 1    
    92   46  104 1    
    93   47   48 2    
    94   47   49 am   BACKBONE|DICT|INTERRES
    95   49   50 1    
    96   49  105 1    
    97   50   51 1    
    98   50   52 1    
    99   50  106 1    
   100   51  107 1    
   101   51  108 1    
   102   51  109 1    
   103   52   53 2    
   104   52   54 am   BACKBONE|DICT|INTERRES
   105   54   55 1    
   106   54  110 1    
   107   55   56 1    
   108   55   59 1    
   109   55  111 1    
   110   56   57 am   BACKBONE|DICT|INTERRES
   111   56   58 2    
   112   57  112 1    
   113   57  113 1    
   114   59   60 1    
   115   59  114 1    
   116   59  115 1    
   117   60   61 1    
   118   61  116 1    
   119   61  117 1    
@<TRIPOS>SUBSTRUCTURE
     1 UNK         1 GROUP             0       ****    0 ROOT    
