@<TRIPOS>MOLECULE
3R8
117   119    1
SMALL
USER_CHARGES


@<TRIPOS>ATOM
      1 CA         19.9790  -29.4219  -42.7086 C.3       0 UNK        -0.2013 
      2 C          18.9618  -28.4652  -42.1228 C.2       0 UNK         0.4866 
      3 O          19.1668  -27.9737  -41.0135 O.2       0 UNK        -0.5176 
      4 N          17.8805  -28.1895  -42.8638 N.am      1 UNK        -0.4884 
      5 CA         16.8705  -27.1775  -42.5235 C.3       1 UNK         0.0853 
      6 C6         15.6135  -27.2776  -43.4210 C.3       10 UNK        -0.0849 
      7 S7         14.7764  -28.8901  -43.2606 S.3       10 UNK        -0.2776 
      8 C8         14.9953  -29.6085  -44.9228 C.3       10 UNK         0.0316 
      9 C9         16.4110  -30.1182  -45.1679 C.ar      10 UNK        -0.0863 
     10 C10        16.9093  -31.1860  -44.4151 C.ar      10 UNK        -0.1009 
     11 C11        18.1829  -31.7089  -44.6601 C.ar      10 UNK        -0.0712 
     12 C12        18.9502  -31.1606  -45.6988 C.ar      10 UNK        -0.0894 
     13 C13        18.4759  -30.0782  -46.4462 C.ar      10 UNK        -0.0745 
     14 C14        17.2043  -29.5615  -46.1762 C.ar      10 UNK        -0.0972 
     15 C15        19.3170  -29.5020  -47.5796 C.3       10 UNK         0.0209 
     16 S16        19.8807  -27.8008  -47.2511 S.3       10 UNK        -0.2568 
     17 C17        21.2983  -28.0564  -46.1263 C.3       10 UNK        -0.0983 
     18 CA         21.7268  -26.7359  -45.4287 C.3       3 UNK         0.0876 
     19 N          20.6105  -26.1154  -44.7119 N.am      3 UNK        -0.4424 
     20 C          20.4156  -24.7998  -44.5427 C.2       2 UNK         0.4918 
     21 O          21.2346  -23.9477  -44.8900 O.2       2 UNK        -0.4875 
     22 CA         19.0907  -24.3597  -43.8888 C.3       2 UNK         0.0481 
     23 CB         18.3723  -23.2895  -44.7293 C.3       2 UNK        -0.1831 
     24 N          18.1993  -25.5044  -43.6922 N.am      2 UNK        -0.4498 
     25 C          17.4826  -25.7640  -42.5917 C.2       1 UNK         0.5027 
     26 O          17.3419  -24.9806  -41.6519 O.2       1 UNK        -0.4969 
     27 C          22.9300  -26.9041  -44.4773 C.2       3 UNK         0.5005 
     28 O          23.3296  -28.0264  -44.1623 O.2       3 UNK        -0.5279 
     29 N          23.4585  -25.7665  -44.0057 N.am      4 UNK        -0.4463 
     30 CA         24.6267  -25.6514  -43.1294 C.3       4 UNK         0.0283 
     31 CB         24.7941  -24.1685  -42.7524 C.3       4 UNK        -0.1875 
     32 C          25.9137  -26.1889  -43.7965 C.2       4 UNK         0.4949 
     33 O          26.0179  -26.1349  -45.0220 O.2       4 UNK        -0.5039 
     34 N          26.9110  -26.6725  -43.0407 N.am      5 UNK        -0.4663 
     35 CA         26.9907  -26.7524  -41.5756 C.3       5 UNK         0.0242 
     36 CB         28.4740  -26.7031  -41.1708 C.3       5 UNK        -0.1982 
     37 C          26.3166  -27.9995  -40.9741 C.2       5 UNK         0.5017 
     38 O          26.2618  -28.1116  -39.7486 O.2       5 UNK        -0.5012 
     39 N          25.8133  -28.9107  -41.8175 N.am      6 UNK        -0.4439 
     40 CA         25.1538  -30.1617  -41.4297 C.3       6 UNK         0.0297 
     41 CB         25.2087  -31.1387  -42.6197 C.3       6 UNK        -0.2006 
     42 C          23.7146  -29.9373  -40.9222 C.2       6 UNK         0.4892 
     43 O          22.7717  -30.4817  -41.4963 O.2       6 UNK        -0.5089 
     44 N          23.5706  -29.1356  -39.8576 N.am      7 UNK        -0.4243 
     45 CA         22.3059  -28.7659  -39.2150 C.3       7 UNK         0.0196 
     46 CB         22.5954  -27.8707  -38.0000 C.3       7 UNK        -0.2007 
     47 C          21.4751  -29.9945  -38.8066 C.2       7 UNK         0.5020 
     48 O          21.9857  -30.8734  -38.1083 O.2       7 UNK        -0.5147 
     49 N          20.2311  -30.0466  -39.3013 N.am      8 UNK        -0.4734 
     50 CA         19.2650  -31.1516  -39.2026 C.3       8 UNK         0.0238 
     51 CB         18.8177  -31.3490  -37.7388 C.3       8 UNK        -0.1912 
     52 C          19.7205  -32.4810  -39.8487 C.2       8 UNK         0.5038 
     53 O          19.0450  -33.4932  -39.6566 O.2       8 UNK        -0.5046 
     54 N          20.8336  -32.4690  -40.5982 N.am      9 UNK        -0.4200 
     55 CA         21.5005  -33.6365  -41.1981 C.3       9 UNK         0.0839 
     56 C          22.0194  -34.6757  -40.1579 C.2       9 UNK         0.5513 
     57 N          22.3016  -34.2747  -38.9229 N.am      9 UNK        -0.7519 
     58 O          22.1990  -35.8494  -40.4732 O.2       9 UNK        -0.4960 
     59 C59        20.6950  -34.2649  -42.3711 C.3       10 UNK        -0.0876 
     60 S60        20.4875  -33.0841  -43.7478 S.3       10 UNK        -0.2414 
     61 C61        18.6763  -32.8643  -43.7845 C.3       10 UNK         0.0169 
     62 H62        20.9803  -29.0000  -42.6310 H         1 UNK         0.0903 
     63 H63        19.9600  -30.3752  -42.1860 H         1 UNK         0.0903 
     64 H64        19.7834  -29.6113  -43.7572 H         1 UNK         0.0903 
     65 H65        17.7148  -28.7038  -43.7196 H         1 UNK         0.3096 
     66 H66        16.5650  -27.3461  -41.4880 H         1 UNK         0.1121 
     67 H67        14.8907  -26.5068  -43.1456 H         1 UNK         0.0849 
     68 H68        15.8635  -27.0947  -44.4677 H         1 UNK         0.0849 
     69 H69        14.3032  -30.4448  -45.0315 H         1 UNK         0.0865 
     70 H70        14.7013  -28.8780  -45.6783 H         1 UNK         0.0865 
     71 H71        16.2961  -31.6141  -43.6333 H         1 UNK         0.1346 
     72 H72        19.9273  -31.5627  -45.9251 H         1 UNK         0.1412 
     73 H73        16.8273  -28.7403  -46.7712 H         1 UNK         0.1426 
     74 H74        20.1820  -30.1331  -47.7899 H         1 UNK         0.0716 
     75 H75        18.7175  -29.4978  -48.4910 H         1 UNK         0.0716 
     76 H76        22.1267  -28.4601  -46.7113 H         1 UNK         0.0695 
     77 H77        21.0430  -28.8225  -45.3964 H         1 UNK         0.0695 
     78 H78        22.0524  -26.0549  -46.2189 H         1 UNK         0.0983 
     79 H79        19.9351  -26.7552  -44.3292 H         1 UNK         0.3095 
     80 H80        19.3538  -23.9267  -42.9216 H         1 UNK         0.0454 
     81 H81        18.1130  -23.6633  -45.7204 H         1 UNK         0.0851 
     82 H82        17.4540  -22.9571  -44.2453 H         1 UNK         0.0851 
     83 H83        19.0010  -22.4087  -44.8659 H         1 UNK         0.0851 
     84 H84        18.1884  -26.1868  -44.4366 H         1 UNK         0.2976 
     85 H85        23.0358  -24.8986  -44.3156 H         1 UNK         0.3116 
     86 H86        24.4068  -26.2288  -42.2310 H         1 UNK         0.0646 
     87 H87        23.9186  -23.7928  -42.2223 H         1 UNK         0.0847 
     88 H88        24.9423  -23.5455  -43.6356 H         1 UNK         0.0847 
     89 H89        25.6547  -24.0084  -42.1033 H         1 UNK         0.0847 
     90 H90        27.7296  -27.0098  -43.5274 H         1 UNK         0.3040 
     91 H91        26.5042  -25.8852  -41.1286 H         1 UNK         0.1015 
     92 H92        28.5871  -26.7128  -40.0855 H         1 UNK         0.0786 
     93 H93        28.9545  -25.7939  -41.5332 H         1 UNK         0.0786 
     94 H94        29.0294  -27.5562  -41.5629 H         1 UNK         0.0786 
     95 H95        25.8533  -28.7139  -42.8078 H         1 UNK         0.3172 
     96 H96        25.7161  -30.6111  -40.6084 H         1 UNK         0.0595 
     97 H97        24.6620  -30.7521  -43.4814 H         1 UNK         0.0839 
     98 H98        24.7641  -32.0998  -42.3575 H         1 UNK         0.0839 
     99 H99        26.2354  -31.3326  -42.9302 H         1 UNK         0.0839 
    100 H100       24.4186  -28.7398  -39.4645 H         1 UNK         0.2998 
    101 H101       21.7394  -28.1805  -39.9423 H         1 UNK         0.0822 
    102 H102       23.1969  -28.3900  -37.2526 H         1 UNK         0.0787 
    103 H103       23.1289  -26.9654  -38.2909 H         1 UNK         0.0787 
    104 H104       21.6688  -27.5597  -37.5156 H         1 UNK         0.0787 
    105 H105       19.9144  -29.2564  -39.8618 H         1 UNK         0.3055 
    106 H106       18.3903  -30.8349  -39.7731 H         1 UNK         0.1106 
    107 H107       18.4709  -30.4135  -37.3001 H         1 UNK         0.0828 
    108 H108       17.9931  -32.0598  -37.6719 H         1 UNK         0.0828 
    109 H109       19.6261  -31.7330  -37.1161 H         1 UNK         0.0828 
    110 H110       21.3370  -31.5960  -40.7213 H         1 UNK         0.2931 
    111 H111       22.4175  -33.2377  -41.6330 H         1 UNK         0.0412 
    112 H112       22.6462  -34.9427  -38.2515 H         1 UNK         0.3472 
    113 H113       22.1735  -33.3081  -38.6574 H         1 UNK         0.3472 
    114 H114       19.7271  -34.6324  -42.0275 H         1 UNK         0.0970 
    115 H115       21.2187  -35.1324  -42.7760 H         1 UNK         0.0970 
    116 H116       18.3352  -32.7035  -42.7604 H         1 UNK         0.0612 
    117 H117       18.2156  -33.7908  -44.1289 H         1 UNK         0.0612 
@<TRIPOS>BOND
     1    1    2 1    
     2    1   62 1    
     3    1   63 1    
     4    1   64 1    
     5    2    3 2    
     6    2    4 am   BACKBONE|DICT|INTERRES
     7    4    5 1    
     8    4   65 1    
     9    5    6 1    
    10    5   25 1    
    11    5   66 1    
    12    6    7 1    
    13    6   67 1    
    14    6   68 1    
    15    7    8 1    
    16    8    9 1    
    17    8   69 1    
    18    8   70 1    
    19    9   10 ar   
    20    9   14 ar   
    21   10   11 ar   
    22   10   71 1    
    23   11   12 ar   
    24   11   61 1    
    25   12   13 ar   
    26   12   72 1    
    27   13   14 ar   
    28   13   15 1    
    29   14   73 1    
    30   15   16 1    
    31   15   74 1    
    32   15   75 1    
    33   16   17 1    
    34   17   18 1    
    35   17   76 1    
    36   17   77 1    
    37   18   19 1    
    38   18   27 1    
    39   18   78 1    
    40   19   20 am   BACKBONE|DICT|INTERRES
    41   19   79 1    
    42   20   21 2    
    43   20   22 1    
    44   22   23 1    
    45   22   24 1    
    46   22   80 1    
    47   23   81 1    
    48   23   82 1    
    49   23   83 1    
    50   24   25 am   BACKBONE|DICT|INTERRES
    51   24   84 1    
    52   25   26 2    
    53   27   28 2    
    54   27   29 am   BACKBONE|DICT|INTERRES
    55   29   30 1    
    56   29   85 1    
    57   30   31 1    
    58   30   32 1    
    59   30   86 1    
    60   31   87 1    
    61   31   88 1    
    62   31   89 1    
    63   32   33 2    
    64   32   34 am   BACKBONE|DICT|INTERRES
    65   34   35 1    
    66   34   90 1    
    67   35   36 1    
    68   35   37 1    
    69   35   91 1    
    70   36   92 1    
    71   36   93 1    
    72   36   94 1    
    73   37   38 2    
    74   37   39 am   BACKBONE|DICT|INTERRES
    75   39   40 1    
    76   39   95 1    
    77   40   41 1    
    78   40   42 1    
    79   40   96 1    
    80   41   97 1    
    81   41   98 1    
    82   41   99 1    
    83   42   43 2    
    84   42   44 am   BACKBONE|DICT|INTERRES
    85   44   45 1    
    86   44  100 1    
    87   45   46 1    
    88   45   47 1    
    89   45  101 1    
    90   46  102 1    
    91   46  103 1    
    92   46  104 1    
    93   47   48 2    
    94   47   49 am   BACKBONE|DICT|INTERRES
    95   49   50 1    
    96   49  105 1    
    97   50   51 1    
    98   50   52 1    
    99   50  106 1    
   100   51  107 1    
   101   51  108 1    
   102   51  109 1    
   103   52   53 2    
   104   52   54 am   BACKBONE|DICT|INTERRES
   105   54   55 1    
   106   54  110 1    
   107   55   56 1    
   108   55   59 1    
   109   55  111 1    
   110   56   57 am   BACKBONE|DICT|INTERRES
   111   56   58 2    
   112   57  112 1    
   113   57  113 1    
   114   59   60 1    
   115   59  114 1    
   116   59  115 1    
   117   60   61 1    
   118   61  116 1    
   119   61  117 1    
@<TRIPOS>SUBSTRUCTURE
     1 UNK         1 GROUP             0       ****    0 ROOT    
