@<TRIPOS>MOLECULE
3R8
117   119    1
SMALL
USER_CHARGES


@<TRIPOS>ATOM
      1 CA         19.2875  -27.2501  -39.2737 C.3       0 UNK        -0.2013 
      2 C          19.2091  -26.2659  -40.4311 C.2       0 UNK         0.4866 
      3 O          19.3985  -25.0660  -40.2300 O.2       0 UNK        -0.5176 
      4 N          18.9240  -26.7642  -41.6383 N.am      1 UNK        -0.4884 
      5 CA         18.8243  -25.9734  -42.8704 C.3       1 UNK         0.0853 
      6 C6         17.8475  -26.6247  -43.8840 C.3       10 UNK        -0.0849 
      7 S7         16.1812  -26.8922  -43.1805 S.3       10 UNK        -0.2776 
      8 C8         15.4243  -28.0459  -44.3777 C.3       10 UNK         0.0316 
      9 C9         16.2862  -29.2748  -44.6422 C.ar      10 UNK        -0.0863 
     10 C10        16.6757  -30.1093  -43.5917 C.ar      10 UNK        -0.1009 
     11 C11        17.5209  -31.2009  -43.8137 C.ar      10 UNK        -0.0712 
     12 C12        17.9654  -31.4611  -45.1192 C.ar      10 UNK        -0.0894 
     13 C13        17.5658  -30.6443  -46.1835 C.ar      10 UNK        -0.0745 
     14 C14        16.7222  -29.5576  -45.9381 C.ar      10 UNK        -0.0972 
     15 C15        18.0413  -30.9248  -47.6043 C.3       10 UNK         0.0209 
     16 S16        19.7851  -30.4662  -47.8815 S.3       10 UNK        -0.2568 
     17 C17        19.8099  -28.6780  -47.4804 C.3       10 UNK        -0.0983 
     18 CA         21.1929  -28.0562  -47.1241 C.3       3 UNK         0.0876 
     19 N          21.0019  -26.7307  -46.5159 N.am      3 UNK        -0.4424 
     20 C          21.9642  -25.8834  -46.1200 C.2       2 UNK         0.4918 
     21 O          23.1653  -26.0705  -46.3077 O.2       2 UNK        -0.4875 
     22 CA         21.5135  -24.6524  -45.3085 C.3       2 UNK         0.0481 
     23 CB         21.2803  -23.4523  -46.2389 C.3       2 UNK        -0.1831 
     24 N          20.3112  -24.8878  -44.4957 N.am      2 UNK        -0.4498 
     25 C          20.2172  -25.7940  -43.5101 C.2       1 UNK         0.5027 
     26 O          21.1602  -26.5121  -43.1619 O.2       1 UNK        -0.4969 
     27 C          22.0627  -28.9764  -46.2328 C.2       3 UNK         0.5005 
     28 O          22.9468  -29.6683  -46.7409 O.2       3 UNK        -0.5279 
     29 N          21.8164  -28.9314  -44.9176 N.am      4 UNK        -0.4463 
     30 CA         22.5382  -29.6887  -43.8976 C.3       4 UNK         0.0283 
     31 CB         21.5536  -30.0244  -42.7663 C.3       4 UNK        -0.1875 
     32 C          23.7584  -28.9317  -43.3434 C.2       4 UNK         0.4949 
     33 O          24.3692  -29.4142  -42.3916 O.2       4 UNK        -0.5039 
     34 N          24.0699  -27.7464  -43.8928 N.am      5 UNK        -0.4663 
     35 CA         25.0994  -26.8038  -43.4332 C.3       5 UNK         0.0242 
     36 CB         26.5111  -27.3699  -43.6955 C.3       5 UNK        -0.1982 
     37 C          24.8903  -26.3611  -41.9695 C.2       5 UNK         0.5017 
     38 O          25.8628  -26.1869  -41.2338 O.2       5 UNK        -0.5012 
     39 N          23.6150  -26.2167  -41.5772 N.am      6 UNK        -0.4439 
     40 CA         23.1167  -25.8916  -40.2367 C.3       6 UNK         0.0297 
     41 CB         23.6382  -24.5214  -39.7536 C.3       6 UNK        -0.2006 
     42 C          23.3079  -27.0034  -39.1820 C.2       6 UNK         0.4892 
     43 O          23.0627  -26.7450  -38.0021 O.2       6 UNK        -0.5089 
     44 N          23.6994  -28.2176  -39.5965 N.am      7 UNK        -0.4243 
     45 CA         23.7445  -29.4038  -38.7367 C.3       7 UNK         0.0196 
     46 CB         24.7942  -30.3859  -39.2841 C.3       7 UNK        -0.2007 
     47 C          22.3638  -30.0768  -38.6660 C.2       7 UNK         0.5020 
     48 O          21.4805  -29.7764  -39.4724 O.2       7 UNK        -0.5147 
     49 N          22.2076  -31.0249  -37.7337 N.am      8 UNK        -0.4734 
     50 CA         20.9907  -31.8229  -37.5255 C.3       8 UNK         0.0238 
     51 CB         20.9983  -32.3717  -36.0859 C.3       8 UNK        -0.1912 
     52 C          20.8049  -32.9350  -38.5840 C.2       8 UNK         0.5038 
     53 O          20.5770  -34.0937  -38.2302 O.2       8 UNK        -0.5046 
     54 N          20.9001  -32.5540  -39.8626 N.am      9 UNK        -0.4200 
     55 CA         20.8163  -33.4076  -41.0562 C.3       9 UNK         0.0839 
     56 C          21.9651  -34.4526  -41.1843 C.2       9 UNK         0.5513 
     57 N          21.8690  -35.3734  -42.1342 N.am      9 UNK        -0.7519 
     58 O          22.9659  -34.4117  -40.4715 O.2       9 UNK        -0.4960 
     59 C59        19.3839  -33.9920  -41.2672 C.3       10 UNK        -0.0876 
     60 S60        18.7505  -33.6245  -42.9384 S.3       10 UNK        -0.2414 
     61 C61        17.9529  -32.0190  -42.5961 C.3       10 UNK         0.0169 
     62 H62        19.1389  -28.2786  -39.6027 H         1 UNK         0.0903 
     63 H63        20.2629  -27.1904  -38.7923 H         1 UNK         0.0903 
     64 H64        18.5259  -27.0177  -38.5301 H         1 UNK         0.0903 
     65 H65        18.7933  -27.7587  -41.7491 H         1 UNK         0.3096 
     66 H66        18.4461  -24.9793  -42.6202 H         1 UNK         0.1121 
     67 H67        17.7329  -26.0044  -44.7747 H         1 UNK         0.0849 
     68 H68        18.2543  -27.5783  -44.2239 H         1 UNK         0.0849 
     69 H69        14.4542  -28.3672  -43.9962 H         1 UNK         0.0865 
     70 H70        15.2246  -27.5045  -45.3037 H         1 UNK         0.0865 
     71 H71        16.3416  -29.8857  -42.5874 H         1 UNK         0.1346 
     72 H72        18.6332  -32.2866  -45.3194 H         1 UNK         0.1412 
     73 H73        16.4233  -28.9176  -46.7573 H         1 UNK         0.1426 
     74 H74        17.4194  -30.3981  -48.3300 H         1 UNK         0.0716 
     75 H75        17.9207  -31.9876  -47.8188 H         1 UNK         0.0716 
     76 H76        19.3683  -28.1368  -48.3186 H         1 UNK         0.0695 
     77 H77        19.1364  -28.5201  -46.6392 H         1 UNK         0.0695 
     78 H78        21.7467  -27.9100  -48.0539 H         1 UNK         0.0983 
     79 H79        20.0464  -26.4611  -46.3396 H         1 UNK         0.3095 
     80 H80        22.3262  -24.3983  -44.6245 H         1 UNK         0.0454 
     81 H81        22.1694  -23.2430  -46.8356 H         1 UNK         0.0851 
     82 H82        20.4575  -23.6293  -46.9326 H         1 UNK         0.0851 
     83 H83        21.0547  -22.5484  -45.6728 H         1 UNK         0.0851 
     84 H84        19.5018  -24.3264  -44.7215 H         1 UNK         0.2976 
     85 H85        21.1306  -28.2738  -44.5720 H         1 UNK         0.3116 
     86 H86        22.9006  -30.6265  -44.3235 H         1 UNK         0.0646 
     87 H87        22.0401  -30.6270  -41.9996 H         1 UNK         0.0847 
     88 H88        20.7008  -30.5917  -43.1386 H         1 UNK         0.0847 
     89 H89        21.1754  -29.1268  -42.2755 H         1 UNK         0.0847 
     90 H90        23.5196  -27.4312  -44.6827 H         1 UNK         0.3040 
     91 H91        24.9860  -25.9036  -44.0397 H         1 UNK         0.1015 
     92 H92        26.7198  -28.2421  -43.0750 H         1 UNK         0.0786 
     93 H93        27.2781  -26.6256  -43.4781 H         1 UNK         0.0786 
     94 H94        26.6325  -27.6630  -44.7383 H         1 UNK         0.0786 
     95 H95        22.8856  -26.4062  -42.2617 H         1 UNK         0.3172 
     96 H96        22.0396  -25.7932  -40.3591 H         1 UNK         0.0595 
     97 H97        23.1184  -24.2037  -38.8489 H         1 UNK         0.0839 
     98 H98        24.7025  -24.5495  -39.5195 H         1 UNK         0.0839 
     99 H99        23.4773  -23.7477  -40.5041 H         1 UNK         0.0839 
    100 H100       23.8567  -28.3775  -40.5851 H         1 UNK         0.2998 
    101 H101       24.0395  -29.1068  -37.7279 H         1 UNK         0.0822 
    102 H102       24.9763  -31.1991  -38.5808 H         1 UNK         0.0787 
    103 H103       24.4739  -30.8402  -40.2224 H         1 UNK         0.0787 
    104 H104       25.7498  -29.8917  -39.4604 H         1 UNK         0.0787 
    105 H105       22.9928  -31.2484  -37.1385 H         1 UNK         0.3055 
    106 H106       20.1266  -31.1607  -37.6193 H         1 UNK         0.1106 
    107 H107       21.0730  -31.5673  -35.3539 H         1 UNK         0.0828 
    108 H108       20.0785  -32.9166  -35.8689 H         1 UNK         0.0828 
    109 H109       21.8303  -33.0570  -35.9195 H         1 UNK         0.0828 
    110 H110       21.1025  -31.5725  -40.0274 H         1 UNK         0.2931 
    111 H111       21.0247  -32.7096  -41.8651 H         1 UNK         0.0412 
    112 H112       22.6117  -36.0462  -42.2454 H         1 UNK         0.3472 
    113 H113       21.0701  -35.3977  -42.7496 H         1 UNK         0.3472 
    114 H114       19.3543  -35.0704  -41.1007 H         1 UNK         0.0970 
    115 H115       18.6796  -33.5847  -40.5401 H         1 UNK         0.0970 
    116 H116       18.6383  -31.4070  -42.0080 H         1 UNK         0.0612 
    117 H117       17.0833  -32.2050  -41.9636 H         1 UNK         0.0612 
@<TRIPOS>BOND
     1    1    2 1    
     2    1   62 1    
     3    1   63 1    
     4    1   64 1    
     5    2    3 2    
     6    2    4 am   BACKBONE|DICT|INTERRES
     7    4    5 1    
     8    4   65 1    
     9    5    6 1    
    10    5   25 1    
    11    5   66 1    
    12    6    7 1    
    13    6   67 1    
    14    6   68 1    
    15    7    8 1    
    16    8    9 1    
    17    8   69 1    
    18    8   70 1    
    19    9   10 ar   
    20    9   14 ar   
    21   10   11 ar   
    22   10   71 1    
    23   11   12 ar   
    24   11   61 1    
    25   12   13 ar   
    26   12   72 1    
    27   13   14 ar   
    28   13   15 1    
    29   14   73 1    
    30   15   16 1    
    31   15   74 1    
    32   15   75 1    
    33   16   17 1    
    34   17   18 1    
    35   17   76 1    
    36   17   77 1    
    37   18   19 1    
    38   18   27 1    
    39   18   78 1    
    40   19   20 am   BACKBONE|DICT|INTERRES
    41   19   79 1    
    42   20   21 2    
    43   20   22 1    
    44   22   23 1    
    45   22   24 1    
    46   22   80 1    
    47   23   81 1    
    48   23   82 1    
    49   23   83 1    
    50   24   25 am   BACKBONE|DICT|INTERRES
    51   24   84 1    
    52   25   26 2    
    53   27   28 2    
    54   27   29 am   BACKBONE|DICT|INTERRES
    55   29   30 1    
    56   29   85 1    
    57   30   31 1    
    58   30   32 1    
    59   30   86 1    
    60   31   87 1    
    61   31   88 1    
    62   31   89 1    
    63   32   33 2    
    64   32   34 am   BACKBONE|DICT|INTERRES
    65   34   35 1    
    66   34   90 1    
    67   35   36 1    
    68   35   37 1    
    69   35   91 1    
    70   36   92 1    
    71   36   93 1    
    72   36   94 1    
    73   37   38 2    
    74   37   39 am   BACKBONE|DICT|INTERRES
    75   39   40 1    
    76   39   95 1    
    77   40   41 1    
    78   40   42 1    
    79   40   96 1    
    80   41   97 1    
    81   41   98 1    
    82   41   99 1    
    83   42   43 2    
    84   42   44 am   BACKBONE|DICT|INTERRES
    85   44   45 1    
    86   44  100 1    
    87   45   46 1    
    88   45   47 1    
    89   45  101 1    
    90   46  102 1    
    91   46  103 1    
    92   46  104 1    
    93   47   48 2    
    94   47   49 am   BACKBONE|DICT|INTERRES
    95   49   50 1    
    96   49  105 1    
    97   50   51 1    
    98   50   52 1    
    99   50  106 1    
   100   51  107 1    
   101   51  108 1    
   102   51  109 1    
   103   52   53 2    
   104   52   54 am   BACKBONE|DICT|INTERRES
   105   54   55 1    
   106   54  110 1    
   107   55   56 1    
   108   55   59 1    
   109   55  111 1    
   110   56   57 am   BACKBONE|DICT|INTERRES
   111   56   58 2    
   112   57  112 1    
   113   57  113 1    
   114   59   60 1    
   115   59  114 1    
   116   59  115 1    
   117   60   61 1    
   118   61  116 1    
   119   61  117 1    
@<TRIPOS>SUBSTRUCTURE
     1 UNK         1 GROUP             0       ****    0 ROOT    
