@<TRIPOS>MOLECULE
3R8
117   119    1
SMALL
USER_CHARGES


@<TRIPOS>ATOM
      1 CA         15.1909  -25.1696  -40.7465 C.3       0 UNK        -0.2013 
      2 C          15.5123  -25.0990  -42.2321 C.2       0 UNK         0.4866 
      3 O          15.2008  -24.0979  -42.8786 O.2       0 UNK        -0.5176 
      4 N          16.1256  -26.1569  -42.7777 N.am      1 UNK        -0.4884 
      5 CA         16.5850  -26.2306  -44.1693 C.3       1 UNK         0.0853 
      6 C6         16.6513  -27.7013  -44.6535 C.3       10 UNK        -0.0849 
      7 S7         16.4347  -27.8484  -46.4614 S.3       10 UNK        -0.2776 
      8 C8         16.3621  -29.6550  -46.6698 C.3       10 UNK         0.0316 
      9 C9         17.6416  -30.3247  -46.1935 C.ar      10 UNK        -0.0863 
     10 C10        17.6627  -31.0142  -44.9766 C.ar      10 UNK        -0.1009 
     11 C11        18.8403  -31.6147  -44.5244 C.ar      10 UNK        -0.0712 
     12 C12        19.9937  -31.5355  -45.3064 C.ar      10 UNK        -0.0894 
     13 C13        19.9951  -30.8217  -46.5074 C.ar      10 UNK        -0.0745 
     14 C14        18.8105  -30.2313  -46.9561 C.ar      10 UNK        -0.0972 
     15 C15        21.2876  -30.6653  -47.2969 C.3       10 UNK         0.0209 
     16 S16        21.9813  -28.9814  -47.1693 S.3       10 UNK        -0.2568 
     17 C17        22.2319  -28.7815  -45.3695 C.3       10 UNK        -0.0983 
     18 CA         22.1686  -27.3025  -44.9107 C.3       3 UNK         0.0876 
     19 N          20.9779  -26.5916  -45.3913 N.am      3 UNK        -0.4424 
     20 C          20.8923  -25.2565  -45.4802 C.2       2 UNK         0.4918 
     21 O          21.8004  -24.4875  -45.1631 O.2       2 UNK        -0.4875 
     22 CA         19.5826  -24.6687  -46.0349 C.3       2 UNK         0.0481 
     23 CB         19.6328  -24.6102  -47.5701 C.3       2 UNK        -0.1831 
     24 N          18.3739  -25.3831  -45.6172 N.am      2 UNK        -0.4498 
     25 C          17.9292  -25.4873  -44.3577 C.2       1 UNK         0.5027 
     26 O          18.5333  -25.0297  -43.3847 O.2       1 UNK        -0.4969 
     27 C          22.2773  -27.1981  -43.3782 C.2       3 UNK         0.5005 
     28 O          23.3046  -26.7459  -42.8683 O.2       3 UNK        -0.5279 
     29 N          21.2034  -27.6098  -42.6828 N.am      4 UNK        -0.4463 
     30 CA         21.0259  -27.6048  -41.2266 C.3       4 UNK         0.0283 
     31 CB         20.6927  -26.1781  -40.7375 C.3       4 UNK        -0.1875 
     32 C          22.2155  -28.2538  -40.4952 C.2       4 UNK         0.4949 
     33 O          22.4141  -29.4627  -40.6209 O.2       4 UNK        -0.5039 
     34 N          23.0036  -27.4456  -39.7740 N.am      5 UNK        -0.4663 
     35 CA         24.1967  -27.8537  -39.0294 C.3       5 UNK         0.0242 
     36 CB         24.7441  -26.6450  -38.2543 C.3       5 UNK        -0.1982 
     37 C          25.3042  -28.4832  -39.8932 C.2       5 UNK         0.5017 
     38 O          26.0629  -29.2990  -39.3704 O.2       5 UNK        -0.5012 
     39 N          25.3615  -28.1447  -41.1917 N.am      6 UNK        -0.4439 
     40 CA         26.3043  -28.7351  -42.1499 C.3       6 UNK         0.0297 
     41 CB         26.3290  -27.9005  -43.4405 C.3       6 UNK        -0.2006 
     42 C          25.9996  -30.2103  -42.4721 C.2       6 UNK         0.4892 
     43 O          26.9142  -30.9375  -42.8601 O.2       6 UNK        -0.5089 
     44 N          24.7371  -30.6230  -42.2972 N.am      7 UNK        -0.4243 
     45 CA         24.2655  -31.9989  -42.4679 C.3       7 UNK         0.0196 
     46 CB         23.0639  -31.9767  -43.4227 C.3       7 UNK        -0.2007 
     47 C          23.8869  -32.6533  -41.1258 C.2       7 UNK         0.5020 
     48 O          23.4236  -33.7940  -41.1275 O.2       7 UNK        -0.5147 
     49 N          24.0769  -31.9264  -40.0137 N.am      8 UNK        -0.4734 
     50 CA         23.7108  -32.2767  -38.6363 C.3       8 UNK         0.0238 
     51 CB         24.5687  -33.4545  -38.1256 C.3       8 UNK        -0.1912 
     52 C          22.1960  -32.5032  -38.4396 C.2       8 UNK         0.5038 
     53 O          21.8111  -33.3487  -37.6290 O.2       8 UNK        -0.5046 
     54 N          21.3691  -31.7407  -39.1682 N.am      9 UNK        -0.4200 
     55 CA         19.8981  -31.7792  -39.1052 C.3       9 UNK         0.0839 
     56 C          19.2565  -30.4552  -38.5983 C.2       9 UNK         0.5513 
     57 N          20.0268  -29.4893  -38.1113 N.am      9 UNK        -0.7519 
     58 O          18.0366  -30.3120  -38.6138 O.2       9 UNK        -0.4960 
     59 C59        19.2751  -32.3098  -40.4250 C.3       10 UNK        -0.0876 
     60 S60        19.5268  -31.2386  -41.8805 S.3       10 UNK        -0.2414 
     61 C61        18.8777  -32.3297  -43.1837 C.3       10 UNK         0.0169 
     62 H62        14.1179  -25.0628  -40.5888 H         1 UNK         0.0903 
     63 H63        15.5060  -26.1148  -40.3046 H         1 UNK         0.0903 
     64 H64        15.6957  -24.3628  -40.2156 H         1 UNK         0.0903 
     65 H65        16.3879  -26.9332  -42.1873 H         1 UNK         0.3096 
     66 H66        15.8470  -25.7044  -44.7801 H         1 UNK         0.1121 
     67 H67        15.8516  -28.2837  -44.1924 H         1 UNK         0.0849 
     68 H68        17.5845  -28.1779  -44.3463 H         1 UNK         0.0849 
     69 H69        15.4947  -30.0469  -46.1360 H         1 UNK         0.0865 
     70 H70        16.2011  -29.8862  -47.7238 H         1 UNK         0.0865 
     71 H71        16.7674  -31.0703  -44.3724 H         1 UNK         0.1346 
     72 H72        20.9022  -32.0025  -44.9604 H         1 UNK         0.1412 
     73 H73        18.8052  -29.6760  -47.8844 H         1 UNK         0.1426 
     74 H74        22.0370  -31.3833  -46.9597 H         1 UNK         0.0716 
     75 H75        21.0987  -30.8913  -48.3472 H         1 UNK         0.0716 
     76 H76        21.4895  -29.3693  -44.8321 H         1 UNK         0.0695 
     77 H77        23.2012  -29.2133  -45.1139 H         1 UNK         0.0695 
     78 H78        23.0446  -26.8005  -45.3286 H         1 UNK         0.0983 
     79 H79        20.2032  -27.1564  -45.7059 H         1 UNK         0.3095 
     80 H80        19.5004  -23.6455  -45.6621 H         1 UNK         0.0454 
     81 H81        19.6798  -25.6064  -48.0122 H         1 UNK         0.0851 
     82 H82        18.7590  -24.1020  -47.9780 H         1 UNK         0.0851 
     83 H83        20.5119  -24.0615  -47.9113 H         1 UNK         0.0851 
     84 H84        17.8294  -25.8229  -46.3481 H         1 UNK         0.2976 
     85 H85        20.4285  -27.9906  -43.2057 H         1 UNK         0.3116 
     86 H86        20.1623  -28.2366  -41.0139 H         1 UNK         0.0646 
     87 H87        21.4680  -25.4579  -41.0018 H         1 UNK         0.0847 
     88 H88        19.7603  -25.8266  -41.1778 H         1 UNK         0.0847 
     89 H89        20.5569  -26.1491  -39.6555 H         1 UNK         0.0847 
     90 H90        22.7807  -26.4608  -39.7610 H         1 UNK         0.3040 
     91 H91        23.8865  -28.6112  -38.3065 H         1 UNK         0.1015 
     92 H92        25.0445  -25.8383  -38.9243 H         1 UNK         0.0786 
     93 H93        25.6196  -26.9222  -37.6650 H         1 UNK         0.0786 
     94 H94        24.0027  -26.2484  -37.5603 H         1 UNK         0.0786 
     95 H95        24.6731  -27.4957  -41.5654 H         1 UNK         0.3172 
     96 H96        27.3009  -28.6946  -41.7051 H         1 UNK         0.0595 
     97 H97        27.1095  -28.2545  -44.1153 H         1 UNK         0.0839 
     98 H98        26.5317  -26.8495  -43.2339 H         1 UNK         0.0839 
     99 H99        25.3848  -27.9616  -43.9818 H         1 UNK         0.0839 
    100 H100       24.0503  -29.9622  -41.9512 H         1 UNK         0.2998 
    101 H101       25.0442  -32.6217  -42.9129 H         1 UNK         0.0822 
    102 H102       22.6485  -32.9760  -43.5597 H         1 UNK         0.0787 
    103 H103       22.2673  -31.3368  -43.0420 H         1 UNK         0.0787 
    104 H104       23.3512  -31.6086  -44.4075 H         1 UNK         0.0787 
    105 H105       24.4757  -31.0053  -40.1311 H         1 UNK         0.3055 
    106 H106       23.9593  -31.4061  -38.0273 H         1 UNK         0.1106 
    107 H107       25.6323  -33.2579  -38.2603 H         1 UNK         0.0828 
    108 H108       24.4057  -33.6258  -37.0609 H         1 UNK         0.0828 
    109 H109       24.3305  -34.3840  -38.6435 H         1 UNK         0.0828 
    110 H110       21.7618  -31.0498  -39.8033 H         1 UNK         0.2931 
    111 H111       19.6071  -32.4986  -38.3384 H         1 UNK         0.0412 
    112 H112       19.5972  -28.6474  -37.7622 H         1 UNK         0.3472 
    113 H113       21.0247  -29.6101  -38.0592 H         1 UNK         0.3472 
    114 H114       19.6923  -33.2936  -40.6461 H         1 UNK         0.0970 
    115 H115       18.2028  -32.4676  -40.2961 H         1 UNK         0.0970 
    116 H116       19.5026  -33.2214  -43.2536 H         1 UNK         0.0612 
    117 H117       17.8778  -32.6693  -42.9089 H         1 UNK         0.0612 
@<TRIPOS>BOND
     1    1    2 1    
     2    1   62 1    
     3    1   63 1    
     4    1   64 1    
     5    2    3 2    
     6    2    4 am   BACKBONE|DICT|INTERRES
     7    4    5 1    
     8    4   65 1    
     9    5    6 1    
    10    5   25 1    
    11    5   66 1    
    12    6    7 1    
    13    6   67 1    
    14    6   68 1    
    15    7    8 1    
    16    8    9 1    
    17    8   69 1    
    18    8   70 1    
    19    9   10 ar   
    20    9   14 ar   
    21   10   11 ar   
    22   10   71 1    
    23   11   12 ar   
    24   11   61 1    
    25   12   13 ar   
    26   12   72 1    
    27   13   14 ar   
    28   13   15 1    
    29   14   73 1    
    30   15   16 1    
    31   15   74 1    
    32   15   75 1    
    33   16   17 1    
    34   17   18 1    
    35   17   76 1    
    36   17   77 1    
    37   18   19 1    
    38   18   27 1    
    39   18   78 1    
    40   19   20 am   BACKBONE|DICT|INTERRES
    41   19   79 1    
    42   20   21 2    
    43   20   22 1    
    44   22   23 1    
    45   22   24 1    
    46   22   80 1    
    47   23   81 1    
    48   23   82 1    
    49   23   83 1    
    50   24   25 am   BACKBONE|DICT|INTERRES
    51   24   84 1    
    52   25   26 2    
    53   27   28 2    
    54   27   29 am   BACKBONE|DICT|INTERRES
    55   29   30 1    
    56   29   85 1    
    57   30   31 1    
    58   30   32 1    
    59   30   86 1    
    60   31   87 1    
    61   31   88 1    
    62   31   89 1    
    63   32   33 2    
    64   32   34 am   BACKBONE|DICT|INTERRES
    65   34   35 1    
    66   34   90 1    
    67   35   36 1    
    68   35   37 1    
    69   35   91 1    
    70   36   92 1    
    71   36   93 1    
    72   36   94 1    
    73   37   38 2    
    74   37   39 am   BACKBONE|DICT|INTERRES
    75   39   40 1    
    76   39   95 1    
    77   40   41 1    
    78   40   42 1    
    79   40   96 1    
    80   41   97 1    
    81   41   98 1    
    82   41   99 1    
    83   42   43 2    
    84   42   44 am   BACKBONE|DICT|INTERRES
    85   44   45 1    
    86   44  100 1    
    87   45   46 1    
    88   45   47 1    
    89   45  101 1    
    90   46  102 1    
    91   46  103 1    
    92   46  104 1    
    93   47   48 2    
    94   47   49 am   BACKBONE|DICT|INTERRES
    95   49   50 1    
    96   49  105 1    
    97   50   51 1    
    98   50   52 1    
    99   50  106 1    
   100   51  107 1    
   101   51  108 1    
   102   51  109 1    
   103   52   53 2    
   104   52   54 am   BACKBONE|DICT|INTERRES
   105   54   55 1    
   106   54  110 1    
   107   55   56 1    
   108   55   59 1    
   109   55  111 1    
   110   56   57 am   BACKBONE|DICT|INTERRES
   111   56   58 2    
   112   57  112 1    
   113   57  113 1    
   114   59   60 1    
   115   59  114 1    
   116   59  115 1    
   117   60   61 1    
   118   61  116 1    
   119   61  117 1    
@<TRIPOS>SUBSTRUCTURE
     1 UNK         1 GROUP             0       ****    0 ROOT    
