@<TRIPOS>MOLECULE
3R8
117   119    1
SMALL
USER_CHARGES


@<TRIPOS>ATOM
      1 CA         16.5117  -25.4115  -49.2028 C.3       0 UNK        -0.2013 
      2 C          16.2051  -24.5418  -47.9865 C.2       0 UNK         0.4866 
      3 O          15.3385  -23.6732  -48.0670 O.2       0 UNK        -0.5176 
      4 N          16.8826  -24.7266  -46.8481 N.am      1 UNK        -0.4884 
      5 CA         17.9673  -25.6756  -46.6030 C.3       1 UNK         0.0853 
      6 C6         17.4316  -27.0736  -46.1961 C.3       10 UNK        -0.0849 
      7 S7         18.6224  -28.4018  -46.5712 S.3       10 UNK        -0.2776 
      8 C8         17.7956  -29.8388  -45.8206 C.3       10 UNK         0.0316 
      9 C9         18.0306  -29.9178  -44.3182 C.ar      10 UNK        -0.0863 
     10 C10        19.1625  -30.5714  -43.8214 C.ar      10 UNK        -0.1009 
     11 C11        19.3591  -30.7035  -42.4434 C.ar      10 UNK        -0.0712 
     12 C12        18.4209  -30.1625  -41.5604 C.ar      10 UNK        -0.0894 
     13 C13        17.3012  -29.4780  -42.0432 C.ar      10 UNK        -0.0745 
     14 C14        17.1058  -29.3693  -43.4238 C.ar      10 UNK        -0.0972 
     15 C15        16.2967  -28.8650  -41.0750 C.3       10 UNK         0.0209 
     16 S16        17.0542  -27.6358  -39.9596 S.3       10 UNK        -0.2568 
     17 C17        17.7031  -26.3962  -41.1319 C.3       10 UNK        -0.0983 
     18 CA         19.2295  -26.5401  -41.3507 C.3       3 UNK         0.0876 
     19 N          19.6593  -25.8753  -42.5811 N.am      3 UNK        -0.4424 
     20 C          20.8822  -25.9665  -43.1179 C.2       2 UNK         0.4918 
     21 O          21.7902  -26.6333  -42.6210 O.2       2 UNK        -0.4875 
     22 CA         21.1206  -25.1988  -44.4343 C.3       2 UNK         0.0481 
     23 CB         22.5279  -25.4455  -45.0110 C.3       2 UNK        -0.1831 
     24 N          20.1263  -25.5480  -45.4528 N.am      2 UNK        -0.4498 
     25 C          18.8722  -25.0833  -45.5101 C.2       1 UNK         0.5027 
     26 O          18.4115  -24.2615  -44.7111 O.2       1 UNK        -0.4969 
     27 C          20.0478  -26.0339  -40.1454 C.2       3 UNK         0.5005 
     28 O          20.2293  -24.8220  -40.0027 O.2       3 UNK        -0.5279 
     29 N          20.5703  -26.9711  -39.3416 N.am      4 UNK        -0.4463 
     30 CA         21.4735  -26.8008  -38.1921 C.3       4 UNK         0.0283 
     31 CB         20.8482  -25.9117  -37.0993 C.3       4 UNK        -0.1875 
     32 C          22.8962  -26.3262  -38.5516 C.2       4 UNK         0.4949 
     33 O          23.8394  -26.7056  -37.8569 O.2       4 UNK        -0.5039 
     34 N          23.0420  -25.5281  -39.6178 N.am      5 UNK        -0.4663 
     35 CA         24.3226  -25.0959  -40.1818 C.3       5 UNK         0.0242 
     36 CB         24.0800  -23.9749  -41.2052 C.3       5 UNK        -0.1982 
     37 C          25.1020  -26.2624  -40.8125 C.2       5 UNK         0.5017 
     38 O          26.3091  -26.3714  -40.5927 O.2       5 UNK        -0.5012 
     39 N          24.3917  -27.1214  -41.5528 N.am      6 UNK        -0.4439 
     40 CA         24.8713  -28.4064  -42.0516 C.3       6 UNK         0.0297 
     41 CB         24.4525  -28.5598  -43.5238 C.3       6 UNK        -0.2006 
     42 C          24.2597  -29.5310  -41.2043 C.2       6 UNK         0.4892 
     43 O          23.1863  -29.3537  -40.6227 O.2       6 UNK        -0.5089 
     44 N          24.9442  -30.6793  -41.1814 N.am      7 UNK        -0.4243 
     45 CA         24.5309  -31.8930  -40.4709 C.3       7 UNK         0.0196 
     46 CB         25.3287  -32.0129  -39.1584 C.3       7 UNK        -0.2007 
     47 C          24.6730  -33.1356  -41.3678 C.2       7 UNK         0.5020 
     48 O          24.8792  -34.2380  -40.8606 O.2       7 UNK        -0.5147 
     49 N          24.5688  -32.9427  -42.6911 N.am      8 UNK        -0.4734 
     50 CA         24.6576  -34.0056  -43.7009 C.3       8 UNK         0.0238 
     51 CB         24.9938  -33.3706  -45.0608 C.3       8 UNK        -0.1912 
     52 C          23.3811  -34.8622  -43.8087 C.2       8 UNK         0.5038 
     53 O          23.4291  -35.9424  -44.3988 O.2       8 UNK        -0.5046 
     54 N          22.2687  -34.3572  -43.2633 N.am      9 UNK        -0.4200 
     55 CA         20.9653  -35.0254  -43.1792 C.3       9 UNK         0.0839 
     56 C          20.9675  -36.2848  -42.2663 C.2       9 UNK         0.5513 
     57 N          20.0469  -37.2116  -42.4959 N.am      9 UNK        -0.7519 
     58 O          21.7672  -36.4199  -41.3425 O.2       9 UNK        -0.4960 
     59 C59        19.8493  -34.0180  -42.7910 C.3       10 UNK        -0.0876 
     60 S60        20.1891  -33.0753  -41.2586 S.3       10 UNK        -0.2414 
     61 C61        20.5882  -31.4183  -41.9017 C.3       10 UNK         0.0169 
     62 H62        17.4515  -25.1057  -49.6616 H         1 UNK         0.0903 
     63 H63        16.5776  -26.4665  -48.9413 H         1 UNK         0.0903 
     64 H64        15.7262  -25.3091  -49.9513 H         1 UNK         0.0903 
     65 H65        16.7133  -24.1113  -46.0606 H         1 UNK         0.3096 
     66 H66        18.5690  -25.7532  -47.5113 H         1 UNK         0.1121 
     67 H67        16.5128  -27.3058  -46.7360 H         1 UNK         0.0849 
     68 H68        17.1622  -27.0989  -45.1389 H         1 UNK         0.0849 
     69 H69        16.7275  -29.8108  -46.0422 H         1 UNK         0.0865 
     70 H70        18.1740  -30.7453  -46.2956 H         1 UNK         0.0865 
     71 H71        19.8843  -30.9879  -44.5107 H         1 UNK         0.1346 
     72 H72        18.5693  -30.2631  -40.4938 H         1 UNK         0.1412 
     73 H73        16.2290  -28.8630  -43.8035 H         1 UNK         0.1426 
     74 H74        15.8546  -29.6606  -40.4739 H         1 UNK         0.0716 
     75 H75        15.4729  -28.3925  -41.6125 H         1 UNK         0.0716 
     76 H76        17.4503  -25.3974  -40.7706 H         1 UNK         0.0695 
     77 H77        17.1738  -26.5106  -42.0794 H         1 UNK         0.0695 
     78 H78        19.4585  -27.5969  -41.4976 H         1 UNK         0.0983 
     79 H79        18.9870  -25.2716  -43.0399 H         1 UNK         0.3095 
     80 H80        21.0368  -24.1341  -44.2067 H         1 UNK         0.0454 
     81 H81        22.6967  -24.8562  -45.9122 H         1 UNK         0.0851 
     82 H82        22.6821  -26.4955  -45.2624 H         1 UNK         0.0851 
     83 H83        23.3028  -25.1667  -44.2962 H         1 UNK         0.0851 
     84 H84        20.3949  -26.2746  -46.1022 H         1 UNK         0.2976 
     85 H85        20.3935  -27.9363  -39.5852 H         1 UNK         0.3116 
     86 H86        21.5867  -27.8008  -37.7700 H         1 UNK         0.0646 
     87 H87        20.7431  -24.8760  -37.4231 H         1 UNK         0.0847 
     88 H88        19.8629  -26.2745  -36.8071 H         1 UNK         0.0847 
     89 H89        21.4703  -25.9055  -36.2034 H         1 UNK         0.0847 
     90 H90        22.1964  -25.2236  -40.0882 H         1 UNK         0.3040 
     91 H91        24.9315  -24.6929  -39.3693 H         1 UNK         0.1015 
     92 H92        25.0188  -23.6418  -41.6500 H         1 UNK         0.0786 
     93 H93        23.6171  -23.1061  -40.7370 H         1 UNK         0.0786 
     94 H94        23.4305  -24.3018  -42.0172 H         1 UNK         0.0786 
     95 H95        23.3936  -26.9596  -41.6715 H         1 UNK         0.3172 
     96 H96        25.9600  -28.4608  -41.9863 H         1 UNK         0.0595 
     97 H97        23.3676  -28.5889  -43.6352 H         1 UNK         0.0839 
     98 H98        24.8491  -29.4805  -43.9529 H         1 UNK         0.0839 
     99 H99        24.8272  -27.7342  -44.1290 H         1 UNK         0.0839 
    100 H100       25.8177  -30.7391  -41.6881 H         1 UNK         0.2998 
    101 H101       23.4702  -31.8332  -40.2169 H         1 UNK         0.0822 
    102 H102       25.0030  -32.8757  -38.5757 H         1 UNK         0.0787 
    103 H103       26.3968  -32.1275  -39.3464 H         1 UNK         0.0787 
    104 H104       25.1910  -31.1320  -38.5311 H         1 UNK         0.0787 
    105 H105       24.3955  -32.0072  -43.0290 H         1 UNK         0.3055 
    106 H106       25.4726  -34.6796  -43.4262 H         1 UNK         0.1106 
    107 H107       25.9339  -32.8200  -45.0212 H         1 UNK         0.0828 
    108 H108       25.1021  -34.1344  -45.8324 H         1 UNK         0.0828 
    109 H109       24.2140  -32.6835  -45.3914 H         1 UNK         0.0828 
    110 H110       22.3447  -33.4910  -42.7547 H         1 UNK         0.2931 
    111 H111       20.7407  -35.3777  -44.1882 H         1 UNK         0.0412 
    112 H112       19.3819  -37.1136  -43.2477 H         1 UNK         0.3472 
    113 H113       20.0213  -38.0319  -41.9099 H         1 UNK         0.3472 
    114 H114       18.8922  -34.5294  -42.6730 H         1 UNK         0.0970 
    115 H115       19.6953  -33.3238  -43.6166 H         1 UNK         0.0970 
    116 H116       21.3656  -31.4921  -42.6634 H         1 UNK         0.0612 
    117 H117       21.0125  -30.8269  -41.0898 H         1 UNK         0.0612 
@<TRIPOS>BOND
     1    1    2 1    
     2    1   62 1    
     3    1   63 1    
     4    1   64 1    
     5    2    3 2    
     6    2    4 am   BACKBONE|DICT|INTERRES
     7    4    5 1    
     8    4   65 1    
     9    5    6 1    
    10    5   25 1    
    11    5   66 1    
    12    6    7 1    
    13    6   67 1    
    14    6   68 1    
    15    7    8 1    
    16    8    9 1    
    17    8   69 1    
    18    8   70 1    
    19    9   10 ar   
    20    9   14 ar   
    21   10   11 ar   
    22   10   71 1    
    23   11   12 ar   
    24   11   61 1    
    25   12   13 ar   
    26   12   72 1    
    27   13   14 ar   
    28   13   15 1    
    29   14   73 1    
    30   15   16 1    
    31   15   74 1    
    32   15   75 1    
    33   16   17 1    
    34   17   18 1    
    35   17   76 1    
    36   17   77 1    
    37   18   19 1    
    38   18   27 1    
    39   18   78 1    
    40   19   20 am   BACKBONE|DICT|INTERRES
    41   19   79 1    
    42   20   21 2    
    43   20   22 1    
    44   22   23 1    
    45   22   24 1    
    46   22   80 1    
    47   23   81 1    
    48   23   82 1    
    49   23   83 1    
    50   24   25 am   BACKBONE|DICT|INTERRES
    51   24   84 1    
    52   25   26 2    
    53   27   28 2    
    54   27   29 am   BACKBONE|DICT|INTERRES
    55   29   30 1    
    56   29   85 1    
    57   30   31 1    
    58   30   32 1    
    59   30   86 1    
    60   31   87 1    
    61   31   88 1    
    62   31   89 1    
    63   32   33 2    
    64   32   34 am   BACKBONE|DICT|INTERRES
    65   34   35 1    
    66   34   90 1    
    67   35   36 1    
    68   35   37 1    
    69   35   91 1    
    70   36   92 1    
    71   36   93 1    
    72   36   94 1    
    73   37   38 2    
    74   37   39 am   BACKBONE|DICT|INTERRES
    75   39   40 1    
    76   39   95 1    
    77   40   41 1    
    78   40   42 1    
    79   40   96 1    
    80   41   97 1    
    81   41   98 1    
    82   41   99 1    
    83   42   43 2    
    84   42   44 am   BACKBONE|DICT|INTERRES
    85   44   45 1    
    86   44  100 1    
    87   45   46 1    
    88   45   47 1    
    89   45  101 1    
    90   46  102 1    
    91   46  103 1    
    92   46  104 1    
    93   47   48 2    
    94   47   49 am   BACKBONE|DICT|INTERRES
    95   49   50 1    
    96   49  105 1    
    97   50   51 1    
    98   50   52 1    
    99   50  106 1    
   100   51  107 1    
   101   51  108 1    
   102   51  109 1    
   103   52   53 2    
   104   52   54 am   BACKBONE|DICT|INTERRES
   105   54   55 1    
   106   54  110 1    
   107   55   56 1    
   108   55   59 1    
   109   55  111 1    
   110   56   57 am   BACKBONE|DICT|INTERRES
   111   56   58 2    
   112   57  112 1    
   113   57  113 1    
   114   59   60 1    
   115   59  114 1    
   116   59  115 1    
   117   60   61 1    
   118   61  116 1    
   119   61  117 1    
@<TRIPOS>SUBSTRUCTURE
     1 UNK         1 GROUP             0       ****    0 ROOT    
