@<TRIPOS>MOLECULE
3R8
117   119    1
SMALL
USER_CHARGES


@<TRIPOS>ATOM
      1 CA         13.7495  -24.6405  -47.5966 C.3       0 UNK        -0.2013 
      2 C          14.3881  -25.0233  -46.2693 C.2       0 UNK         0.4866 
      3 O          14.1624  -24.3406  -45.2694 O.2       0 UNK        -0.5176 
      4 N          15.1733  -26.1103  -46.2628 N.am      1 UNK        -0.4884 
      5 CA         15.9257  -26.6602  -45.1236 C.3       1 UNK         0.0853 
      6 C6         15.0112  -27.1301  -43.9504 C.3       10 UNK        -0.0849 
      7 S7         14.2971  -28.7657  -44.3116 S.3       10 UNK        -0.2776 
      8 C8         15.2738  -29.8380  -43.2007 C.3       10 UNK         0.0316 
      9 C9         16.7813  -29.7567  -43.4357 C.ar      10 UNK        -0.0863 
     10 C10        17.6463  -29.5063  -42.3642 C.ar      10 UNK        -0.1009 
     11 C11        19.0348  -29.5134  -42.5494 C.ar      10 UNK        -0.0712 
     12 C12        19.5491  -29.7263  -43.8302 C.ar      10 UNK        -0.0894 
     13 C13        18.6988  -29.9398  -44.9173 C.ar      10 UNK        -0.0745 
     14 C14        17.3171  -29.9762  -44.7091 C.ar      10 UNK        -0.0972 
     15 C15        19.2694  -30.1619  -46.3108 C.3       10 UNK         0.0209 
     16 S16        19.6505  -28.5885  -47.1506 S.3       10 UNK        -0.2568 
     17 C17        21.3242  -28.2092  -46.5209 C.3       10 UNK        -0.0983 
     18 CA         21.4236  -26.8379  -45.8046 C.3       3 UNK         0.0876 
     19 N          20.4001  -26.6675  -44.7641 N.am      3 UNK        -0.4424 
     20 C          20.1797  -25.5473  -44.0589 C.2       2 UNK         0.4918 
     21 O          20.8334  -24.5110  -44.1872 O.2       2 UNK        -0.4875 
     22 CA         19.0176  -25.6098  -43.0501 C.3       2 UNK         0.0481 
     23 CB         18.6999  -24.2470  -42.3986 C.3       2 UNK        -0.1831 
     24 N          17.8137  -26.2146  -43.6311 N.am      2 UNK        -0.4498 
     25 C          17.0942  -25.7561  -44.6691 C.2       1 UNK         0.5027 
     26 O          17.3580  -24.7163  -45.2787 O.2       1 UNK        -0.4969 
     27 C          22.8547  -26.6200  -45.2670 C.2       3 UNK         0.5005 
     28 O          23.6872  -26.0341  -45.9612 O.2       3 UNK        -0.5279 
     29 N          23.0941  -27.0678  -44.0292 N.am      4 UNK        -0.4463 
     30 CA         24.2880  -26.8220  -43.2329 C.3       4 UNK         0.0283 
     31 CB         25.4438  -27.7369  -43.6780 C.3       4 UNK        -0.1875 
     32 C          23.9124  -27.0925  -41.7751 C.2       4 UNK         0.4949 
     33 O          23.1482  -28.0243  -41.5129 O.2       4 UNK        -0.5039 
     34 N          24.4771  -26.3130  -40.8475 N.am      5 UNK        -0.4663 
     35 CA         24.3227  -26.4980  -39.4010 C.3       5 UNK         0.0242 
     36 CB         24.4639  -25.1316  -38.7038 C.3       5 UNK        -0.1982 
     37 C          25.3382  -27.5375  -38.8905 C.2       5 UNK         0.5017 
     38 O          26.2157  -27.2083  -38.0899 O.2       5 UNK        -0.5012 
     39 N          25.2318  -28.7624  -39.4143 N.am      6 UNK        -0.4439 
     40 CA         26.1526  -29.8736  -39.1968 C.3       6 UNK         0.0297 
     41 CB         27.4474  -29.6537  -40.0142 C.3       6 UNK        -0.2006 
     42 C          25.4343  -31.1909  -39.5310 C.2       6 UNK         0.4892 
     43 O          24.2062  -31.2614  -39.4309 O.2       6 UNK        -0.5089 
     44 N          26.2044  -32.2061  -39.9474 N.am      7 UNK        -0.4243 
     45 CA         25.7795  -33.5778  -40.2625 C.3       7 UNK         0.0196 
     46 CB         27.0261  -34.4067  -40.6172 C.3       7 UNK        -0.2007 
     47 C          24.7028  -33.7274  -41.3580 C.2       7 UNK         0.5020 
     48 O          24.1856  -34.8307  -41.5351 O.2       7 UNK        -0.5147 
     49 N          24.3599  -32.6346  -42.0552 N.am      8 UNK        -0.4734 
     50 CA         23.2208  -32.5435  -42.9722 C.3       8 UNK         0.0238 
     51 CB         23.2515  -31.1863  -43.6934 C.3       8 UNK        -0.1912 
     52 C          21.8604  -32.7659  -42.2805 C.2       8 UNK         0.5038 
     53 O          20.9412  -33.2558  -42.9374 O.2       8 UNK        -0.5046 
     54 N          21.7634  -32.4474  -40.9808 N.am      9 UNK        -0.4200 
     55 CA         20.6126  -32.7925  -40.1315 C.3       9 UNK         0.0839 
     56 C          20.9387  -32.9743  -38.6224 C.2       9 UNK         0.5513 
     57 N          22.1292  -32.6472  -38.1342 N.am      9 UNK        -0.7519 
     58 O          20.0939  -33.4595  -37.8739 O.2       9 UNK        -0.4960 
     59 C59        19.3636  -31.9058  -40.3894 C.3       10 UNK        -0.0876 
     60 S60        19.5300  -30.1673  -39.8467 S.3       10 UNK        -0.2414 
     61 C61        20.0046  -29.3122  -41.3859 C.3       10 UNK         0.0169 
     62 H62        14.0185  -25.3317  -48.3951 H         1 UNK         0.0903 
     63 H63        12.6638  -24.6373  -47.5033 H         1 UNK         0.0903 
     64 H64        14.0692  -23.6414  -47.8915 H         1 UNK         0.0903 
     65 H65        15.3193  -26.6004  -47.1345 H         1 UNK         0.3096 
     66 H66        16.4346  -27.5334  -45.5321 H         1 UNK         0.1121 
     67 H67        15.5350  -27.1955  -42.9965 H         1 UNK         0.0849 
     68 H68        14.1977  -26.4279  -43.7686 H         1 UNK         0.0849 
     69 H69        15.0285  -29.5849  -42.1680 H         1 UNK         0.0865 
     70 H70        14.9547  -30.8714  -43.3426 H         1 UNK         0.0865 
     71 H71        17.2413  -29.3456  -41.3742 H         1 UNK         0.1346 
     72 H72        20.6183  -29.7363  -43.9772 H         1 UNK         0.1412 
     73 H73        16.6537  -30.1733  -45.5406 H         1 UNK         0.1426 
     74 H74        18.5507  -30.7108  -46.9213 H         1 UNK         0.0716 
     75 H75        20.1591  -30.7915  -46.2627 H         1 UNK         0.0716 
     76 H76        22.0022  -28.2274  -47.3764 H         1 UNK         0.0695 
     77 H77        21.6618  -29.0132  -45.8664 H         1 UNK         0.0695 
     78 H78        21.2430  -26.0585  -46.5482 H         1 UNK         0.0983 
     79 H79        19.7793  -27.4522  -44.6280 H         1 UNK         0.3095 
     80 H80        19.3418  -26.2796  -42.2537 H         1 UNK         0.0454 
     81 H81        19.5675  -23.8603  -41.8629 H         1 UNK         0.0851 
     82 H82        17.8869  -24.3315  -41.6779 H         1 UNK         0.0851 
     83 H83        18.4166  -23.4971  -43.1376 H         1 UNK         0.0851 
     84 H84        17.5425  -27.1004  -43.2255 H         1 UNK         0.2976 
     85 H85        22.3527  -27.5258  -43.5146 H         1 UNK         0.3116 
     86 H86        24.5798  -25.7752  -43.3418 H         1 UNK         0.0646 
     87 H87        25.1826  -28.7910  -43.5834 H         1 UNK         0.0847 
     88 H88        25.7228  -27.5534  -44.7154 H         1 UNK         0.0847 
     89 H89        26.3329  -27.5662  -43.0697 H         1 UNK         0.0847 
     90 H90        25.1243  -25.5946  -41.1412 H         1 UNK         0.3040 
     91 H91        23.3230  -26.8818  -39.1828 H         1 UNK         0.1015 
     92 H92        23.7083  -24.4285  -39.0547 H         1 UNK         0.0786 
     93 H93        24.3368  -25.2293  -37.6247 H         1 UNK         0.0786 
     94 H94        25.4439  -24.6855  -38.8783 H         1 UNK         0.0786 
     95 H95        24.4439  -28.9601  -40.0239 H         1 UNK         0.3172 
     96 H96        26.4054  -29.9135  -38.1355 H         1 UNK         0.0595 
     97 H97        27.2573  -29.6858  -41.0879 H         1 UNK         0.0839 
     98 H98        28.2034  -30.4051  -39.7842 H         1 UNK         0.0839 
     99 H99        27.9004  -28.6876  -39.7913 H         1 UNK         0.0839 
    100 H100       27.1966  -32.0327  -40.0187 H         1 UNK         0.2998 
    101 H101       25.3450  -33.9917  -39.3502 H         1 UNK         0.0822 
    102 H102       26.7649  -35.4479  -40.8126 H         1 UNK         0.0787 
    103 H103       27.7495  -34.4076  -39.8015 H         1 UNK         0.0787 
    104 H104       27.5233  -34.0231  -41.5091 H         1 UNK         0.0787 
    105 H105       24.8369  -31.7729  -41.8357 H         1 UNK         0.3055 
    106 H106       23.3354  -33.3322  -43.7193 H         1 UNK         0.1106 
    107 H107       23.1174  -30.3553  -43.0001 H         1 UNK         0.0828 
    108 H108       24.1936  -31.0381  -44.2212 H         1 UNK         0.0828 
    109 H109       22.4575  -31.1285  -44.4382 H         1 UNK         0.0828 
    110 H110       22.5633  -32.0414  -40.5110 H         1 UNK         0.2931 
    111 H111       20.3274  -33.8022  -40.4345 H         1 UNK         0.0412 
    112 H112       22.2967  -32.7978  -37.1524 H         1 UNK         0.3472 
    113 H113       22.8443  -32.1841  -38.6875 H         1 UNK         0.3472 
    114 H114       19.0930  -31.9442  -41.4444 H         1 UNK         0.0970 
    115 H115       18.5026  -32.3278  -39.8684 H         1 UNK         0.0970 
    116 H116       21.0018  -29.6584  -41.6598 H         1 UNK         0.0612 
    117 H117       20.0969  -28.2467  -41.1768 H         1 UNK         0.0612 
@<TRIPOS>BOND
     1    1    2 1    
     2    1   62 1    
     3    1   63 1    
     4    1   64 1    
     5    2    3 2    
     6    2    4 am   BACKBONE|DICT|INTERRES
     7    4    5 1    
     8    4   65 1    
     9    5    6 1    
    10    5   25 1    
    11    5   66 1    
    12    6    7 1    
    13    6   67 1    
    14    6   68 1    
    15    7    8 1    
    16    8    9 1    
    17    8   69 1    
    18    8   70 1    
    19    9   10 ar   
    20    9   14 ar   
    21   10   11 ar   
    22   10   71 1    
    23   11   12 ar   
    24   11   61 1    
    25   12   13 ar   
    26   12   72 1    
    27   13   14 ar   
    28   13   15 1    
    29   14   73 1    
    30   15   16 1    
    31   15   74 1    
    32   15   75 1    
    33   16   17 1    
    34   17   18 1    
    35   17   76 1    
    36   17   77 1    
    37   18   19 1    
    38   18   27 1    
    39   18   78 1    
    40   19   20 am   BACKBONE|DICT|INTERRES
    41   19   79 1    
    42   20   21 2    
    43   20   22 1    
    44   22   23 1    
    45   22   24 1    
    46   22   80 1    
    47   23   81 1    
    48   23   82 1    
    49   23   83 1    
    50   24   25 am   BACKBONE|DICT|INTERRES
    51   24   84 1    
    52   25   26 2    
    53   27   28 2    
    54   27   29 am   BACKBONE|DICT|INTERRES
    55   29   30 1    
    56   29   85 1    
    57   30   31 1    
    58   30   32 1    
    59   30   86 1    
    60   31   87 1    
    61   31   88 1    
    62   31   89 1    
    63   32   33 2    
    64   32   34 am   BACKBONE|DICT|INTERRES
    65   34   35 1    
    66   34   90 1    
    67   35   36 1    
    68   35   37 1    
    69   35   91 1    
    70   36   92 1    
    71   36   93 1    
    72   36   94 1    
    73   37   38 2    
    74   37   39 am   BACKBONE|DICT|INTERRES
    75   39   40 1    
    76   39   95 1    
    77   40   41 1    
    78   40   42 1    
    79   40   96 1    
    80   41   97 1    
    81   41   98 1    
    82   41   99 1    
    83   42   43 2    
    84   42   44 am   BACKBONE|DICT|INTERRES
    85   44   45 1    
    86   44  100 1    
    87   45   46 1    
    88   45   47 1    
    89   45  101 1    
    90   46  102 1    
    91   46  103 1    
    92   46  104 1    
    93   47   48 2    
    94   47   49 am   BACKBONE|DICT|INTERRES
    95   49   50 1    
    96   49  105 1    
    97   50   51 1    
    98   50   52 1    
    99   50  106 1    
   100   51  107 1    
   101   51  108 1    
   102   51  109 1    
   103   52   53 2    
   104   52   54 am   BACKBONE|DICT|INTERRES
   105   54   55 1    
   106   54  110 1    
   107   55   56 1    
   108   55   59 1    
   109   55  111 1    
   110   56   57 am   BACKBONE|DICT|INTERRES
   111   56   58 2    
   112   57  112 1    
   113   57  113 1    
   114   59   60 1    
   115   59  114 1    
   116   59  115 1    
   117   60   61 1    
   118   61  116 1    
   119   61  117 1    
@<TRIPOS>SUBSTRUCTURE
     1 UNK         1 GROUP             0       ****    0 ROOT    
