@<TRIPOS>MOLECULE
3R8
117   119    1
SMALL
USER_CHARGES


@<TRIPOS>ATOM
      1 CA         15.7702  -24.3128  -46.7480 C.3       0 UNK        -0.2013 
      2 C          16.8979  -24.9455  -45.9477 C.2       0 UNK         0.4866 
      3 O          16.6734  -25.3875  -44.8211 O.2       0 UNK        -0.5176 
      4 N          18.1136  -24.9757  -46.5124 N.am      1 UNK        -0.4884 
      5 CA         19.3585  -25.5800  -45.9959 C.3       1 UNK         0.0853 
      6 C6         19.2454  -27.0954  -45.6655 C.3       10 UNK        -0.0849 
      7 S7         18.5644  -28.1147  -47.0141 S.3       10 UNK        -0.2776 
      8 C8         17.0536  -28.7727  -46.2289 C.3       10 UNK         0.0316 
      9 C9         17.3605  -29.7101  -45.0655 C.ar      10 UNK        -0.0863 
     10 C10        17.9636  -30.9469  -45.3115 C.ar      10 UNK        -0.1009 
     11 C11        18.2295  -31.8311  -44.2628 C.ar      10 UNK        -0.0712 
     12 C12        17.8713  -31.4765  -42.9587 C.ar      10 UNK        -0.0894 
     13 C13        17.2501  -30.2514  -42.6974 C.ar      10 UNK        -0.0745 
     14 C14        17.0092  -29.3645  -43.7537 C.ar      10 UNK        -0.0972 
     15 C15        16.7731  -29.9354  -41.2844 C.3       10 UNK         0.0209 
     16 S16        18.1441  -29.5915  -40.1342 S.3       10 UNK        -0.2568 
     17 C17        18.4363  -27.8130  -40.4050 C.3       10 UNK        -0.0983 
     18 CA         19.6478  -27.5474  -41.3319 C.3       3 UNK         0.0876 
     19 N          19.5614  -26.2596  -42.0236 N.am      3 UNK        -0.4424 
     20 C          19.5478  -25.0169  -41.5200 C.2       2 UNK         0.4918 
     21 O          19.6479  -24.7641  -40.3190 O.2       2 UNK        -0.4875 
     22 CA         19.3590  -23.8560  -42.5205 C.3       2 UNK         0.0481 
     23 CB         20.5022  -22.8251  -42.4319 C.3       2 UNK        -0.1831 
     24 N          19.1147  -24.3093  -43.8992 N.am      2 UNK        -0.4498 
     25 C          19.9698  -24.8599  -44.7736 C.2       1 UNK         0.5027 
     26 O          21.1872  -24.9031  -44.6064 O.2       1 UNK        -0.4969 
     27 C          21.0059  -27.7622  -40.6358 C.2       3 UNK         0.5005 
     28 O          21.7505  -28.6602  -41.0303 O.2       3 UNK        -0.5279 
     29 N          21.3344  -26.9137  -39.6527 N.am      4 UNK        -0.4463 
     30 CA         22.5826  -26.9433  -38.8845 C.3       4 UNK         0.0283 
     31 CB         22.5165  -25.9025  -37.7566 C.3       4 UNK        -0.1875 
     32 C          23.8323  -26.7223  -39.7517 C.2       4 UNK         0.4949 
     33 O          24.8544  -27.3639  -39.5135 O.2       4 UNK        -0.5039 
     34 N          23.7112  -25.8722  -40.7817 N.am      5 UNK        -0.4663 
     35 CA         24.7542  -25.6211  -41.7833 C.3       5 UNK         0.0242 
     36 CB         24.3595  -24.4003  -42.6284 C.3       5 UNK        -0.1982 
     37 C          25.0405  -26.8337  -42.6906 C.2       5 UNK         0.5017 
     38 O          26.1392  -26.9273  -43.2377 O.2       5 UNK        -0.5012 
     39 N          24.0632  -27.7421  -42.8141 N.am      6 UNK        -0.4439 
     40 CA         24.1740  -29.0196  -43.5191 C.3       6 UNK         0.0297 
     41 CB         22.8668  -29.2651  -44.2972 C.3       6 UNK        -0.2006 
     42 C          24.4592  -30.1872  -42.5545 C.2       6 UNK         0.4892 
     43 O          24.4658  -31.3334  -43.0033 O.2       6 UNK        -0.5089 
     44 N          24.6376  -29.8991  -41.2525 N.am      7 UNK        -0.4243 
     45 CA         24.7808  -30.8477  -40.1383 C.3       7 UNK         0.0196 
     46 CB         26.1446  -31.5658  -40.2134 C.3       7 UNK        -0.2007 
     47 C          23.5947  -31.8289  -40.0293 C.2       7 UNK         0.5020 
     48 O          23.7930  -33.0018  -39.7067 O.2       7 UNK        -0.5147 
     49 N          22.3887  -31.3442  -40.3680 N.am      8 UNK        -0.4734 
     50 CA         21.1350  -32.0948  -40.5247 C.3       8 UNK         0.0238 
     51 CB         20.5968  -32.5430  -39.1507 C.3       8 UNK        -0.1912 
     52 C          21.2285  -33.2560  -41.5388 C.2       8 UNK         0.5038 
     53 O          20.4807  -34.2284  -41.4224 O.2       8 UNK        -0.5046 
     54 N          22.1509  -33.1334  -42.5039 N.am      9 UNK        -0.4200 
     55 CA         22.5159  -34.1384  -43.5133 C.3       9 UNK         0.0839 
     56 C          23.2462  -35.3872  -42.9329 C.2       9 UNK         0.5513 
     57 N          23.7652  -35.3474  -41.7100 N.am      9 UNK        -0.7519 
     58 O          23.3724  -36.4039  -43.6110 O.2       9 UNK        -0.4960 
     59 C59        21.3570  -34.5066  -44.4845 C.3       10 UNK        -0.0876 
     60 S60        20.5489  -33.0335  -45.2058 S.3       10 UNK        -0.2414 
     61 C61        18.8596  -33.1877  -44.5413 C.3       10 UNK         0.0169 
     62 H62        15.3518  -23.4672  -46.2029 H         1 UNK         0.0903 
     63 H63        16.1086  -23.9565  -47.7207 H         1 UNK         0.0903 
     64 H64        14.9753  -25.0401  -46.9112 H         1 UNK         0.0903 
     65 H65        18.2145  -24.5610  -47.4292 H         1 UNK         0.3096 
     66 H66        20.0884  -25.4744  -46.8007 H         1 UNK         0.1121 
     67 H67        18.6393  -27.2422  -44.7711 H         1 UNK         0.0849 
     68 H68        20.2290  -27.5047  -45.4251 H         1 UNK         0.0849 
     69 H69        16.4218  -27.9447  -45.9052 H         1 UNK         0.0865 
     70 H70        16.4771  -29.3160  -46.9789 H         1 UNK         0.0865 
     71 H71        18.2289  -31.2223  -46.3234 H         1 UNK         0.1346 
     72 H72        18.0511  -32.1656  -42.1445 H         1 UNK         0.1412 
     73 H73        16.5224  -28.4178  -43.5597 H         1 UNK         0.1426 
     74 H74        16.0638  -29.1066  -41.2845 H         1 UNK         0.0716 
     75 H75        16.2198  -30.7958  -40.9052 H         1 UNK         0.0716 
     76 H76        18.5581  -27.3232  -39.4373 H         1 UNK         0.0695 
     77 H77        17.5343  -27.3773  -40.8372 H         1 UNK         0.0695 
     78 H78        19.6056  -28.2842  -42.1369 H         1 UNK         0.0983 
     79 H79        19.4920  -26.3256  -43.0262 H         1 UNK         0.3095 
     80 H80        18.4418  -23.3490  -42.2179 H         1 UNK         0.0454 
     81 H81        20.3617  -22.0136  -43.1456 H         1 UNK         0.0851 
     82 H82        21.4770  -23.2730  -42.6194 H         1 UNK         0.0851 
     83 H83        20.5435  -22.3777  -41.4381 H         1 UNK         0.0851 
     84 H84        18.1313  -24.4153  -44.1410 H         1 UNK         0.2976 
     85 H85        20.6907  -26.1487  -39.4684 H         1 UNK         0.3116 
     86 H86        22.6673  -27.9340  -38.4327 H         1 UNK         0.0646 
     87 H87        21.6865  -26.1038  -37.0792 H         1 UNK         0.0847 
     88 H88        23.4297  -25.9148  -37.1597 H         1 UNK         0.0847 
     89 H89        22.3943  -24.8907  -38.1454 H         1 UNK         0.0847 
     90 H90        22.8343  -25.3860  -40.9004 H         1 UNK         0.3040 
     91 H91        25.6803  -25.3875  -41.2529 H         1 UNK         0.1015 
     92 H92        23.4534  -24.5870  -43.2047 H         1 UNK         0.0786 
     93 H93        25.1479  -24.1477  -43.3389 H         1 UNK         0.0786 
     94 H94        24.1915  -23.5204  -42.0071 H         1 UNK         0.0786 
     95 H95        23.2088  -27.6055  -42.2884 H         1 UNK         0.3172 
     96 H96        24.9955  -28.9827  -44.2371 H         1 UNK         0.0595 
     97 H97        22.0092  -29.3696  -43.6315 H         1 UNK         0.0839 
     98 H98        22.9271  -30.1794  -44.8895 H         1 UNK         0.0839 
     99 H99        22.6577  -28.4486  -44.9883 H         1 UNK         0.0839 
    100 H100       24.6161  -28.9247  -40.9770 H         1 UNK         0.2998 
    101 H101       24.7669  -30.2522  -39.2243 H         1 UNK         0.0822 
    102 H102       26.3147  -32.1775  -39.3266 H         1 UNK         0.0787 
    103 H103       26.2069  -32.2250  -41.0800 H         1 UNK         0.0787 
    104 H104       26.9655  -30.8514  -40.2750 H         1 UNK         0.0787 
    105 H105       22.3260  -30.3592  -40.6257 H         1 UNK         0.3055 
    106 H106       20.4167  -31.3927  -40.9503 H         1 UNK         0.1106 
    107 H107       19.6023  -32.9811  -39.2434 H         1 UNK         0.0828 
    108 H108       21.2419  -33.2907  -38.6885 H         1 UNK         0.0828 
    109 H109       20.5122  -31.6993  -38.4658 H         1 UNK         0.0828 
    110 H110       22.7546  -32.3189  -42.4954 H         1 UNK         0.2931 
    111 H111       23.2772  -33.6448  -44.1182 H         1 UNK         0.0412 
    112 H112       24.2435  -36.1588  -41.3522 H         1 UNK         0.3472 
    113 H113       23.6843  -34.5162  -41.1348 H         1 UNK         0.3472 
    114 H114       20.6251  -35.1403  -43.9822 H         1 UNK         0.0970 
    115 H115       21.7410  -35.1045  -45.3128 H         1 UNK         0.0970 
    116 H116       18.8684  -33.7829  -43.6279 H         1 UNK         0.0612 
    117 H117       18.2450  -33.7349  -45.2571 H         1 UNK         0.0612 
@<TRIPOS>BOND
     1    1    2 1    
     2    1   62 1    
     3    1   63 1    
     4    1   64 1    
     5    2    3 2    
     6    2    4 am   BACKBONE|DICT|INTERRES
     7    4    5 1    
     8    4   65 1    
     9    5    6 1    
    10    5   25 1    
    11    5   66 1    
    12    6    7 1    
    13    6   67 1    
    14    6   68 1    
    15    7    8 1    
    16    8    9 1    
    17    8   69 1    
    18    8   70 1    
    19    9   10 ar   
    20    9   14 ar   
    21   10   11 ar   
    22   10   71 1    
    23   11   12 ar   
    24   11   61 1    
    25   12   13 ar   
    26   12   72 1    
    27   13   14 ar   
    28   13   15 1    
    29   14   73 1    
    30   15   16 1    
    31   15   74 1    
    32   15   75 1    
    33   16   17 1    
    34   17   18 1    
    35   17   76 1    
    36   17   77 1    
    37   18   19 1    
    38   18   27 1    
    39   18   78 1    
    40   19   20 am   BACKBONE|DICT|INTERRES
    41   19   79 1    
    42   20   21 2    
    43   20   22 1    
    44   22   23 1    
    45   22   24 1    
    46   22   80 1    
    47   23   81 1    
    48   23   82 1    
    49   23   83 1    
    50   24   25 am   BACKBONE|DICT|INTERRES
    51   24   84 1    
    52   25   26 2    
    53   27   28 2    
    54   27   29 am   BACKBONE|DICT|INTERRES
    55   29   30 1    
    56   29   85 1    
    57   30   31 1    
    58   30   32 1    
    59   30   86 1    
    60   31   87 1    
    61   31   88 1    
    62   31   89 1    
    63   32   33 2    
    64   32   34 am   BACKBONE|DICT|INTERRES
    65   34   35 1    
    66   34   90 1    
    67   35   36 1    
    68   35   37 1    
    69   35   91 1    
    70   36   92 1    
    71   36   93 1    
    72   36   94 1    
    73   37   38 2    
    74   37   39 am   BACKBONE|DICT|INTERRES
    75   39   40 1    
    76   39   95 1    
    77   40   41 1    
    78   40   42 1    
    79   40   96 1    
    80   41   97 1    
    81   41   98 1    
    82   41   99 1    
    83   42   43 2    
    84   42   44 am   BACKBONE|DICT|INTERRES
    85   44   45 1    
    86   44  100 1    
    87   45   46 1    
    88   45   47 1    
    89   45  101 1    
    90   46  102 1    
    91   46  103 1    
    92   46  104 1    
    93   47   48 2    
    94   47   49 am   BACKBONE|DICT|INTERRES
    95   49   50 1    
    96   49  105 1    
    97   50   51 1    
    98   50   52 1    
    99   50  106 1    
   100   51  107 1    
   101   51  108 1    
   102   51  109 1    
   103   52   53 2    
   104   52   54 am   BACKBONE|DICT|INTERRES
   105   54   55 1    
   106   54  110 1    
   107   55   56 1    
   108   55   59 1    
   109   55  111 1    
   110   56   57 am   BACKBONE|DICT|INTERRES
   111   56   58 2    
   112   57  112 1    
   113   57  113 1    
   114   59   60 1    
   115   59  114 1    
   116   59  115 1    
   117   60   61 1    
   118   61  116 1    
   119   61  117 1    
@<TRIPOS>SUBSTRUCTURE
     1 UNK         1 GROUP             0       ****    0 ROOT    
