@<TRIPOS>MOLECULE
3R8
117   119    1
SMALL
USER_CHARGES


@<TRIPOS>ATOM
      1 CA         15.5217  -22.4984  -41.8679 C.3       0 UNK        -0.2013 
      2 C          16.4414  -23.3836  -42.6950 C.2       0 UNK         0.4866 
      3 O          16.7639  -23.0400  -43.8336 O.2       0 UNK        -0.5176 
      4 N          16.8731  -24.5205  -42.1343 N.am      1 UNK        -0.4884 
      5 CA         17.7637  -25.4965  -42.7732 C.3       1 UNK         0.0853 
      6 C6         17.6037  -26.9135  -42.1640 C.3       10 UNK        -0.0849 
      7 S7         15.9957  -27.6451  -42.6192 S.3       10 UNK        -0.2776 
      8 C8         16.3013  -29.4334  -42.3973 C.3       10 UNK         0.0316 
      9 C9         17.4382  -30.0034  -43.2461 C.ar      10 UNK        -0.0863 
     10 C10        18.2919  -30.9572  -42.6837 C.ar      10 UNK        -0.1009 
     11 C11        19.3457  -31.5027  -43.4240 C.ar      10 UNK        -0.0712 
     12 C12        19.5426  -31.0859  -44.7419 C.ar      10 UNK        -0.0894 
     13 C13        18.7197  -30.1111  -45.3124 C.ar      10 UNK        -0.0745 
     14 C14        17.6529  -29.5931  -44.5686 C.ar      10 UNK        -0.0972 
     15 C15        19.0165  -29.5776  -46.7116 C.3       10 UNK         0.0209 
     16 S16        20.7429  -28.9962  -46.9019 S.3       10 UNK        -0.2568 
     17 C17        20.9481  -27.9569  -45.4167 C.3       10 UNK        -0.0983 
     18 CA         21.8931  -26.7461  -45.6226 C.3       3 UNK         0.0876 
     19 N          21.5051  -25.6724  -44.7137 N.am      3 UNK        -0.4424 
     20 C          21.4662  -24.3665  -44.9869 C.2       2 UNK         0.4918 
     21 O          21.8249  -23.8771  -46.0593 O.2       2 UNK        -0.4875 
     22 CA         20.8547  -23.4785  -43.8809 C.3       2 UNK         0.0481 
     23 CB         20.7784  -21.9944  -44.2825 C.3       2 UNK        -0.1831 
     24 N          19.5094  -23.9486  -43.5303 N.am      2 UNK        -0.4498 
     25 C          19.2273  -25.0087  -42.7612 C.2       1 UNK         0.5027 
     26 O          20.0834  -25.6123  -42.1121 O.2       1 UNK        -0.4969 
     27 C          23.3698  -27.1208  -45.3878 C.2       3 UNK         0.5005 
     28 O          23.9661  -26.7058  -44.3892 O.2       3 UNK        -0.5279 
     29 N          23.9299  -27.9353  -46.2928 N.am      4 UNK        -0.4463 
     30 CA         25.3254  -28.3964  -46.2770 C.3       4 UNK         0.0283 
     31 CB         25.5975  -29.2244  -47.5432 C.3       4 UNK        -0.1875 
     32 C          25.7290  -29.1942  -45.0212 C.2       4 UNK         0.4949 
     33 O          26.9046  -29.1815  -44.6561 O.2       4 UNK        -0.5039 
     34 N          24.7544  -29.8518  -44.3808 N.am      5 UNK        -0.4663 
     35 CA         24.9096  -30.5813  -43.1191 C.3       5 UNK         0.0242 
     36 CB         24.5437  -32.0567  -43.3550 C.3       5 UNK        -0.1982 
     37 C          24.0717  -29.9452  -41.9921 C.2       5 UNK         0.5017 
     38 O          23.7296  -30.6369  -41.0282 O.2       5 UNK        -0.5012 
     39 N          23.7473  -28.6478  -42.1373 N.am      6 UNK        -0.4439 
     40 CA         22.8944  -27.8388  -41.2579 C.3       6 UNK         0.0297 
     41 CB         23.6178  -27.5612  -39.9200 C.3       6 UNK        -0.2006 
     42 C          21.4907  -28.4574  -41.0962 C.2       6 UNK         0.4892 
     43 O          21.0010  -29.0883  -42.0309 O.2       6 UNK        -0.5089 
     44 N          20.8742  -28.2851  -39.9212 N.am      7 UNK        -0.4243 
     45 CA         19.6466  -28.9847  -39.5343 C.3       7 UNK         0.0196 
     46 CB         18.8775  -28.1113  -38.5285 C.3       7 UNK        -0.2007 
     47 C          19.9338  -30.3714  -38.9245 C.2       7 UNK         0.5020 
     48 O          19.0012  -31.1571  -38.7586 O.2       7 UNK        -0.5147 
     49 N          21.1967  -30.6290  -38.5520 N.am      8 UNK        -0.4734 
     50 CA         21.6322  -31.8205  -37.8212 C.3       8 UNK         0.0238 
     51 CB         23.0017  -31.5439  -37.1788 C.3       8 UNK        -0.1912 
     52 C          21.6940  -33.0884  -38.6850 C.2       8 UNK         0.5038 
     53 O          21.3792  -34.1667  -38.1799 O.2       8 UNK        -0.5046 
     54 N          22.1142  -32.9400  -39.9487 N.am      9 UNK        -0.4200 
     55 CA         22.3042  -34.0298  -40.9240 C.3       9 UNK         0.0839 
     56 C          23.4931  -34.9825  -40.5920 C.2       9 UNK         0.5513 
     57 N          24.4594  -34.5688  -39.7806 N.am      9 UNK        -0.7519 
     58 O          23.5619  -36.1000  -41.0976 O.2       9 UNK        -0.4960 
     59 C59        20.9911  -34.7995  -41.2699 C.3       10 UNK        -0.0876 
     60 S60        19.5655  -33.7849  -41.8092 S.3       10 UNK        -0.2414 
     61 C61        20.3445  -32.4562  -42.7839 C.3       10 UNK         0.0169 
     62 H62        15.9749  -21.5179  -41.7239 H         1 UNK         0.0903 
     63 H63        14.5708  -22.3623  -42.3823 H         1 UNK         0.0903 
     64 H64        15.3180  -22.9258  -40.8862 H         1 UNK         0.0903 
     65 H65        16.5840  -24.7481  -41.1934 H         1 UNK         0.3096 
     66 H66        17.4885  -25.5717  -43.8284 H         1 UNK         0.1121 
     67 H67        18.3960  -27.5753  -42.5204 H         1 UNK         0.0849 
     68 H68        17.6952  -26.8868  -41.0780 H         1 UNK         0.0849 
     69 H69        16.4916  -29.6132  -41.3377 H         1 UNK         0.0865 
     70 H70        15.3862  -29.9751  -42.6393 H         1 UNK         0.0865 
     71 H71        18.1542  -31.2627  -41.6553 H         1 UNK         0.1346 
     72 H72        20.3752  -31.4766  -45.3105 H         1 UNK         0.1412 
     73 H73        17.0075  -28.8454  -45.0084 H         1 UNK         0.1426 
     74 H74        18.3460  -28.7531  -46.9587 H         1 UNK         0.0716 
     75 H75        18.8232  -30.3638  -47.4424 H         1 UNK         0.0716 
     76 H76        19.9541  -27.5993  -45.1409 H         1 UNK         0.0695 
     77 H77        21.2702  -28.5847  -44.5841 H         1 UNK         0.0695 
     78 H78        21.7958  -26.3852  -46.6492 H         1 UNK         0.0983 
     79 H79        21.2331  -25.9590  -43.7802 H         1 UNK         0.3095 
     80 H80        21.5003  -23.5550  -43.0035 H         1 UNK         0.0454 
     81 H81        21.7680  -21.6026  -44.5209 H         1 UNK         0.0851 
     82 H82        20.1472  -21.8445  -45.1593 H         1 UNK         0.0851 
     83 H83        20.3768  -21.3851  -43.4728 H         1 UNK         0.0851 
     84 H84        18.7284  -23.4949  -43.9951 H         1 UNK         0.2976 
     85 H85        23.3562  -28.2609  -47.0595 H         1 UNK         0.3116 
     86 H86        25.9595  -27.5079  -46.3091 H         1 UNK         0.0646 
     87 H87        26.6352  -29.5599  -47.5752 H         1 UNK         0.0847 
     88 H88        25.4217  -28.6407  -48.4470 H         1 UNK         0.0847 
     89 H89        24.9672  -30.1135  -47.5878 H         1 UNK         0.0847 
     90 H90        23.8178  -29.8001  -44.7568 H         1 UNK         0.3040 
     91 H91        25.9475  -30.5431  -42.7815 H         1 UNK         0.1015 
     92 H92        23.4917  -32.1721  -43.6173 H         1 UNK         0.0786 
     93 H93        24.7372  -32.6533  -42.4630 H         1 UNK         0.0786 
     94 H94        25.1386  -32.4874  -44.1606 H         1 UNK         0.0786 
     95 H95        24.0571  -28.1705  -42.9781 H         1 UNK         0.3172 
     96 H96        22.7498  -26.8845  -41.7663 H         1 UNK         0.0595 
     97 H97        23.0892  -26.8164  -39.3243 H         1 UNK         0.0839 
     98 H98        23.7230  -28.4631  -39.3159 H         1 UNK         0.0839 
     99 H99        24.6189  -27.1663  -40.0940 H         1 UNK         0.0839 
    100 H100       21.3185  -27.7162  -39.2154 H         1 UNK         0.2998 
    101 H101       19.0167  -29.1303  -40.4143 H         1 UNK         0.0822 
    102 H102       17.9122  -28.5574  -38.2850 H         1 UNK         0.0787 
    103 H103       19.4269  -27.9931  -37.5935 H         1 UNK         0.0787 
    104 H104       18.6833  -27.1162  -38.9279 H         1 UNK         0.0787 
    105 H105       21.9050  -29.9430  -38.7650 H         1 UNK         0.3055 
    106 H106       20.9127  -32.0093  -37.0208 H         1 UNK         0.1106 
    107 H107       22.9506  -30.7094  -36.4792 H         1 UNK         0.0828 
    108 H108       23.3530  -32.4117  -36.6185 H         1 UNK         0.0828 
    109 H109       23.7605  -31.3090  -37.9268 H         1 UNK         0.0828 
    110 H110       22.4147  -32.0207  -40.2560 H         1 UNK         0.2931 
    111 H111       22.6300  -33.5382  -41.8370 H         1 UNK         0.0412 
    112 H112       24.4283  -33.6460  -39.3782 H         1 UNK         0.3472 
    113 H113       25.2310  -35.1845  -39.5766 H         1 UNK         0.3472 
    114 H114       20.6702  -35.4000  -40.4175 H         1 UNK         0.0970 
    115 H115       21.1838  -35.5143  -42.0718 H         1 UNK         0.0970 
    116 H116       20.9930  -31.8586  -42.1441 H         1 UNK         0.0612 
    117 H117       20.9789  -32.9124  -43.5453 H         1 UNK         0.0612 
@<TRIPOS>BOND
     1    1    2 1    
     2    1   62 1    
     3    1   63 1    
     4    1   64 1    
     5    2    3 2    
     6    2    4 am   BACKBONE|DICT|INTERRES
     7    4    5 1    
     8    4   65 1    
     9    5    6 1    
    10    5   25 1    
    11    5   66 1    
    12    6    7 1    
    13    6   67 1    
    14    6   68 1    
    15    7    8 1    
    16    8    9 1    
    17    8   69 1    
    18    8   70 1    
    19    9   10 ar   
    20    9   14 ar   
    21   10   11 ar   
    22   10   71 1    
    23   11   12 ar   
    24   11   61 1    
    25   12   13 ar   
    26   12   72 1    
    27   13   14 ar   
    28   13   15 1    
    29   14   73 1    
    30   15   16 1    
    31   15   74 1    
    32   15   75 1    
    33   16   17 1    
    34   17   18 1    
    35   17   76 1    
    36   17   77 1    
    37   18   19 1    
    38   18   27 1    
    39   18   78 1    
    40   19   20 am   BACKBONE|DICT|INTERRES
    41   19   79 1    
    42   20   21 2    
    43   20   22 1    
    44   22   23 1    
    45   22   24 1    
    46   22   80 1    
    47   23   81 1    
    48   23   82 1    
    49   23   83 1    
    50   24   25 am   BACKBONE|DICT|INTERRES
    51   24   84 1    
    52   25   26 2    
    53   27   28 2    
    54   27   29 am   BACKBONE|DICT|INTERRES
    55   29   30 1    
    56   29   85 1    
    57   30   31 1    
    58   30   32 1    
    59   30   86 1    
    60   31   87 1    
    61   31   88 1    
    62   31   89 1    
    63   32   33 2    
    64   32   34 am   BACKBONE|DICT|INTERRES
    65   34   35 1    
    66   34   90 1    
    67   35   36 1    
    68   35   37 1    
    69   35   91 1    
    70   36   92 1    
    71   36   93 1    
    72   36   94 1    
    73   37   38 2    
    74   37   39 am   BACKBONE|DICT|INTERRES
    75   39   40 1    
    76   39   95 1    
    77   40   41 1    
    78   40   42 1    
    79   40   96 1    
    80   41   97 1    
    81   41   98 1    
    82   41   99 1    
    83   42   43 2    
    84   42   44 am   BACKBONE|DICT|INTERRES
    85   44   45 1    
    86   44  100 1    
    87   45   46 1    
    88   45   47 1    
    89   45  101 1    
    90   46  102 1    
    91   46  103 1    
    92   46  104 1    
    93   47   48 2    
    94   47   49 am   BACKBONE|DICT|INTERRES
    95   49   50 1    
    96   49  105 1    
    97   50   51 1    
    98   50   52 1    
    99   50  106 1    
   100   51  107 1    
   101   51  108 1    
   102   51  109 1    
   103   52   53 2    
   104   52   54 am   BACKBONE|DICT|INTERRES
   105   54   55 1    
   106   54  110 1    
   107   55   56 1    
   108   55   59 1    
   109   55  111 1    
   110   56   57 am   BACKBONE|DICT|INTERRES
   111   56   58 2    
   112   57  112 1    
   113   57  113 1    
   114   59   60 1    
   115   59  114 1    
   116   59  115 1    
   117   60   61 1    
   118   61  116 1    
   119   61  117 1    
@<TRIPOS>SUBSTRUCTURE
     1 UNK         1 GROUP             0       ****    0 ROOT    
