@<TRIPOS>MOLECULE
3R8
117   119    1
SMALL
USER_CHARGES


@<TRIPOS>ATOM
      1 CA         19.3107  -22.2211  -40.3353 C.3       0 UNK        -0.2013 
      2 C          18.3215  -22.9860  -41.2019 C.2       0 UNK         0.4866 
      3 O          17.3331  -22.4102  -41.6587 O.2       0 UNK        -0.5176 
      4 N          18.5754  -24.2810  -41.4244 N.am      1 UNK        -0.4884 
      5 CA         17.7919  -25.1532  -42.3051 C.3       1 UNK         0.0853 
      6 C6         17.9903  -26.6444  -41.9339 C.3       10 UNK        -0.0849 
      7 S7         19.7259  -27.2200  -41.9969 S.3       10 UNK        -0.2776 
      8 C8         19.5024  -28.9952  -41.6215 C.3       10 UNK         0.0316 
      9 C9         19.4161  -29.8940  -42.8559 C.ar      10 UNK        -0.0863 
     10 C10        19.9210  -31.1962  -42.7868 C.ar      10 UNK        -0.1009 
     11 C11        19.8519  -32.0511  -43.8917 C.ar      10 UNK        -0.0712 
     12 C12        19.2874  -31.5932  -45.0854 C.ar      10 UNK        -0.0894 
     13 C13        18.7852  -30.2925  -45.1726 C.ar      10 UNK        -0.0745 
     14 C14        18.8338  -29.4593  -44.0521 C.ar      10 UNK        -0.0972 
     15 C15        18.2032  -29.7709  -46.4784 C.3       10 UNK         0.0209 
     16 S16        19.4811  -29.4150  -47.7326 S.3       10 UNK        -0.2568 
     17 C17        20.7148  -28.3987  -46.8439 C.3       10 UNK        -0.0983 
     18 CA         20.4989  -26.8731  -47.0032 C.3       3 UNK         0.0876 
     19 N          19.2140  -26.4404  -46.4412 N.am      3 UNK        -0.4424 
     20 C          18.5057  -25.3962  -46.8873 C.2       2 UNK         0.4918 
     21 O          18.8404  -24.7013  -47.8469 O.2       2 UNK        -0.4875 
     22 CA         17.2063  -25.0544  -46.1311 C.3       2 UNK         0.0481 
     23 CB         16.0109  -25.7623  -46.7893 C.3       2 UNK        -0.1831 
     24 N          17.2064  -25.3443  -44.6885 N.am      2 UNK        -0.4498 
     25 C          18.0849  -24.8630  -43.7950 C.2       1 UNK         0.5027 
     26 O          19.0945  -24.2298  -44.1121 O.2       1 UNK        -0.4969 
     27 C          21.6937  -26.1087  -46.3883 C.2       3 UNK         0.5005 
     28 O          22.8039  -26.2363  -46.9073 O.2       3 UNK        -0.5279 
     29 N          21.4686  -25.3618  -45.2928 N.am      4 UNK        -0.4463 
     30 CA         22.4651  -24.6702  -44.4639 C.3       4 UNK         0.0283 
     31 CB         23.0991  -23.4918  -45.2326 C.3       4 UNK        -0.1875 
     32 C          23.5096  -25.6281  -43.8535 C.2       4 UNK         0.4949 
     33 O          24.6891  -25.2813  -43.7644 O.2       4 UNK        -0.5039 
     34 N          23.0590  -26.8259  -43.4559 N.am      5 UNK        -0.4663 
     35 CA         23.8880  -27.8570  -42.8323 C.3       5 UNK         0.0242 
     36 CB         23.1842  -29.2167  -42.9672 C.3       5 UNK        -0.1982 
     37 C          24.1685  -27.5311  -41.3560 C.2       5 UNK         0.5017 
     38 O          23.3506  -26.8839  -40.6978 O.2       5 UNK        -0.5012 
     39 N          25.3159  -28.0075  -40.8583 N.am      6 UNK        -0.4439 
     40 CA         25.7775  -27.7909  -39.4834 C.3       6 UNK         0.0297 
     41 CB         27.3017  -27.9923  -39.4347 C.3       6 UNK        -0.2006 
     42 C          25.0873  -28.6897  -38.4395 C.2       6 UNK         0.4892 
     43 O          25.2081  -28.4117  -37.2453 O.2       6 UNK        -0.5089 
     44 N          24.4056  -29.7515  -38.8848 N.am      7 UNK        -0.4243 
     45 CA         23.7457  -30.7501  -38.0485 C.3       7 UNK         0.0196 
     46 CB         24.7913  -31.7530  -37.5167 C.3       7 UNK        -0.2007 
     47 C          22.6525  -31.4568  -38.8616 C.2       7 UNK         0.5020 
     48 O          22.5042  -31.1956  -40.0586 O.2       7 UNK        -0.5147 
     49 N          21.9140  -32.3499  -38.1910 N.am      8 UNK        -0.4734 
     50 CA         20.9162  -33.2406  -38.7903 C.3       8 UNK         0.0238 
     51 CB         20.1073  -33.9043  -37.6622 C.3       8 UNK        -0.1912 
     52 C          21.5520  -34.3078  -39.7027 C.2       8 UNK         0.5038 
     53 O          22.7554  -34.5655  -39.6141 O.2       8 UNK        -0.5046 
     54 N          20.7180  -34.9167  -40.5533 N.am      9 UNK        -0.4200 
     55 CA         21.1216  -35.8714  -41.6006 C.3       9 UNK         0.0839 
     56 C          21.6434  -37.2487  -41.0950 C.2       9 UNK         0.5513 
     57 N          21.4706  -37.6029  -39.8275 N.am      9 UNK        -0.7519 
     58 O          22.2138  -38.0097  -41.8723 O.2       9 UNK        -0.4960 
     59 C59        20.0147  -36.0694  -42.6775 C.3       10 UNK        -0.0876 
     60 S60        19.0791  -34.5656  -43.1301 S.3       10 UNK        -0.2414 
     61 C61        20.3764  -33.4723  -43.7833 C.3       10 UNK         0.0169 
     62 H62        19.7385  -21.3920  -40.8983 H         1 UNK         0.0903 
     63 H63        18.8066  -21.8146  -39.4589 H         1 UNK         0.0903 
     64 H64        20.1282  -22.8554  -39.9927 H         1 UNK         0.0903 
     65 H65        19.4180  -24.6987  -41.0544 H         1 UNK         0.3096 
     66 H66        16.7373  -24.9152  -42.1457 H         1 UNK         0.1121 
     67 H67        17.6300  -26.8024  -40.9159 H         1 UNK         0.0849 
     68 H68        17.3628  -27.2830  -42.5563 H         1 UNK         0.0849 
     69 H69        20.3417  -29.3074  -40.9975 H         1 UNK         0.0865 
     70 H70        18.6089  -29.1396  -41.0131 H         1 UNK         0.0865 
     71 H71        20.3663  -31.5515  -41.8670 H         1 UNK         0.1346 
     72 H72        19.2421  -32.2452  -45.9472 H         1 UNK         0.1412 
     73 H73        18.4341  -28.4614  -44.1279 H         1 UNK         0.1426 
     74 H74        17.6126  -28.8705  -46.3070 H         1 UNK         0.0716 
     75 H75        17.5107  -30.5097  -46.8843 H         1 UNK         0.0716 
     76 H76        21.6846  -28.6803  -47.2591 H         1 UNK         0.0695 
     77 H77        20.7684  -28.6767  -45.7920 H         1 UNK         0.0695 
     78 H78        20.5074  -26.6491  -48.0725 H         1 UNK         0.0983 
     79 H79        18.8687  -26.9569  -45.6487 H         1 UNK         0.3095 
     80 H80        17.0550  -23.9780  -46.2347 H         1 UNK         0.0454 
     81 H81        16.0690  -26.8454  -46.6777 H         1 UNK         0.0851 
     82 H82        15.9695  -25.5480  -47.8583 H         1 UNK         0.0851 
     83 H83        15.0654  -25.4298  -46.3607 H         1 UNK         0.0851 
     84 H84        16.4091  -25.8612  -44.3454 H         1 UNK         0.2976 
     85 H85        20.5110  -25.2465  -44.9736 H         1 UNK         0.3116 
     86 H86        21.9150  -24.2513  -43.6198 H         1 UNK         0.0646 
     87 H87        23.7159  -23.8342  -46.0639 H         1 UNK         0.0847 
     88 H88        23.7378  -22.8971  -44.5785 H         1 UNK         0.0847 
     89 H89        22.3362  -22.8240  -45.6325 H         1 UNK         0.0847 
     90 H90        22.0661  -27.0066  -43.4964 H         1 UNK         0.3040 
     91 H91        24.8381  -27.9036  -43.3698 H         1 UNK         0.1015 
     92 H92        22.9496  -29.4467  -44.0069 H         1 UNK         0.0786 
     93 H93        22.2544  -29.2429  -42.4015 H         1 UNK         0.0786 
     94 H94        23.8116  -30.0251  -42.5898 H         1 UNK         0.0786 
     95 H95        25.9268  -28.5411  -41.4609 H         1 UNK         0.3172 
     96 H96        25.5666  -26.7552  -39.2078 H         1 UNK         0.0595 
     97 H97        27.5841  -29.0121  -39.6994 H         1 UNK         0.0839 
     98 H98        27.6899  -27.7980  -38.4337 H         1 UNK         0.0839 
     99 H99        27.8155  -27.3124  -40.1146 H         1 UNK         0.0839 
    100 H100       24.2734  -29.8843  -39.8793 H         1 UNK         0.2998 
    101 H101       23.2605  -30.2466  -37.2094 H         1 UNK         0.0822 
    102 H102       25.5719  -31.2515  -36.9444 H         1 UNK         0.0787 
    103 H103       24.3386  -32.4914  -36.8544 H         1 UNK         0.0787 
    104 H104       25.2721  -32.2970  -38.3309 H         1 UNK         0.0787 
    105 H105       22.1287  -32.5135  -37.2181 H         1 UNK         0.3055 
    106 H106       20.2437  -32.6316  -39.3990 H         1 UNK         0.1106 
    107 H107       19.3149  -34.5383  -38.0622 H         1 UNK         0.0828 
    108 H108       20.7367  -34.5312  -37.0290 H         1 UNK         0.0828 
    109 H109       19.6281  -33.1596  -37.0262 H         1 UNK         0.0828 
    110 H110       19.7402  -34.6656  -40.5533 H         1 UNK         0.2931 
    111 H111       21.9766  -35.4176  -42.1047 H         1 UNK         0.0412 
    112 H112       21.0118  -36.9805  -39.1819 H         1 UNK         0.3472 
    113 H113       21.8142  -38.4964  -39.5116 H         1 UNK         0.3472 
    114 H114       20.4461  -36.4951  -43.5855 H         1 UNK         0.0970 
    115 H115       19.2797  -36.7980  -42.3294 H         1 UNK         0.0970 
    116 H116       20.7087  -33.8392  -44.7555 H         1 UNK         0.0612 
    117 H117       21.2487  -33.4825  -43.1295 H         1 UNK         0.0612 
@<TRIPOS>BOND
     1    1    2 1    
     2    1   62 1    
     3    1   63 1    
     4    1   64 1    
     5    2    3 2    
     6    2    4 am   BACKBONE|DICT|INTERRES
     7    4    5 1    
     8    4   65 1    
     9    5    6 1    
    10    5   25 1    
    11    5   66 1    
    12    6    7 1    
    13    6   67 1    
    14    6   68 1    
    15    7    8 1    
    16    8    9 1    
    17    8   69 1    
    18    8   70 1    
    19    9   10 ar   
    20    9   14 ar   
    21   10   11 ar   
    22   10   71 1    
    23   11   12 ar   
    24   11   61 1    
    25   12   13 ar   
    26   12   72 1    
    27   13   14 ar   
    28   13   15 1    
    29   14   73 1    
    30   15   16 1    
    31   15   74 1    
    32   15   75 1    
    33   16   17 1    
    34   17   18 1    
    35   17   76 1    
    36   17   77 1    
    37   18   19 1    
    38   18   27 1    
    39   18   78 1    
    40   19   20 am   BACKBONE|DICT|INTERRES
    41   19   79 1    
    42   20   21 2    
    43   20   22 1    
    44   22   23 1    
    45   22   24 1    
    46   22   80 1    
    47   23   81 1    
    48   23   82 1    
    49   23   83 1    
    50   24   25 am   BACKBONE|DICT|INTERRES
    51   24   84 1    
    52   25   26 2    
    53   27   28 2    
    54   27   29 am   BACKBONE|DICT|INTERRES
    55   29   30 1    
    56   29   85 1    
    57   30   31 1    
    58   30   32 1    
    59   30   86 1    
    60   31   87 1    
    61   31   88 1    
    62   31   89 1    
    63   32   33 2    
    64   32   34 am   BACKBONE|DICT|INTERRES
    65   34   35 1    
    66   34   90 1    
    67   35   36 1    
    68   35   37 1    
    69   35   91 1    
    70   36   92 1    
    71   36   93 1    
    72   36   94 1    
    73   37   38 2    
    74   37   39 am   BACKBONE|DICT|INTERRES
    75   39   40 1    
    76   39   95 1    
    77   40   41 1    
    78   40   42 1    
    79   40   96 1    
    80   41   97 1    
    81   41   98 1    
    82   41   99 1    
    83   42   43 2    
    84   42   44 am   BACKBONE|DICT|INTERRES
    85   44   45 1    
    86   44  100 1    
    87   45   46 1    
    88   45   47 1    
    89   45  101 1    
    90   46  102 1    
    91   46  103 1    
    92   46  104 1    
    93   47   48 2    
    94   47   49 am   BACKBONE|DICT|INTERRES
    95   49   50 1    
    96   49  105 1    
    97   50   51 1    
    98   50   52 1    
    99   50  106 1    
   100   51  107 1    
   101   51  108 1    
   102   51  109 1    
   103   52   53 2    
   104   52   54 am   BACKBONE|DICT|INTERRES
   105   54   55 1    
   106   54  110 1    
   107   55   56 1    
   108   55   59 1    
   109   55  111 1    
   110   56   57 am   BACKBONE|DICT|INTERRES
   111   56   58 2    
   112   57  112 1    
   113   57  113 1    
   114   59   60 1    
   115   59  114 1    
   116   59  115 1    
   117   60   61 1    
   118   61  116 1    
   119   61  117 1    
@<TRIPOS>SUBSTRUCTURE
     1 UNK         1 GROUP             0       ****    0 ROOT    
