@<TRIPOS>MOLECULE
3R8
117   119    1
SMALL
USER_CHARGES


@<TRIPOS>ATOM
      1 CA         18.8714  -25.3385  -39.4634 C.3       0 UNK        -0.2013 
      2 C          18.4036  -24.9413  -40.8550 C.2       0 UNK         0.4866 
      3 O          18.1927  -23.7562  -41.1160 O.2       0 UNK        -0.5176 
      4 N          18.2281  -25.9251  -41.7454 N.am      1 UNK        -0.4884 
      5 CA         17.8136  -25.7351  -43.1411 C.3       1 UNK         0.0853 
      6 C6         17.3683  -27.0624  -43.8127 C.3       10 UNK        -0.0849 
      7 S7         16.3191  -28.1245  -42.7575 S.3       10 UNK        -0.2776 
      8 C8         15.8905  -29.4859  -43.8910 C.3       10 UNK         0.0316 
      9 C9         17.1186  -30.1271  -44.5241 C.ar      10 UNK        -0.0863 
     10 C10        17.8770  -31.0690  -43.8225 C.ar      10 UNK        -0.1009 
     11 C11        18.9911  -31.6671  -44.4200 C.ar      10 UNK        -0.0712 
     12 C12        19.3612  -31.2929  -45.7174 C.ar      10 UNK        -0.0894 
     13 C13        18.6121  -30.3504  -46.4315 C.ar      10 UNK        -0.0745 
     14 C14        17.4827  -29.7859  -45.8291 C.ar      10 UNK        -0.0972 
     15 C15        18.9888  -30.0063  -47.8726 C.3       10 UNK         0.0209 
     16 S16        18.7455  -28.2430  -48.2955 S.3       10 UNK        -0.2568 
     17 C17        20.4502  -27.6465  -48.5807 C.3       10 UNK        -0.0983 
     18 CA         21.1189  -26.9785  -47.3487 C.3       3 UNK         0.0876 
     19 N          20.2649  -25.9348  -46.7760 N.am      3 UNK        -0.4424 
     20 C          20.6015  -24.6507  -46.6111 C.2       2 UNK         0.4918 
     21 O          21.6909  -24.1766  -46.9341 O.2       2 UNK        -0.4875 
     22 CA         19.5438  -23.7315  -45.9646 C.3       2 UNK         0.0481 
     23 CB         18.7551  -22.9850  -47.0524 C.3       2 UNK        -0.1831 
     24 N          18.6007  -24.4092  -45.0619 N.am      2 UNK        -0.4498 
     25 C          18.9518  -25.0941  -43.9639 C.2       1 UNK         0.5027 
     26 O          20.1254  -25.2865  -43.6352 O.2       1 UNK        -0.4969 
     27 C          21.5697  -28.0178  -46.2985 C.2       3 UNK         0.5005 
     28 O          22.1783  -29.0183  -46.6854 O.2       3 UNK        -0.5279 
     29 N          21.2757  -27.7998  -45.0055 N.am      4 UNK        -0.4463 
     30 CA         21.6321  -28.7369  -43.9376 C.3       4 UNK         0.0283 
     31 CB         20.8453  -28.4220  -42.6552 C.3       4 UNK        -0.1875 
     32 C          23.1387  -28.7405  -43.6453 C.2       4 UNK         0.4949 
     33 O          23.7870  -27.6934  -43.7109 O.2       4 UNK        -0.5039 
     34 N          23.6554  -29.9144  -43.2660 N.am      5 UNK        -0.4663 
     35 CA         25.0373  -30.1280  -42.8368 C.3       5 UNK         0.0242 
     36 CB         25.3790  -31.6220  -42.9827 C.3       5 UNK        -0.1982 
     37 C          25.2275  -29.6258  -41.3962 C.2       5 UNK         0.5017 
     38 O          25.2042  -30.4257  -40.4601 O.2       5 UNK        -0.5012 
     39 N          25.3312  -28.2973  -41.2416 N.am      6 UNK        -0.4439 
     40 CA         25.4952  -27.5582  -39.9792 C.3       6 UNK         0.0297 
     41 CB         26.8988  -27.8126  -39.3895 C.3       6 UNK        -0.2006 
     42 C          24.3701  -27.8219  -38.9540 C.2       6 UNK         0.4892 
     43 O          24.6175  -27.7789  -37.7481 O.2       6 UNK        -0.5089 
     44 N          23.1641  -28.1187  -39.4647 N.am      7 UNK        -0.4243 
     45 CA         21.9531  -28.5322  -38.7416 C.3       7 UNK         0.0196 
     46 CB         21.4767  -27.4192  -37.7837 C.3       7 UNK        -0.2007 
     47 C          22.0672  -29.8986  -38.0291 C.2       7 UNK         0.5020 
     48 O          21.1893  -30.2255  -37.2296 O.2       7 UNK        -0.5147 
     49 N          23.1177  -30.6822  -38.3172 N.am      8 UNK        -0.4734 
     50 CA         23.3595  -31.9869  -37.6937 C.3       8 UNK         0.0238 
     51 CB         24.8727  -32.2574  -37.6553 C.3       8 UNK        -0.1912 
     52 C          22.6289  -33.1380  -38.4040 C.2       8 UNK         0.5038 
     53 O          22.4012  -34.1731  -37.7754 O.2       8 UNK        -0.5046 
     54 N          22.2981  -32.9590  -39.6901 N.am      9 UNK        -0.4200 
     55 CA         21.5763  -33.9438  -40.5076 C.3       9 UNK         0.0839 
     56 C          20.0768  -34.0954  -40.1221 C.2       9 UNK         0.5513 
     57 N          19.4520  -35.2005  -40.5067 N.am      9 UNK        -0.7519 
     58 O          19.4697  -33.2224  -39.5050 O.2       9 UNK        -0.4960 
     59 C59        21.7917  -33.6983  -42.0246 C.3       10 UNK        -0.0876 
     60 S60        21.1028  -32.1272  -42.6564 S.3       10 UNK        -0.2414 
     61 C61        19.7506  -32.7676  -43.6918 C.3       10 UNK         0.0169 
     62 H62        19.8053  -24.8305  -39.2249 H         1 UNK         0.0903 
     63 H63        18.1277  -25.0509  -38.7208 H         1 UNK         0.0903 
     64 H64        19.0359  -26.4126  -39.3807 H         1 UNK         0.0903 
     65 H65        18.3956  -26.8828  -41.4748 H         1 UNK         0.3096 
     66 H66        16.9645  -25.0476  -43.1385 H         1 UNK         0.1121 
     67 H67        16.8203  -26.8484  -44.7322 H         1 UNK         0.0849 
     68 H68        18.2360  -27.6487  -44.1160 H         1 UNK         0.0849 
     69 H69        15.3268  -30.2406  -43.3407 H         1 UNK         0.0865 
     70 H70        15.2155  -29.1085  -44.6609 H         1 UNK         0.0865 
     71 H71        17.5895  -31.3498  -42.8183 H         1 UNK         0.1346 
     72 H72        20.2215  -31.7566  -46.1809 H         1 UNK         0.1412 
     73 H73        16.8803  -29.0752  -46.3776 H         1 UNK         0.1426 
     74 H74        18.3683  -30.6066  -48.5388 H         1 UNK         0.0716 
     75 H75        20.0202  -30.2980  -48.0742 H         1 UNK         0.0716 
     76 H76        20.3913  -26.9088  -49.3823 H         1 UNK         0.0695 
     77 H77        21.0672  -28.4495  -48.9879 H         1 UNK         0.0695 
     78 H78        22.0487  -26.5281  -47.7027 H         1 UNK         0.0983 
     79 H79        19.3368  -26.2298  -46.5113 H         1 UNK         0.3095 
     80 H80        20.0830  -22.9910  -45.3702 H         1 UNK         0.0454 
     81 H81        18.0779  -22.2486  -46.6196 H         1 UNK         0.0851 
     82 H82        18.1648  -23.6680  -47.6646 H         1 UNK         0.0851 
     83 H83        19.4272  -22.4468  -47.7224 H         1 UNK         0.0851 
     84 H84        17.6197  -24.3071  -45.2817 H         1 UNK         0.2976 
     85 H85        20.8740  -26.9128  -44.7237 H         1 UNK         0.3116 
     86 H86        21.3457  -29.7349  -44.2718 H         1 UNK         0.0646 
     87 H87        19.7764  -28.5605  -42.8019 H         1 UNK         0.0847 
     88 H88        21.1328  -29.0989  -41.8509 H         1 UNK         0.0847 
     89 H89        21.0209  -27.4043  -42.3058 H         1 UNK         0.0847 
     90 H90        23.0379  -30.7139  -43.2070 H         1 UNK         0.3040 
     91 H91        25.7093  -29.5634  -43.4875 H         1 UNK         0.1015 
     92 H92        26.4117  -31.8142  -42.6886 H         1 UNK         0.0786 
     93 H93        25.2684  -31.9560  -44.0145 H         1 UNK         0.0786 
     94 H94        24.7426  -32.2482  -42.3573 H         1 UNK         0.0786 
     95 H95        25.2301  -27.7300  -42.0773 H         1 UNK         0.3172 
     96 H96        25.4292  -26.4995  -40.2339 H         1 UNK         0.0595 
     97 H97        27.0153  -28.8447  -39.0564 H         1 UNK         0.0839 
     98 H98        27.0859  -27.1703  -38.5280 H         1 UNK         0.0839 
     99 H99        27.6807  -27.6055  -40.1201 H         1 UNK         0.0839 
    100 H100       23.0911  -28.1222  -40.4716 H         1 UNK         0.2998 
    101 H101       21.1792  -28.6589  -39.4990 H         1 UNK         0.0822 
    102 H102       20.4727  -27.6262  -37.4113 H         1 UNK         0.0787 
    103 H103       21.4458  -26.4510  -38.2821 H         1 UNK         0.0787 
    104 H104       22.1290  -27.3259  -36.9150 H         1 UNK         0.0787 
    105 H105       23.8117  -30.3666  -38.9886 H         1 UNK         0.3055 
    106 H106       22.9993  -31.9611  -36.6625 H         1 UNK         0.1106 
    107 H107       25.4079  -31.4532  -37.1499 H         1 UNK         0.0828 
    108 H108       25.0891  -33.1804  -37.1157 H         1 UNK         0.0828 
    109 H109       25.2921  -32.3624  -38.6563 H         1 UNK         0.0828 
    110 H110       22.4872  -32.0670  -40.1204 H         1 UNK         0.2931 
    111 H111       22.0380  -34.9094  -40.2894 H         1 UNK         0.0412 
    112 H112       18.4778  -35.3167  -40.2747 H         1 UNK         0.3472 
    113 H113       19.9358  -35.9283  -41.0094 H         1 UNK         0.3472 
    114 H114       22.8598  -33.7072  -42.2432 H         1 UNK         0.0970 
    115 H115       21.3858  -34.5343  -42.5966 H         1 UNK         0.0970 
    116 H116       20.1591  -33.4720  -44.4181 H         1 UNK         0.0612 
    117 H117       19.0627  -33.3385  -43.0661 H         1 UNK         0.0612 
@<TRIPOS>BOND
     1    1    2 1    
     2    1   62 1    
     3    1   63 1    
     4    1   64 1    
     5    2    3 2    
     6    2    4 am   BACKBONE|DICT|INTERRES
     7    4    5 1    
     8    4   65 1    
     9    5    6 1    
    10    5   25 1    
    11    5   66 1    
    12    6    7 1    
    13    6   67 1    
    14    6   68 1    
    15    7    8 1    
    16    8    9 1    
    17    8   69 1    
    18    8   70 1    
    19    9   10 ar   
    20    9   14 ar   
    21   10   11 ar   
    22   10   71 1    
    23   11   12 ar   
    24   11   61 1    
    25   12   13 ar   
    26   12   72 1    
    27   13   14 ar   
    28   13   15 1    
    29   14   73 1    
    30   15   16 1    
    31   15   74 1    
    32   15   75 1    
    33   16   17 1    
    34   17   18 1    
    35   17   76 1    
    36   17   77 1    
    37   18   19 1    
    38   18   27 1    
    39   18   78 1    
    40   19   20 am   BACKBONE|DICT|INTERRES
    41   19   79 1    
    42   20   21 2    
    43   20   22 1    
    44   22   23 1    
    45   22   24 1    
    46   22   80 1    
    47   23   81 1    
    48   23   82 1    
    49   23   83 1    
    50   24   25 am   BACKBONE|DICT|INTERRES
    51   24   84 1    
    52   25   26 2    
    53   27   28 2    
    54   27   29 am   BACKBONE|DICT|INTERRES
    55   29   30 1    
    56   29   85 1    
    57   30   31 1    
    58   30   32 1    
    59   30   86 1    
    60   31   87 1    
    61   31   88 1    
    62   31   89 1    
    63   32   33 2    
    64   32   34 am   BACKBONE|DICT|INTERRES
    65   34   35 1    
    66   34   90 1    
    67   35   36 1    
    68   35   37 1    
    69   35   91 1    
    70   36   92 1    
    71   36   93 1    
    72   36   94 1    
    73   37   38 2    
    74   37   39 am   BACKBONE|DICT|INTERRES
    75   39   40 1    
    76   39   95 1    
    77   40   41 1    
    78   40   42 1    
    79   40   96 1    
    80   41   97 1    
    81   41   98 1    
    82   41   99 1    
    83   42   43 2    
    84   42   44 am   BACKBONE|DICT|INTERRES
    85   44   45 1    
    86   44  100 1    
    87   45   46 1    
    88   45   47 1    
    89   45  101 1    
    90   46  102 1    
    91   46  103 1    
    92   46  104 1    
    93   47   48 2    
    94   47   49 am   BACKBONE|DICT|INTERRES
    95   49   50 1    
    96   49  105 1    
    97   50   51 1    
    98   50   52 1    
    99   50  106 1    
   100   51  107 1    
   101   51  108 1    
   102   51  109 1    
   103   52   53 2    
   104   52   54 am   BACKBONE|DICT|INTERRES
   105   54   55 1    
   106   54  110 1    
   107   55   56 1    
   108   55   59 1    
   109   55  111 1    
   110   56   57 am   BACKBONE|DICT|INTERRES
   111   56   58 2    
   112   57  112 1    
   113   57  113 1    
   114   59   60 1    
   115   59  114 1    
   116   59  115 1    
   117   60   61 1    
   118   61  116 1    
   119   61  117 1    
@<TRIPOS>SUBSTRUCTURE
     1 UNK         1 GROUP             0       ****    0 ROOT    
