@<TRIPOS>MOLECULE
3R8
117   119    1
SMALL
USER_CHARGES


@<TRIPOS>ATOM
      1 CA         11.9071  -25.2189  -43.8500 C.3       0 UNK        -0.2013 
      2 C          13.2673  -25.5569  -44.4422 C.2       0 UNK         0.4866 
      3 O          13.9968  -24.6544  -44.8541 O.2       0 UNK        -0.5176 
      4 N          13.6112  -26.8500  -44.4954 N.am      1 UNK        -0.4884 
      5 CA         14.9071  -27.3507  -44.9638 C.3       1 UNK         0.0853 
      6 C6         14.8290  -28.8609  -45.3023 C.3       10 UNK        -0.0849 
      7 S7         16.0076  -29.3498  -46.6049 S.3       10 UNK        -0.2776 
      8 C8         16.9174  -30.7127  -45.8103 C.3       10 UNK         0.0316 
      9 C9         18.1346  -30.2118  -45.0483 C.ar      10 UNK        -0.0863 
     10 C10        18.0834  -30.0143  -43.6647 C.ar      10 UNK        -0.1009 
     11 C11        19.2164  -29.5752  -42.9724 C.ar      10 UNK        -0.0712 
     12 C12        20.4056  -29.3463  -43.6703 C.ar      10 UNK        -0.0894 
     13 C13        20.4674  -29.5347  -45.0532 C.ar      10 UNK        -0.0745 
     14 C14        19.3268  -29.9655  -45.7359 C.ar      10 UNK        -0.0972 
     15 C15        21.7650  -29.2979  -45.8127 C.3       10 UNK         0.0209 
     16 S16        21.9833  -27.5524  -46.2825 S.3       10 UNK        -0.2568 
     17 C17        22.7246  -26.8346  -44.7774 C.3       10 UNK        -0.0983 
     18 CA         21.9433  -25.6132  -44.2232 C.3       3 UNK         0.0876 
     19 N          20.6218  -25.9602  -43.7077 N.am      3 UNK        -0.4424 
     20 C          19.4534  -25.7875  -44.3295 C.2       2 UNK         0.4918 
     21 O          19.3257  -25.3998  -45.4936 O.2       2 UNK        -0.4875 
     22 CA         18.2095  -26.0356  -43.4714 C.3       2 UNK         0.0481 
     23 CB         17.8495  -24.7764  -42.6593 C.3       2 UNK        -0.1831 
     24 N          17.0936  -26.4222  -44.3282 N.am      2 UNK        -0.4498 
     25 C          15.9912  -27.0520  -43.9092 C.2       1 UNK         0.5027 
     26 O          15.7977  -27.3924  -42.7385 O.2       1 UNK        -0.4969 
     27 C          22.7107  -24.9761  -43.0506 C.2       3 UNK         0.5005 
     28 O          22.3454  -25.1937  -41.8904 O.2       3 UNK        -0.5279 
     29 N          23.7687  -24.2157  -43.3637 N.am      4 UNK        -0.4463 
     30 CA         24.6562  -23.5981  -42.3707 C.3       4 UNK         0.0283 
     31 CB         25.4603  -22.4706  -43.0387 C.3       4 UNK        -0.1875 
     32 C          25.6063  -24.6056  -41.6951 C.2       4 UNK         0.4949 
     33 O          26.0338  -24.3672  -40.5650 O.2       4 UNK        -0.5039 
     34 N          25.9328  -25.6972  -42.3990 N.am      5 UNK        -0.4663 
     35 CA         26.7781  -26.7867  -41.9102 C.3       5 UNK         0.0242 
     36 CB         27.3470  -27.5459  -43.1211 C.3       5 UNK        -0.1982 
     37 C          25.9951  -27.7510  -41.0045 C.2       5 UNK         0.5017 
     38 O          24.7751  -27.8758  -41.1424 O.2       5 UNK        -0.5012 
     39 N          26.7235  -28.4699  -40.1395 N.am      6 UNK        -0.4439 
     40 CA         26.2127  -29.5598  -39.3028 C.3       6 UNK         0.0297 
     41 CB         27.1820  -29.7911  -38.1287 C.3       6 UNK        -0.2006 
     42 C          25.9992  -30.8294  -40.1493 C.2       6 UNK         0.4892 
     43 O          26.7984  -31.7647  -40.0854 O.2       6 UNK        -0.5089 
     44 N          24.9452  -30.8019  -40.9718 N.am      7 UNK        -0.4243 
     45 CA         24.6387  -31.7963  -42.0019 C.3       7 UNK         0.0196 
     46 CB         23.6474  -31.1649  -42.9924 C.3       7 UNK        -0.2007 
     47 C          24.0864  -33.1346  -41.4781 C.2       7 UNK         0.5020 
     48 O          23.9988  -34.0750  -42.2679 O.2       7 UNK        -0.5147 
     49 N          23.7044  -33.1950  -40.1914 N.am      8 UNK        -0.4734 
     50 CA         22.9998  -34.3032  -39.5260 C.3       8 UNK         0.0238 
     51 CB         23.8638  -35.5827  -39.4843 C.3       8 UNK        -0.1912 
     52 C          21.6156  -34.5209  -40.1659 C.2       8 UNK         0.5038 
     53 O          21.3699  -35.5482  -40.8007 O.2       8 UNK        -0.5046 
     54 N          20.7698  -33.4932  -40.0244 N.am      9 UNK        -0.4200 
     55 CA         19.4747  -33.3096  -40.7003 C.3       9 UNK         0.0839 
     56 C          18.4039  -34.4112  -40.4478 C.2       9 UNK         0.5513 
     57 N          18.5080  -35.2099  -39.3927 N.am      9 UNK        -0.7519 
     58 O          17.4581  -34.5342  -41.2214 O.2       9 UNK        -0.4960 
     59 C59        18.8743  -31.9103  -40.3910 C.3       10 UNK        -0.0876 
     60 S60        20.0817  -30.5433  -40.5220 S.3       10 UNK        -0.2414 
     61 C61        19.1575  -29.3046  -41.4772 C.3       10 UNK         0.0169 
     62 H62        11.3632  -26.1111  -43.5403 H         1 UNK         0.0903 
     63 H63        12.0272  -24.5756  -42.9787 H         1 UNK         0.0903 
     64 H64        11.2996  -24.6895  -44.5835 H         1 UNK         0.0903 
     65 H65        12.9871  -27.5437  -44.1080 H         1 UNK         0.3096 
     66 H66        15.1479  -26.8025  -45.8782 H         1 UNK         0.1121 
     67 H67        13.8388  -29.1044  -45.6915 H         1 UNK         0.0849 
     68 H68        14.9483  -29.4795  -44.4105 H         1 UNK         0.0849 
     69 H69        16.2565  -31.2856  -45.1580 H         1 UNK         0.0865 
     70 H70        17.2416  -31.4095  -46.5850 H         1 UNK         0.0865 
     71 H71        17.1606  -30.1904  -43.1292 H         1 UNK         0.1346 
     72 H72        21.2801  -29.0126  -43.1309 H         1 UNK         0.1412 
     73 H73        19.3670  -30.1144  -46.8065 H         1 UNK         0.1426 
     74 H74        21.7734  -29.9005  -46.7222 H         1 UNK         0.0716 
     75 H75        22.6193  -29.6362  -45.2275 H         1 UNK         0.0716 
     76 H76        23.7412  -26.5433  -45.0472 H         1 UNK         0.0695 
     77 H77        22.8353  -27.6001  -44.0084 H         1 UNK         0.0695 
     78 H78        21.8422  -24.8580  -45.0062 H         1 UNK         0.0983 
     79 H79        20.6320  -26.1847  -42.7209 H         1 UNK         0.3095 
     80 H80        18.4239  -26.8537  -42.7841 H         1 UNK         0.0454 
     81 H81        17.5930  -23.9399  -43.3105 H         1 UNK         0.0851 
     82 H82        18.6842  -24.4594  -42.0329 H         1 UNK         0.0851 
     83 H83        17.0025  -24.9553  -41.9969 H         1 UNK         0.0851 
     84 H84        17.2201  -26.2004  -45.3082 H         1 UNK         0.2976 
     85 H85        24.0008  -24.0680  -44.3363 H         1 UNK         0.3116 
     86 H86        24.0395  -23.1528  -41.5865 H         1 UNK         0.0646 
     87 H87        26.0970  -22.8461  -43.8407 H         1 UNK         0.0847 
     88 H88        26.1087  -21.9738  -42.3154 H         1 UNK         0.0847 
     89 H89        24.8038  -21.7079  -43.4580 H         1 UNK         0.0847 
     90 H90        25.5026  -25.8289  -43.3014 H         1 UNK         0.3040 
     91 H91        27.6060  -26.3610  -41.3382 H         1 UNK         0.1015 
     92 H92        26.5567  -28.0001  -43.7210 H         1 UNK         0.0786 
     93 H93        28.0156  -28.3479  -42.8051 H         1 UNK         0.0786 
     94 H94        27.9227  -26.8850  -43.7695 H         1 UNK         0.0786 
     95 H95        27.7242  -28.3313  -40.1232 H         1 UNK         0.3172 
     96 H96        25.2471  -29.2661  -38.8850 H         1 UNK         0.0595 
     97 H97        26.8286  -30.5985  -37.4858 H         1 UNK         0.0839 
     98 H98        27.2718  -28.9001  -37.5070 H         1 UNK         0.0839 
     99 H99        28.1813  -30.0627  -38.4717 H         1 UNK         0.0839 
    100 H100       24.3970  -29.9485  -40.9886 H         1 UNK         0.2998 
    101 H101       25.5632  -32.0190  -42.5390 H         1 UNK         0.0822 
    102 H102       23.4494  -31.8326  -43.8321 H         1 UNK         0.0787 
    103 H103       22.6903  -30.9490  -42.5160 H         1 UNK         0.0787 
    104 H104       24.0394  -30.2339  -43.4025 H         1 UNK         0.0787 
    105 H105       23.8266  -32.3565  -39.6411 H         1 UNK         0.3055 
    106 H106       22.8269  -33.9971  -38.4926 H         1 UNK         0.1106 
    107 H107       23.3684  -36.3642  -38.9071 H         1 UNK         0.0828 
    108 H108       24.0509  -35.9890  -40.4786 H         1 UNK         0.0828 
    109 H109       24.8285  -35.3936  -39.0137 H         1 UNK         0.0828 
    110 H110       21.0812  -32.6893  -39.4997 H         1 UNK         0.2931 
    111 H111       19.6934  -33.3396  -41.7695 H         1 UNK         0.0412 
    112 H112       17.8098  -35.9205  -39.2386 H         1 UNK         0.3472 
    113 H113       19.2865  -35.1204  -38.7597 H         1 UNK         0.3472 
    114 H114       18.4663  -31.8869  -39.3785 H         1 UNK         0.0970 
    115 H115       18.0328  -31.7147  -41.0582 H         1 UNK         0.0970 
    116 H116       18.1261  -29.2531  -41.1243 H         1 UNK         0.0612 
    117 H117       19.5952  -28.3261  -41.2763 H         1 UNK         0.0612 
@<TRIPOS>BOND
     1    1    2 1    
     2    1   62 1    
     3    1   63 1    
     4    1   64 1    
     5    2    3 2    
     6    2    4 am   BACKBONE|DICT|INTERRES
     7    4    5 1    
     8    4   65 1    
     9    5    6 1    
    10    5   25 1    
    11    5   66 1    
    12    6    7 1    
    13    6   67 1    
    14    6   68 1    
    15    7    8 1    
    16    8    9 1    
    17    8   69 1    
    18    8   70 1    
    19    9   10 ar   
    20    9   14 ar   
    21   10   11 ar   
    22   10   71 1    
    23   11   12 ar   
    24   11   61 1    
    25   12   13 ar   
    26   12   72 1    
    27   13   14 ar   
    28   13   15 1    
    29   14   73 1    
    30   15   16 1    
    31   15   74 1    
    32   15   75 1    
    33   16   17 1    
    34   17   18 1    
    35   17   76 1    
    36   17   77 1    
    37   18   19 1    
    38   18   27 1    
    39   18   78 1    
    40   19   20 am   BACKBONE|DICT|INTERRES
    41   19   79 1    
    42   20   21 2    
    43   20   22 1    
    44   22   23 1    
    45   22   24 1    
    46   22   80 1    
    47   23   81 1    
    48   23   82 1    
    49   23   83 1    
    50   24   25 am   BACKBONE|DICT|INTERRES
    51   24   84 1    
    52   25   26 2    
    53   27   28 2    
    54   27   29 am   BACKBONE|DICT|INTERRES
    55   29   30 1    
    56   29   85 1    
    57   30   31 1    
    58   30   32 1    
    59   30   86 1    
    60   31   87 1    
    61   31   88 1    
    62   31   89 1    
    63   32   33 2    
    64   32   34 am   BACKBONE|DICT|INTERRES
    65   34   35 1    
    66   34   90 1    
    67   35   36 1    
    68   35   37 1    
    69   35   91 1    
    70   36   92 1    
    71   36   93 1    
    72   36   94 1    
    73   37   38 2    
    74   37   39 am   BACKBONE|DICT|INTERRES
    75   39   40 1    
    76   39   95 1    
    77   40   41 1    
    78   40   42 1    
    79   40   96 1    
    80   41   97 1    
    81   41   98 1    
    82   41   99 1    
    83   42   43 2    
    84   42   44 am   BACKBONE|DICT|INTERRES
    85   44   45 1    
    86   44  100 1    
    87   45   46 1    
    88   45   47 1    
    89   45  101 1    
    90   46  102 1    
    91   46  103 1    
    92   46  104 1    
    93   47   48 2    
    94   47   49 am   BACKBONE|DICT|INTERRES
    95   49   50 1    
    96   49  105 1    
    97   50   51 1    
    98   50   52 1    
    99   50  106 1    
   100   51  107 1    
   101   51  108 1    
   102   51  109 1    
   103   52   53 2    
   104   52   54 am   BACKBONE|DICT|INTERRES
   105   54   55 1    
   106   54  110 1    
   107   55   56 1    
   108   55   59 1    
   109   55  111 1    
   110   56   57 am   BACKBONE|DICT|INTERRES
   111   56   58 2    
   112   57  112 1    
   113   57  113 1    
   114   59   60 1    
   115   59  114 1    
   116   59  115 1    
   117   60   61 1    
   118   61  116 1    
   119   61  117 1    
@<TRIPOS>SUBSTRUCTURE
     1 UNK         1 GROUP             0       ****    0 ROOT    
