@<TRIPOS>MOLECULE
3R8
117   119    1
SMALL
USER_CHARGES


@<TRIPOS>ATOM
      1 CA         11.7567  -25.9509  -45.0667 C.3       0 UNK        -0.2013 
      2 C          13.1967  -25.5264  -44.8192 C.2       0 UNK         0.4866 
      3 O          13.4553  -24.7379  -43.9090 O.2       0 UNK        -0.5176 
      4 N          14.1329  -26.0332  -45.6302 N.am      1 UNK        -0.4884 
      5 CA         15.5745  -25.7977  -45.5037 C.3       1 UNK         0.0853 
      6 C6         16.3430  -26.0977  -46.8256 C.3       10 UNK        -0.0849 
      7 S7         15.8195  -27.5556  -47.8051 S.3       10 UNK        -0.2776 
      8 C8         16.0404  -28.9922  -46.6935 C.3       10 UNK         0.0316 
      9 C9         17.4603  -29.2628  -46.1883 C.ar      10 UNK        -0.0863 
     10 C10        17.6154  -30.0211  -45.0221 C.ar      10 UNK        -0.1009 
     11 C11        18.8855  -30.3598  -44.5456 C.ar      10 UNK        -0.0712 
     12 C12        20.0129  -29.9397  -45.2534 C.ar      10 UNK        -0.0894 
     13 C13        19.8817  -29.1465  -46.3964 C.ar      10 UNK        -0.0745 
     14 C14        18.6044  -28.8232  -46.8671 C.ar      10 UNK        -0.0972 
     15 C15        21.1179  -28.6488  -47.1319 C.3       10 UNK         0.0209 
     16 S16        21.7384  -27.0791  -46.4396 S.3       10 UNK        -0.2568 
     17 C17        22.6541  -27.6463  -44.9639 C.3       10 UNK        -0.0983 
     18 CA         22.1286  -27.0693  -43.6192 C.3       3 UNK         0.0876 
     19 N          20.6966  -27.3025  -43.4029 N.am      3 UNK        -0.4424 
     20 C          19.7516  -26.3601  -43.4131 C.2       2 UNK         0.4918 
     21 O          19.9574  -25.1696  -43.6609 O.2       2 UNK        -0.4875 
     22 CA         18.3343  -26.8140  -43.0551 C.3       2 UNK         0.0481 
     23 CB         17.9994  -26.5044  -41.5855 C.3       2 UNK        -0.1831 
     24 N          17.4246  -26.1220  -43.9561 N.am      2 UNK        -0.4498 
     25 C          16.1992  -26.5307  -44.2969 C.2       1 UNK         0.5027 
     26 O          15.6014  -27.4548  -43.7382 O.2       1 UNK        -0.4969 
     27 C          22.8958  -27.6412  -42.4099 C.2       3 UNK         0.5005 
     28 O          23.9739  -28.2164  -42.5755 O.2       3 UNK        -0.5279 
     29 N          22.3074  -27.5137  -41.2095 N.am      4 UNK        -0.4463 
     30 CA         22.6981  -28.1951  -39.9694 C.3       4 UNK         0.0283 
     31 CB         21.6999  -27.8348  -38.8586 C.3       4 UNK        -0.1875 
     32 C          24.1441  -27.9598  -39.4979 C.2       4 UNK         0.4949 
     33 O          24.6712  -28.7857  -38.7547 O.2       4 UNK        -0.5039 
     34 N          24.7764  -26.8749  -39.9626 N.am      5 UNK        -0.4663 
     35 CA         26.1965  -26.5843  -39.7510 C.3       5 UNK         0.0242 
     36 CB         26.4884  -25.1507  -40.2237 C.3       5 UNK        -0.1982 
     37 C          27.1482  -27.5820  -40.4429 C.2       5 UNK         0.5017 
     38 O          28.2943  -27.6999  -40.0071 O.2       5 UNK        -0.5012 
     39 N          26.6745  -28.2661  -41.4952 N.am      6 UNK        -0.4439 
     40 CA         27.4400  -29.2467  -42.2689 C.3       6 UNK         0.0297 
     41 CB         27.7122  -28.6839  -43.6742 C.3       6 UNK        -0.2006 
     42 C          26.7211  -30.6007  -42.3639 C.2       6 UNK         0.4892 
     43 O          27.3735  -31.6361  -42.2289 O.2       6 UNK        -0.5089 
     44 N          25.4042  -30.5802  -42.6075 N.am      7 UNK        -0.4243 
     45 CA         24.5834  -31.7699  -42.8494 C.3       7 UNK         0.0196 
     46 CB         23.4353  -31.3849  -43.7973 C.3       7 UNK        -0.2007 
     47 C          24.0083  -32.3963  -41.5695 C.2       7 UNK         0.5020 
     48 O          23.4283  -33.4794  -41.6533 O.2       7 UNK        -0.5147 
     49 N          24.1160  -31.6996  -40.4281 N.am      8 UNK        -0.4734 
     50 CA         23.5446  -32.0055  -39.1045 C.3       8 UNK         0.0238 
     51 CB         24.0541  -33.3528  -38.5554 C.3       8 UNK        -0.1912 
     52 C          22.0067  -31.9218  -39.0399 C.2       8 UNK         0.5038 
     53 O          21.4818  -31.3468  -38.0865 O.2       8 UNK        -0.5046 
     54 N          21.3225  -32.4770  -40.0480 N.am      9 UNK        -0.4200 
     55 CA         19.8598  -32.5162  -40.2169 C.3       9 UNK         0.0839 
     56 C          19.1004  -33.3314  -39.1244 C.2       9 UNK         0.5513 
     57 N          19.7554  -34.2299  -38.3986 N.am      9 UNK        -0.7519 
     58 O          17.8940  -33.1771  -38.9511 O.2       9 UNK        -0.4960 
     59 C59        19.2362  -31.1118  -40.4700 C.3       10 UNK        -0.0876 
     60 S60        19.8936  -30.2741  -41.9538 S.3       10 UNK        -0.2414 
     61 C61        19.0367  -31.1906  -43.2778 C.3       10 UNK         0.0169 
     62 H62        11.3562  -26.4489  -44.1841 H         1 UNK         0.0903 
     63 H63        11.1385  -25.0784  -45.2762 H         1 UNK         0.0903 
     64 H64        11.6726  -26.6364  -45.9099 H         1 UNK         0.0903 
     65 H65        13.8714  -26.6863  -46.3556 H         1 UNK         0.3096 
     66 H66        15.7016  -24.7324  -45.2949 H         1 UNK         0.1121 
     67 H67        17.4215  -26.1533  -46.6668 H         1 UNK         0.0849 
     68 H68        16.2130  -25.2398  -47.4872 H         1 UNK         0.0849 
     69 H69        15.3493  -28.8970  -45.8565 H         1 UNK         0.0865 
     70 H70        15.7141  -29.8794  -47.2378 H         1 UNK         0.0865 
     71 H71        16.7382  -30.3572  -44.4857 H         1 UNK         0.1346 
     72 H72        20.9931  -30.2187  -44.8984 H         1 UNK         0.1412 
     73 H73        18.5093  -28.2359  -47.7695 H         1 UNK         0.1426 
     74 H74        21.9054  -29.4038  -47.1110 H         1 UNK         0.0716 
     75 H75        20.8818  -28.4925  -48.1855 H         1 UNK         0.0716 
     76 H76        22.6619  -28.7346  -44.9393 H         1 UNK         0.0695 
     77 H77        23.6964  -27.3545  -45.1060 H         1 UNK         0.0695 
     78 H78        22.3342  -25.9968  -43.6188 H         1 UNK         0.0983 
     79 H79        20.4332  -28.2557  -43.1850 H         1 UNK         0.3095 
     80 H80        18.2507  -27.8885  -43.2229 H         1 UNK         0.0454 
     81 H81        18.0727  -25.4375  -41.3713 H         1 UNK         0.0851 
     82 H82        16.9902  -26.8281  -41.3313 H         1 UNK         0.0851 
     83 H83        18.6822  -27.0241  -40.9125 H         1 UNK         0.0851 
     84 H84        17.8551  -25.3495  -44.4498 H         1 UNK         0.2976 
     85 H85        21.4409  -26.9973  -41.1731 H         1 UNK         0.3116 
     86 H86        22.6037  -29.2632  -40.1671 H         1 UNK         0.0646 
     87 H87        21.7053  -26.7663  -38.6402 H         1 UNK         0.0847 
     88 H88        20.6836  -28.1216  -39.1294 H         1 UNK         0.0847 
     89 H89        21.9411  -28.3595  -37.9327 H         1 UNK         0.0847 
     90 H90        24.2654  -26.2499  -40.5688 H         1 UNK         0.3040 
     91 H91        26.3951  -26.6408  -38.6783 H         1 UNK         0.1015 
     92 H92        26.2937  -25.0296  -41.2901 H         1 UNK         0.0786 
     93 H93        27.5334  -24.8881  -40.0517 H         1 UNK         0.0786 
     94 H94        25.8814  -24.4229  -39.6848 H         1 UNK         0.0786 
     95 H95        25.7112  -28.1089  -41.7806 H         1 UNK         0.3172 
     96 H96        28.4040  -29.4363  -41.7923 H         1 UNK         0.0595 
     97 H97        28.3030  -27.7691  -43.6249 H         1 UNK         0.0839 
     98 H98        26.7870  -28.4559  -44.2055 H         1 UNK         0.0839 
     99 H99        28.2711  -29.3979  -44.2808 H         1 UNK         0.0839 
    100 H100       24.9252  -29.6844  -42.6925 H         1 UNK         0.2998 
    101 H101       25.1904  -32.5325  -43.3422 H         1 UNK         0.0822 
    102 H102       23.8124  -30.9560  -44.7257 H         1 UNK         0.0787 
    103 H103       22.8355  -32.2563  -44.0640 H         1 UNK         0.0787 
    104 H104       22.7654  -30.6599  -43.3343 H         1 UNK         0.0787 
    105 H105       24.6080  -30.8182  -40.4819 H         1 UNK         0.3055 
    106 H106       23.9181  -31.2311  -38.4335 H         1 UNK         0.1106 
    107 H107       25.1434  -33.3867  -38.5404 H         1 UNK         0.0828 
    108 H108       23.7119  -33.5072  -37.5312 H         1 UNK         0.0828 
    109 H109       23.7008  -34.2001  -39.1432 H         1 UNK         0.0828 
    110 H110       21.8682  -32.9445  -40.7668 H         1 UNK         0.2931 
    111 H111       19.7036  -33.0976  -41.1258 H         1 UNK         0.0412 
    112 H112       20.7414  -34.3800  -38.5395 H         1 UNK         0.3472 
    113 H113       19.2566  -34.7614  -37.7022 H         1 UNK         0.3472 
    114 H114       18.1524  -31.1783  -40.5791 H         1 UNK         0.0970 
    115 H115       19.4032  -30.4642  -39.6082 H         1 UNK         0.0970 
    116 H116       18.0572  -31.5142  -42.9230 H         1 UNK         0.0612 
    117 H117       19.5988  -32.0977  -43.5036 H         1 UNK         0.0612 
@<TRIPOS>BOND
     1    1    2 1    
     2    1   62 1    
     3    1   63 1    
     4    1   64 1    
     5    2    3 2    
     6    2    4 am   BACKBONE|DICT|INTERRES
     7    4    5 1    
     8    4   65 1    
     9    5    6 1    
    10    5   25 1    
    11    5   66 1    
    12    6    7 1    
    13    6   67 1    
    14    6   68 1    
    15    7    8 1    
    16    8    9 1    
    17    8   69 1    
    18    8   70 1    
    19    9   10 ar   
    20    9   14 ar   
    21   10   11 ar   
    22   10   71 1    
    23   11   12 ar   
    24   11   61 1    
    25   12   13 ar   
    26   12   72 1    
    27   13   14 ar   
    28   13   15 1    
    29   14   73 1    
    30   15   16 1    
    31   15   74 1    
    32   15   75 1    
    33   16   17 1    
    34   17   18 1    
    35   17   76 1    
    36   17   77 1    
    37   18   19 1    
    38   18   27 1    
    39   18   78 1    
    40   19   20 am   BACKBONE|DICT|INTERRES
    41   19   79 1    
    42   20   21 2    
    43   20   22 1    
    44   22   23 1    
    45   22   24 1    
    46   22   80 1    
    47   23   81 1    
    48   23   82 1    
    49   23   83 1    
    50   24   25 am   BACKBONE|DICT|INTERRES
    51   24   84 1    
    52   25   26 2    
    53   27   28 2    
    54   27   29 am   BACKBONE|DICT|INTERRES
    55   29   30 1    
    56   29   85 1    
    57   30   31 1    
    58   30   32 1    
    59   30   86 1    
    60   31   87 1    
    61   31   88 1    
    62   31   89 1    
    63   32   33 2    
    64   32   34 am   BACKBONE|DICT|INTERRES
    65   34   35 1    
    66   34   90 1    
    67   35   36 1    
    68   35   37 1    
    69   35   91 1    
    70   36   92 1    
    71   36   93 1    
    72   36   94 1    
    73   37   38 2    
    74   37   39 am   BACKBONE|DICT|INTERRES
    75   39   40 1    
    76   39   95 1    
    77   40   41 1    
    78   40   42 1    
    79   40   96 1    
    80   41   97 1    
    81   41   98 1    
    82   41   99 1    
    83   42   43 2    
    84   42   44 am   BACKBONE|DICT|INTERRES
    85   44   45 1    
    86   44  100 1    
    87   45   46 1    
    88   45   47 1    
    89   45  101 1    
    90   46  102 1    
    91   46  103 1    
    92   46  104 1    
    93   47   48 2    
    94   47   49 am   BACKBONE|DICT|INTERRES
    95   49   50 1    
    96   49  105 1    
    97   50   51 1    
    98   50   52 1    
    99   50  106 1    
   100   51  107 1    
   101   51  108 1    
   102   51  109 1    
   103   52   53 2    
   104   52   54 am   BACKBONE|DICT|INTERRES
   105   54   55 1    
   106   54  110 1    
   107   55   56 1    
   108   55   59 1    
   109   55  111 1    
   110   56   57 am   BACKBONE|DICT|INTERRES
   111   56   58 2    
   112   57  112 1    
   113   57  113 1    
   114   59   60 1    
   115   59  114 1    
   116   59  115 1    
   117   60   61 1    
   118   61  116 1    
   119   61  117 1    
@<TRIPOS>SUBSTRUCTURE
     1 UNK         1 GROUP             0       ****    0 ROOT    
