@<TRIPOS>MOLECULE
3R8
117   119    1
SMALL
USER_CHARGES


@<TRIPOS>ATOM
      1 CA         20.0465  -24.0895  -40.3110 C.3       0 UNK        -0.2013 
      2 C          19.1558  -24.1408  -41.5429 C.2       0 UNK         0.4866 
      3 O          18.2660  -23.3017  -41.6880 O.2       0 UNK        -0.5176 
      4 N          19.3850  -25.1221  -42.4210 N.am      1 UNK        -0.4884 
      5 CA         18.6301  -25.3470  -43.6563 C.3       1 UNK         0.0853 
      6 C6         18.1159  -26.8085  -43.7322 C.3       10 UNK        -0.0849 
      7 S7         16.9290  -27.1977  -42.4009 S.3       10 UNK        -0.2776 
      8 C8         15.8767  -28.4533  -43.2004 C.3       10 UNK         0.0316 
      9 C9         16.6827  -29.6685  -43.6367 C.ar      10 UNK        -0.0863 
     10 C10        17.2159  -30.5363  -42.6795 C.ar      10 UNK        -0.1009 
     11 C11        17.9901  -31.6331  -43.0676 C.ar      10 UNK        -0.0712 
     12 C12        18.2181  -31.8660  -44.4273 C.ar      10 UNK        -0.0894 
     13 C13        17.6761  -31.0160  -45.3965 C.ar      10 UNK        -0.0745 
     14 C14        16.9040  -29.9213  -44.9942 C.ar      10 UNK        -0.0972 
     15 C15        17.9164  -31.2936  -46.8764 C.3       10 UNK         0.0209 
     16 S16        18.6938  -29.8943  -47.7484 S.3       10 UNK        -0.2568 
     17 C17        20.2768  -29.7462  -46.8558 C.3       10 UNK        -0.0983 
     18 CA         21.0786  -28.4890  -47.2756 C.3       3 UNK         0.0876 
     19 N          20.2949  -27.2585  -47.1301 N.am      3 UNK        -0.4424 
     20 C          20.6226  -26.0635  -47.6414 C.2       2 UNK         0.4918 
     21 O          21.6261  -25.8588  -48.3246 O.2       2 UNK        -0.4875 
     22 CA         19.6640  -24.8938  -47.3403 C.3       2 UNK         0.0481 
     23 CB         18.6512  -24.7256  -48.4841 C.3       2 UNK        -0.1831 
     24 N          18.9437  -25.0451  -46.0702 N.am      2 UNK        -0.4498 
     25 C          19.5304  -25.0203  -44.8644 C.2       1 UNK         0.5027 
     26 O          20.7313  -24.7849  -44.7055 O.2       1 UNK        -0.4969 
     27 C          22.4022  -28.4181  -46.4891 C.2       3 UNK         0.5005 
     28 O          23.4481  -28.7936  -47.0213 O.2       3 UNK        -0.5279 
     29 N          22.3258  -27.9345  -45.2431 N.am      4 UNK        -0.4463 
     30 CA         23.4222  -27.7767  -44.2938 C.3       4 UNK         0.0283 
     31 CB         23.9789  -29.1474  -43.8613 C.3       4 UNK        -0.1875 
     32 C          22.8870  -27.0191  -43.0751 C.2       4 UNK         0.4949 
     33 O          21.6792  -27.0423  -42.8141 O.2       4 UNK        -0.5039 
     34 N          23.7971  -26.3993  -42.3156 N.am      5 UNK        -0.4663 
     35 CA         23.5137  -25.6312  -41.0987 C.3       5 UNK         0.0242 
     36 CB         24.6940  -24.6789  -40.8283 C.3       5 UNK        -0.1982 
     37 C          23.1792  -26.5251  -39.8833 C.2       5 UNK         0.5017 
     38 O          23.8065  -26.3908  -38.8310 O.2       5 UNK        -0.5012 
     39 N          22.1939  -27.4174  -40.0585 N.am      6 UNK        -0.4439 
     40 CA         21.7052  -28.4172  -39.1052 C.3       6 UNK         0.0297 
     41 CB         20.9725  -27.7346  -37.9272 C.3       6 UNK        -0.2006 
     42 C          22.8241  -29.3948  -38.6918 C.2       6 UNK         0.4892 
     43 O          23.4879  -29.9429  -39.5755 O.2       6 UNK        -0.5089 
     44 N          22.9955  -29.6172  -37.3791 N.am      7 UNK        -0.4243 
     45 CA         23.9843  -30.4695  -36.6961 C.3       7 UNK         0.0196 
     46 CB         25.4252  -30.0157  -37.0028 C.3       7 UNK        -0.2007 
     47 C          23.8174  -31.9805  -36.9419 C.2       7 UNK         0.5020 
     48 O          23.8731  -32.7575  -35.9885 O.2       7 UNK        -0.5147 
     49 N          23.6014  -32.3666  -38.2001 N.am      8 UNK        -0.4734 
     50 CA         23.3259  -33.7298  -38.6493 C.3       8 UNK         0.0238 
     51 CB         24.6336  -34.5271  -38.8078 C.3       8 UNK        -0.1912 
     52 C          22.5234  -33.7069  -39.9549 C.2       8 UNK         0.5038 
     53 O          21.5758  -34.4817  -40.0814 O.2       8 UNK        -0.5046 
     54 N          22.9156  -32.8118  -40.8771 N.am      9 UNK        -0.4200 
     55 CA         22.2927  -32.5007  -42.1790 C.3       9 UNK         0.0839 
     56 C          21.9930  -33.6890  -43.1452 C.2       9 UNK         0.5513 
     57 N          22.5841  -34.8618  -42.9563 N.am      9 UNK        -0.7519 
     58 O          21.2619  -33.5346  -44.1192 O.2       9 UNK        -0.4960 
     59 C59        21.1645  -31.4252  -42.0930 C.3       10 UNK        -0.0876 
     60 S60        19.7904  -31.7721  -40.9411 S.3       10 UNK        -0.2414 
     61 C61        18.5624  -32.5769  -42.0186 C.3       10 UNK         0.0169 
     62 H62        19.4752  -23.7543  -39.4456 H         1 UNK         0.0903 
     63 H63        20.4558  -25.0707  -40.0752 H         1 UNK         0.0903 
     64 H64        20.8690  -23.3920  -40.4667 H         1 UNK         0.0903 
     65 H65        20.1867  -25.7353  -42.3139 H         1 UNK         0.3096 
     66 H66        17.7717  -24.6733  -43.7070 H         1 UNK         0.1121 
     67 H67        18.9438  -27.5183  -43.6705 H         1 UNK         0.0849 
     68 H68        17.6219  -26.9956  -44.6868 H         1 UNK         0.0849 
     69 H69        15.1023  -28.7670  -42.4988 H         1 UNK         0.0865 
     70 H70        15.3563  -28.0033  -44.0473 H         1 UNK         0.0865 
     71 H71        17.0449  -30.3466  -41.6284 H         1 UNK         0.1346 
     72 H72        18.8153  -32.7149  -44.7311 H         1 UNK         0.1412 
     73 H73        16.4876  -29.2606  -45.7423 H         1 UNK         0.1426 
     74 H74        16.9606  -31.5165  -47.3521 H         1 UNK         0.0716 
     75 H75        18.5404  -32.1787  -47.0107 H         1 UNK         0.0716 
     76 H76        20.8579  -30.6517  -47.0419 H         1 UNK         0.0695 
     77 H77        20.0727  -29.7261  -45.7834 H         1 UNK         0.0695 
     78 H78        21.3356  -28.5907  -48.3325 H         1 UNK         0.0983 
     79 H79        19.4253  -27.3445  -46.6281 H         1 UNK         0.3095 
     80 H80        20.2635  -23.9828  -47.2815 H         1 UNK         0.0454 
     81 H81        19.1612  -24.5823  -49.4378 H         1 UNK         0.0851 
     82 H82        18.0143  -23.8549  -48.3271 H         1 UNK         0.0851 
     83 H83        18.0077  -25.6001  -48.5885 H         1 UNK         0.0851 
     84 H84        17.9490  -25.2112  -46.1324 H         1 UNK         0.2976 
     85 H85        21.4374  -27.6064  -44.8847 H         1 UNK         0.3116 
     86 H86        24.2099  -27.1829  -44.7618 H         1 UNK         0.0646 
     87 H87        24.7377  -29.0427  -43.0847 H         1 UNK         0.0847 
     88 H88        23.1901  -29.7822  -43.4622 H         1 UNK         0.0847 
     89 H89        24.4453  -29.6764  -44.6920 H         1 UNK         0.0847 
     90 H90        24.7701  -26.4699  -42.5783 H         1 UNK         0.3040 
     91 H91        22.6356  -25.0121  -41.2891 H         1 UNK         0.1015 
     92 H92        24.4952  -24.0440  -39.9637 H         1 UNK         0.0786 
     93 H93        24.8732  -24.0173  -41.6761 H         1 UNK         0.0786 
     94 H94        25.6161  -25.2257  -40.6270 H         1 UNK         0.0786 
     95 H95        21.7990  -27.4682  -40.9945 H         1 UNK         0.3172 
     96 H96        20.9695  -29.0151  -39.6451 H         1 UNK         0.0595 
     97 H97        21.6451  -27.1327  -37.3148 H         1 UNK         0.0839 
     98 H98        20.4915  -28.4679  -37.2786 H         1 UNK         0.0839 
     99 H99        20.1840  -27.0751  -38.2903 H         1 UNK         0.0839 
    100 H100       22.3664  -29.1288  -36.7572 H         1 UNK         0.2998 
    101 H101       23.8163  -30.3112  -35.6294 H         1 UNK         0.0822 
    102 H102       26.1455  -30.5843  -36.4131 H         1 UNK         0.0787 
    103 H103       25.6847  -30.1563  -38.0525 H         1 UNK         0.0787 
    104 H104       25.5677  -28.9621  -36.7621 H         1 UNK         0.0787 
    105 H105       23.5293  -31.6226  -38.8923 H         1 UNK         0.3055 
    106 H106       22.7045  -34.2247  -37.8989 H         1 UNK         0.1106 
    107 H107       25.1570  -34.6230  -37.8564 H         1 UNK         0.0828 
    108 H108       24.4338  -35.5370  -39.1684 H         1 UNK         0.0828 
    109 H109       25.3140  -34.0537  -39.5163 H         1 UNK         0.0828 
    110 H110       23.7327  -32.2569  -40.6693 H         1 UNK         0.2931 
    111 H111       23.1058  -32.0028  -42.7069 H         1 UNK         0.0412 
    112 H112       22.3993  -35.6161  -43.5986 H         1 UNK         0.3472 
    113 H113       23.1781  -35.0113  -42.1569 H         1 UNK         0.3472 
    114 H114       21.6099  -30.4905  -41.7501 H         1 UNK         0.0970 
    115 H115       20.7672  -31.1912  -43.0818 H         1 UNK         0.0970 
    116 H116       19.0129  -33.4552  -42.4822 H         1 UNK         0.0612 
    117 H117       17.7464  -32.9474  -41.3969 H         1 UNK         0.0612 
@<TRIPOS>BOND
     1    1    2 1    
     2    1   62 1    
     3    1   63 1    
     4    1   64 1    
     5    2    3 2    
     6    2    4 am   BACKBONE|DICT|INTERRES
     7    4    5 1    
     8    4   65 1    
     9    5    6 1    
    10    5   25 1    
    11    5   66 1    
    12    6    7 1    
    13    6   67 1    
    14    6   68 1    
    15    7    8 1    
    16    8    9 1    
    17    8   69 1    
    18    8   70 1    
    19    9   10 ar   
    20    9   14 ar   
    21   10   11 ar   
    22   10   71 1    
    23   11   12 ar   
    24   11   61 1    
    25   12   13 ar   
    26   12   72 1    
    27   13   14 ar   
    28   13   15 1    
    29   14   73 1    
    30   15   16 1    
    31   15   74 1    
    32   15   75 1    
    33   16   17 1    
    34   17   18 1    
    35   17   76 1    
    36   17   77 1    
    37   18   19 1    
    38   18   27 1    
    39   18   78 1    
    40   19   20 am   BACKBONE|DICT|INTERRES
    41   19   79 1    
    42   20   21 2    
    43   20   22 1    
    44   22   23 1    
    45   22   24 1    
    46   22   80 1    
    47   23   81 1    
    48   23   82 1    
    49   23   83 1    
    50   24   25 am   BACKBONE|DICT|INTERRES
    51   24   84 1    
    52   25   26 2    
    53   27   28 2    
    54   27   29 am   BACKBONE|DICT|INTERRES
    55   29   30 1    
    56   29   85 1    
    57   30   31 1    
    58   30   32 1    
    59   30   86 1    
    60   31   87 1    
    61   31   88 1    
    62   31   89 1    
    63   32   33 2    
    64   32   34 am   BACKBONE|DICT|INTERRES
    65   34   35 1    
    66   34   90 1    
    67   35   36 1    
    68   35   37 1    
    69   35   91 1    
    70   36   92 1    
    71   36   93 1    
    72   36   94 1    
    73   37   38 2    
    74   37   39 am   BACKBONE|DICT|INTERRES
    75   39   40 1    
    76   39   95 1    
    77   40   41 1    
    78   40   42 1    
    79   40   96 1    
    80   41   97 1    
    81   41   98 1    
    82   41   99 1    
    83   42   43 2    
    84   42   44 am   BACKBONE|DICT|INTERRES
    85   44   45 1    
    86   44  100 1    
    87   45   46 1    
    88   45   47 1    
    89   45  101 1    
    90   46  102 1    
    91   46  103 1    
    92   46  104 1    
    93   47   48 2    
    94   47   49 am   BACKBONE|DICT|INTERRES
    95   49   50 1    
    96   49  105 1    
    97   50   51 1    
    98   50   52 1    
    99   50  106 1    
   100   51  107 1    
   101   51  108 1    
   102   51  109 1    
   103   52   53 2    
   104   52   54 am   BACKBONE|DICT|INTERRES
   105   54   55 1    
   106   54  110 1    
   107   55   56 1    
   108   55   59 1    
   109   55  111 1    
   110   56   57 am   BACKBONE|DICT|INTERRES
   111   56   58 2    
   112   57  112 1    
   113   57  113 1    
   114   59   60 1    
   115   59  114 1    
   116   59  115 1    
   117   60   61 1    
   118   61  116 1    
   119   61  117 1    
@<TRIPOS>SUBSTRUCTURE
     1 UNK         1 GROUP             0       ****    0 ROOT    
