@<TRIPOS>MOLECULE
3R8
117   119    1
SMALL
USER_CHARGES


@<TRIPOS>ATOM
      1 CA         17.6484  -24.1554  -48.2123 C.3       0 UNK        -0.2013 
      2 C          18.0528  -25.4252  -47.4799 C.2       0 UNK         0.4866 
      3 O          18.2811  -25.3867  -46.2702 O.2       0 UNK        -0.5176 
      4 N          18.1748  -26.5464  -48.2071 N.am      1 UNK        -0.4884 
      5 CA         18.4786  -27.9101  -47.7315 C.3       1 UNK         0.0853 
      6 C6         17.4450  -28.4052  -46.6806 C.3       10 UNK        -0.0849 
      7 S7         17.3030  -30.2231  -46.6078 S.3       10 UNK        -0.2776 
      8 C8         15.8690  -30.4307  -45.5083 C.3       10 UNK         0.0316 
      9 C9         16.1810  -30.0474  -44.0678 C.ar      10 UNK        -0.0863 
     10 C10        16.7143  -30.9926  -43.1852 C.ar      10 UNK        -0.1009 
     11 C11        16.9404  -30.6664  -41.8440 C.ar      10 UNK        -0.0712 
     12 C12        16.6266  -29.3811  -41.3913 C.ar      10 UNK        -0.0894 
     13 C13        16.1200  -28.4186  -42.2697 C.ar      10 UNK        -0.0745 
     14 C14        15.8949  -28.7595  -43.6058 C.ar      10 UNK        -0.0972 
     15 C15        15.7849  -27.0209  -41.7689 C.3       10 UNK         0.0209 
     16 S16        17.2372  -26.1655  -41.0819 S.3       10 UNK        -0.2568 
     17 C17        18.3029  -25.9609  -42.5525 C.3       10 UNK        -0.0983 
     18 CA         19.4714  -26.9780  -42.6740 C.3       3 UNK         0.0876 
     19 N          20.1696  -26.7614  -43.9444 N.am      3 UNK        -0.4424 
     20 C          21.2164  -27.4494  -44.4239 C.2       2 UNK         0.4918 
     21 O          21.7357  -28.4089  -43.8564 O.2       2 UNK        -0.4875 
     22 CA         21.7017  -27.0104  -45.8189 C.3       2 UNK         0.0481 
     23 CB         22.9196  -27.8033  -46.3418 C.3       2 UNK        -0.1831 
     24 N          20.5676  -27.0375  -46.7480 N.am      2 UNK        -0.4498 
     25 C          19.9251  -28.1158  -47.2195 C.2       1 UNK         0.5027 
     26 O          20.4114  -29.2460  -47.2500 O.2       1 UNK        -0.4969 
     27 C          20.4249  -26.9233  -41.4551 C.2       3 UNK         0.5005 
     28 O          21.3672  -26.1263  -41.4511 O.2       3 UNK        -0.5279 
     29 N          20.1026  -27.7401  -40.4398 N.am      4 UNK        -0.4463 
     30 CA         20.7947  -27.9772  -39.1674 C.3       4 UNK         0.0283 
     31 CB         21.1962  -26.6727  -38.4501 C.3       4 UNK        -0.1875 
     32 C          21.9904  -28.9270  -39.3209 C.2       4 UNK         0.4949 
     33 O          22.6731  -28.9234  -40.3463 O.2       4 UNK        -0.5039 
     34 N          22.2352  -29.7228  -38.2703 N.am      5 UNK        -0.4663 
     35 CA         23.2646  -30.7695  -38.2131 C.3       5 UNK         0.0242 
     36 CB         23.1488  -31.5241  -36.8799 C.3       5 UNK        -0.1982 
     37 C          24.7020  -30.2655  -38.4253 C.2       5 UNK         0.5017 
     38 O          25.5303  -31.0171  -38.9390 O.2       5 UNK        -0.5012 
     39 N          24.9552  -28.9913  -38.0944 N.am      6 UNK        -0.4439 
     40 CA         26.2041  -28.2750  -38.3739 C.3       6 UNK         0.0297 
     41 CB         26.1488  -26.8896  -37.7100 C.3       6 UNK        -0.2006 
     42 C          26.5218  -28.1368  -39.8773 C.2       6 UNK         0.4892 
     43 O          27.6942  -28.0012  -40.2281 O.2       6 UNK        -0.5089 
     44 N          25.4882  -28.1933  -40.7285 N.am      7 UNK        -0.4243 
     45 CA         25.5824  -28.1989  -42.1886 C.3       7 UNK         0.0196 
     46 CB         24.7560  -27.0213  -42.7310 C.3       7 UNK        -0.2007 
     47 C          25.1254  -29.5516  -42.7747 C.2       7 UNK         0.5020 
     48 O          24.8464  -29.6268  -43.9704 O.2       7 UNK        -0.5147 
     49 N          25.0790  -30.5962  -41.9315 N.am      8 UNK        -0.4734 
     50 CA         24.6949  -31.9875  -42.2110 C.3       8 UNK         0.0238 
     51 CB         25.5438  -32.6002  -43.3463 C.3       8 UNK        -0.1912 
     52 C          23.1844  -32.2271  -42.4114 C.2       8 UNK         0.5038 
     53 O          22.8096  -33.3515  -42.7472 O.2       8 UNK        -0.5046 
     54 N          22.3444  -31.2168  -42.1469 N.am      9 UNK        -0.4200 
     55 CA         20.8733  -31.2752  -42.1839 C.3       9 UNK         0.0839 
     56 C          20.3063  -31.6655  -43.5813 C.2       9 UNK         0.5513 
     57 N          20.6682  -30.9237  -44.6157 N.am      9 UNK        -0.7519 
     58 O          19.5643  -32.6318  -43.7402 O.2       9 UNK        -0.4960 
     59 C59        20.2877  -32.1007  -40.9963 C.3       10 UNK        -0.0876 
     60 S60        19.0130  -31.1935  -40.0591 S.3       10 UNK        -0.2414 
     61 C61        17.4647  -31.7127  -40.8680 C.3       10 UNK         0.0169 
     62 H62        18.4228  -23.3965  -48.1033 H         1 UNK         0.0903 
     63 H63        17.4903  -24.3295  -49.2765 H         1 UNK         0.0903 
     64 H64        16.7237  -23.7608  -47.7922 H         1 UNK         0.0903 
     65 H65        18.0167  -26.4840  -49.2044 H         1 UNK         0.3096 
     66 H66        18.3850  -28.5413  -48.6173 H         1 UNK         0.1121 
     67 H67        17.6851  -28.0207  -45.6874 H         1 UNK         0.0849 
     68 H68        16.4555  -28.0142  -46.9231 H         1 UNK         0.0849 
     69 H69        15.0290  -29.8464  -45.8871 H         1 UNK         0.0865 
     70 H70        15.5487  -31.4730  -45.5467 H         1 UNK         0.0865 
     71 H71        16.9367  -31.9895  -43.5413 H         1 UNK         0.1346 
     72 H72        16.7785  -29.1279  -40.3507 H         1 UNK         0.1412 
     73 H73        15.4824  -28.0263  -44.2856 H         1 UNK         0.1426 
     74 H74        15.0230  -27.0983  -40.9922 H         1 UNK         0.0716 
     75 H75        15.3528  -26.4093  -42.5627 H         1 UNK         0.0716 
     76 H76        17.6739  -26.0139  -43.4432 H         1 UNK         0.0695 
     77 H77        18.6970  -24.9431  -42.5324 H         1 UNK         0.0695 
     78 H78        19.0503  -27.9844  -42.7290 H         1 UNK         0.0983 
     79 H79        19.7976  -26.0131  -44.5127 H         1 UNK         0.3095 
     80 H80        22.0046  -25.9658  -45.7345 H         1 UNK         0.0454 
     81 H81        22.7581  -28.8811  -46.3121 H         1 UNK         0.0851 
     82 H82        23.1660  -27.5270  -47.3665 H         1 UNK         0.0851 
     83 H83        23.7993  -27.6051  -45.7318 H         1 UNK         0.0851 
     84 H84        20.0233  -26.1821  -46.7789 H         1 UNK         0.2976 
     85 H85        19.2943  -28.3310  -40.5762 H         1 UNK         0.3116 
     86 H86        20.0569  -28.4805  -38.5404 H         1 UNK         0.0646 
     87 H87        21.5195  -26.8740  -37.4284 H         1 UNK         0.0847 
     88 H88        20.3599  -25.9759  -38.3936 H         1 UNK         0.0847 
     89 H89        22.0223  -26.1676  -38.9517 H         1 UNK         0.0847 
     90 H90        21.6296  -29.6524  -37.4644 H         1 UNK         0.3040 
     91 H91        23.0561  -31.4730  -39.0218 H         1 UNK         0.1015 
     92 H92        22.1665  -31.9838  -36.7678 H         1 UNK         0.0786 
     93 H93        23.3120  -30.8646  -36.0265 H         1 UNK         0.0786 
     94 H94        23.8869  -32.3254  -36.8186 H         1 UNK         0.0786 
     95 H95        24.2046  -28.4571  -37.6815 H         1 UNK         0.3172 
     96 H96        27.0190  -28.8418  -37.9187 H         1 UNK         0.0595 
     97 H97        26.0110  -26.9695  -36.6315 H         1 UNK         0.0839 
     98 H98        25.3365  -26.2815  -38.1103 H         1 UNK         0.0839 
     99 H99        27.0773  -26.3409  -37.8751 H         1 UNK         0.0839 
    100 H100       24.5492  -28.3269  -40.3619 H         1 UNK         0.2998 
    101 H101       26.6181  -28.0584  -42.5039 H         1 UNK         0.0822 
    102 H102       25.0800  -26.0755  -42.2968 H         1 UNK         0.0787 
    103 H103       24.8608  -26.9310  -43.8113 H         1 UNK         0.0787 
    104 H104       23.6959  -27.1444  -42.5075 H         1 UNK         0.0787 
    105 H105       25.3438  -30.4247  -40.9678 H         1 UNK         0.3055 
    106 H106       24.9455  -32.5353  -41.3010 H         1 UNK         0.1106 
    107 H107       25.2847  -32.1821  -44.3192 H         1 UNK         0.0828 
    108 H108       26.6085  -32.4365  -43.1808 H         1 UNK         0.0828 
    109 H109       25.3905  -33.6781  -43.4106 H         1 UNK         0.0828 
    110 H110       22.7306  -30.3189  -41.8757 H         1 UNK         0.2931 
    111 H111       20.5722  -30.2363  -42.0447 H         1 UNK         0.0412 
    112 H112       20.3110  -31.1192  -45.5378 H         1 UNK         0.3472 
    113 H113       21.2421  -30.0995  -44.4597 H         1 UNK         0.3472 
    114 H114       21.0723  -32.3277  -40.2737 H         1 UNK         0.0970 
    115 H115       19.9150  -33.0793  -41.3016 H         1 UNK         0.0970 
    116 H116       17.6028  -32.6762  -41.3606 H         1 UNK         0.0612 
    117 H117       16.7105  -31.8719  -40.0963 H         1 UNK         0.0612 
@<TRIPOS>BOND
     1    1    2 1    
     2    1   62 1    
     3    1   63 1    
     4    1   64 1    
     5    2    3 2    
     6    2    4 am   BACKBONE|DICT|INTERRES
     7    4    5 1    
     8    4   65 1    
     9    5    6 1    
    10    5   25 1    
    11    5   66 1    
    12    6    7 1    
    13    6   67 1    
    14    6   68 1    
    15    7    8 1    
    16    8    9 1    
    17    8   69 1    
    18    8   70 1    
    19    9   10 ar   
    20    9   14 ar   
    21   10   11 ar   
    22   10   71 1    
    23   11   12 ar   
    24   11   61 1    
    25   12   13 ar   
    26   12   72 1    
    27   13   14 ar   
    28   13   15 1    
    29   14   73 1    
    30   15   16 1    
    31   15   74 1    
    32   15   75 1    
    33   16   17 1    
    34   17   18 1    
    35   17   76 1    
    36   17   77 1    
    37   18   19 1    
    38   18   27 1    
    39   18   78 1    
    40   19   20 am   BACKBONE|DICT|INTERRES
    41   19   79 1    
    42   20   21 2    
    43   20   22 1    
    44   22   23 1    
    45   22   24 1    
    46   22   80 1    
    47   23   81 1    
    48   23   82 1    
    49   23   83 1    
    50   24   25 am   BACKBONE|DICT|INTERRES
    51   24   84 1    
    52   25   26 2    
    53   27   28 2    
    54   27   29 am   BACKBONE|DICT|INTERRES
    55   29   30 1    
    56   29   85 1    
    57   30   31 1    
    58   30   32 1    
    59   30   86 1    
    60   31   87 1    
    61   31   88 1    
    62   31   89 1    
    63   32   33 2    
    64   32   34 am   BACKBONE|DICT|INTERRES
    65   34   35 1    
    66   34   90 1    
    67   35   36 1    
    68   35   37 1    
    69   35   91 1    
    70   36   92 1    
    71   36   93 1    
    72   36   94 1    
    73   37   38 2    
    74   37   39 am   BACKBONE|DICT|INTERRES
    75   39   40 1    
    76   39   95 1    
    77   40   41 1    
    78   40   42 1    
    79   40   96 1    
    80   41   97 1    
    81   41   98 1    
    82   41   99 1    
    83   42   43 2    
    84   42   44 am   BACKBONE|DICT|INTERRES
    85   44   45 1    
    86   44  100 1    
    87   45   46 1    
    88   45   47 1    
    89   45  101 1    
    90   46  102 1    
    91   46  103 1    
    92   46  104 1    
    93   47   48 2    
    94   47   49 am   BACKBONE|DICT|INTERRES
    95   49   50 1    
    96   49  105 1    
    97   50   51 1    
    98   50   52 1    
    99   50  106 1    
   100   51  107 1    
   101   51  108 1    
   102   51  109 1    
   103   52   53 2    
   104   52   54 am   BACKBONE|DICT|INTERRES
   105   54   55 1    
   106   54  110 1    
   107   55   56 1    
   108   55   59 1    
   109   55  111 1    
   110   56   57 am   BACKBONE|DICT|INTERRES
   111   56   58 2    
   112   57  112 1    
   113   57  113 1    
   114   59   60 1    
   115   59  114 1    
   116   59  115 1    
   117   60   61 1    
   118   61  116 1    
   119   61  117 1    
@<TRIPOS>SUBSTRUCTURE
     1 UNK         1 GROUP             0       ****    0 ROOT    
