@<TRIPOS>MOLECULE
3R8
117   119    1
SMALL
USER_CHARGES


@<TRIPOS>ATOM
      1 CA         14.4291  -22.8621  -45.0796 C.3       0 UNK        -0.2013 
      2 C          15.5725  -23.8441  -44.8761 C.2       0 UNK         0.4866 
      3 O          16.3666  -24.0619  -45.7921 O.2       0 UNK        -0.5176 
      4 N          15.6789  -24.4323  -43.6772 N.am      1 UNK        -0.4884 
      5 CA         16.7071  -25.4070  -43.2895 C.3       1 UNK         0.0853 
      6 C6         16.1794  -26.3414  -42.1673 C.3       10 UNK        -0.0849 
      7 S7         17.1253  -27.8945  -42.0375 S.3       10 UNK        -0.2776 
      8 C8         16.3532  -28.9010  -43.3412 C.3       10 UNK         0.0316 
      9 C9         17.4181  -29.7011  -44.0698 C.ar      10 UNK        -0.0863 
     10 C10        17.6730  -31.0269  -43.7160 C.ar      10 UNK        -0.1009 
     11 C11        18.6750  -31.7511  -44.3659 C.ar      10 UNK        -0.0712 
     12 C12        19.4365  -31.1313  -45.3638 C.ar      10 UNK        -0.0894 
     13 C13        19.1958  -29.8007  -45.7302 C.ar      10 UNK        -0.0745 
     14 C14        18.1647  -29.1017  -45.0872 C.ar      10 UNK        -0.0972 
     15 C15        20.0422  -29.1711  -46.8419 C.3       10 UNK         0.0209 
     16 S16        20.0228  -27.3388  -46.8937 S.3       10 UNK        -0.2568 
     17 C17        21.7521  -26.8536  -46.5320 C.3       10 UNK        -0.0983 
     18 CA         21.9691  -26.1366  -45.1693 C.3       3 UNK         0.0876 
     19 N          20.9361  -25.1414  -44.8768 N.am      3 UNK        -0.4424 
     20 C          21.0608  -24.1329  -44.0035 C.2       2 UNK         0.4918 
     21 O          22.0838  -23.9010  -43.3593 O.2       2 UNK        -0.4875 
     22 CA         19.8386  -23.2166  -43.8290 C.3       2 UNK         0.0481 
     23 CB         19.8574  -22.0887  -44.8727 C.3       2 UNK        -0.1831 
     24 N          18.5728  -23.9456  -43.9259 N.am      2 UNK        -0.4498 
     25 C          18.0513  -24.7121  -42.9587 C.2       1 UNK         0.5027 
     26 O          18.5736  -24.8486  -41.8512 O.2       1 UNK        -0.4969 
     27 C          22.1428  -27.1264  -44.0052 C.2       3 UNK         0.5005 
     28 O          23.2378  -27.2272  -43.4471 O.2       3 UNK        -0.5279 
     29 N          21.0665  -27.8639  -43.6899 N.am      4 UNK        -0.4463 
     30 CA         20.9585  -28.8955  -42.6464 C.3       4 UNK         0.0283 
     31 CB         20.9178  -28.2309  -41.2555 C.3       4 UNK        -0.1875 
     32 C          22.0281  -30.0062  -42.7320 C.2       4 UNK         0.4949 
     33 O          22.3429  -30.6172  -41.7119 O.2       4 UNK        -0.5039 
     34 N          22.6064  -30.2057  -43.9279 N.am      5 UNK        -0.4663 
     35 CA         23.7863  -31.0304  -44.2233 C.3       5 UNK         0.0242 
     36 CB         23.4262  -32.5274  -44.1718 C.3       5 UNK        -0.1982 
     37 C          25.0031  -30.6725  -43.3422 C.2       5 UNK         0.5017 
     38 O          25.6836  -31.5691  -42.8435 O.2       5 UNK        -0.5012 
     39 N          25.2261  -29.3637  -43.1360 N.am      6 UNK        -0.4439 
     40 CA         26.2187  -28.7714  -42.2287 C.3       6 UNK         0.0297 
     41 CB         27.6615  -29.1037  -42.6673 C.3       6 UNK        -0.2006 
     42 C          25.9279  -29.1227  -40.7560 C.2       6 UNK         0.4892 
     43 O          26.8350  -29.5012  -40.0137 O.2       6 UNK        -0.5089 
     44 N          24.6451  -28.9993  -40.3856 N.am      7 UNK        -0.4243 
     45 CA         24.0323  -29.2850  -39.0816 C.3       7 UNK         0.0196 
     46 CB         24.6829  -28.4558  -37.9542 C.3       7 UNK        -0.2007 
     47 C          23.9322  -30.7808  -38.7217 C.2       7 UNK         0.5020 
     48 O          23.4706  -31.0941  -37.6234 O.2       7 UNK        -0.5147 
     49 N          24.3038  -31.6881  -39.6368 N.am      8 UNK        -0.4734 
     50 CA         24.1803  -33.1390  -39.4566 C.3       8 UNK         0.0238 
     51 CB         24.9765  -33.8692  -40.5485 C.3       8 UNK        -0.1912 
     52 C          22.7212  -33.6305  -39.4234 C.2       8 UNK         0.5038 
     53 O          22.4488  -34.6380  -38.7689 O.2       8 UNK        -0.5046 
     54 N          21.8133  -32.9094  -40.0954 N.am      9 UNK        -0.4200 
     55 CA         20.3591  -33.1337  -40.0416 C.3       9 UNK         0.0839 
     56 C          19.6819  -32.5580  -38.7621 C.2       9 UNK         0.5513 
     57 N          20.3897  -31.8736  -37.8695 N.am      9 UNK        -0.7519 
     58 O          18.4839  -32.7470  -38.5681 O.2       9 UNK        -0.4960 
     59 C59        19.6419  -32.6375  -41.3263 C.3       10 UNK        -0.0876 
     60 S60        20.2828  -33.4329  -42.8381 S.3       10 UNK        -0.2414 
     61 C61        18.9083  -33.2124  -44.0074 C.3       10 UNK         0.0169 
     62 H62        13.7947  -23.1915  -45.9020 H         1 UNK         0.0903 
     63 H63        13.8081  -22.7679  -44.1890 H         1 UNK         0.0903 
     64 H64        14.8215  -21.8758  -45.3259 H         1 UNK         0.0903 
     65 H65        15.0218  -24.1832  -42.9507 H         1 UNK         0.3096 
     66 H66        16.9029  -26.0317  -44.1638 H         1 UNK         0.1121 
     67 H67        16.1883  -25.8373  -41.1990 H         1 UNK         0.0849 
     68 H68        15.1357  -26.6035  -42.3502 H         1 UNK         0.0849 
     69 H69        15.6058  -29.5595  -42.8958 H         1 UNK         0.0865 
     70 H70        15.8197  -28.2708  -44.0543 H         1 UNK         0.0865 
     71 H71        17.0904  -31.4957  -42.9346 H         1 UNK         0.1346 
     72 H72        20.2148  -31.6940  -45.8614 H         1 UNK         0.1412 
     73 H73        17.9369  -28.0820  -45.3610 H         1 UNK         0.1426 
     74 H74        19.6651  -29.5362  -47.7981 H         1 UNK         0.0716 
     75 H75        21.0691  -29.5296  -46.7677 H         1 UNK         0.0716 
     76 H76        22.0449  -26.1677  -47.3284 H         1 UNK         0.0695 
     77 H77        22.4235  -27.7070  -46.6416 H         1 UNK         0.0695 
     78 H78        22.9179  -25.5999  -45.2472 H         1 UNK         0.0983 
     79 H79        20.0644  -25.2511  -45.3739 H         1 UNK         0.3095 
     80 H80        19.9012  -22.7597  -42.8390 H         1 UNK         0.0454 
     81 H81        20.7837  -21.5158  -44.8110 H         1 UNK         0.0851 
     82 H82        19.0355  -21.3900  -44.7158 H         1 UNK         0.0851 
     83 H83        19.7797  -22.4745  -45.8900 H         1 UNK         0.0851 
     84 H84        18.0414  -23.8576  -44.7880 H         1 UNK         0.2976 
     85 H85        20.2333  -27.7287  -44.2462 H         1 UNK         0.3116 
     86 H86        20.0014  -29.3931  -42.7980 H         1 UNK         0.0646 
     87 H87        21.8544  -27.7253  -41.0216 H         1 UNK         0.0847 
     88 H88        20.1193  -27.4909  -41.1973 H         1 UNK         0.0847 
     89 H89        20.7304  -28.9649  -40.4707 H         1 UNK         0.0847 
     90 H90        22.2623  -29.6471  -44.6941 H         1 UNK         0.3040 
     91 H91        24.0816  -30.7995  -45.2480 H         1 UNK         0.1015 
     92 H92        24.2701  -33.1483  -44.4746 H         1 UNK         0.0786 
     93 H93        22.5975  -32.7584  -44.8408 H         1 UNK         0.0786 
     94 H94        23.1393  -32.8331  -43.1665 H         1 UNK         0.0786 
     95 H95        24.5610  -28.7007  -43.5269 H         1 UNK         0.3172 
     96 H96        26.0946  -27.6905  -42.3120 H         1 UNK         0.0595 
     97 H97        27.8919  -30.1628  -42.5492 H         1 UNK         0.0839 
     98 H98        28.3855  -28.5490  -42.0693 H         1 UNK         0.0839 
     99 H99        27.8311  -28.8369  -43.7103 H         1 UNK         0.0839 
    100 H100       23.9905  -28.7322  -41.1084 H         1 UNK         0.2998 
    101 H101       22.9994  -28.9472  -39.1699 H         1 UNK         0.0822 
    102 H102       24.1140  -28.5425  -37.0277 H         1 UNK         0.0787 
    103 H103       24.7210  -27.3971  -38.2105 H         1 UNK         0.0787 
    104 H104       25.6987  -28.7877  -37.7388 H         1 UNK         0.0787 
    105 H105       24.6306  -31.3619  -40.5370 H         1 UNK         0.3055 
    106 H106       24.6250  -33.3905  -38.4911 H         1 UNK         0.1106 
    107 H107       26.0205  -33.5555  -40.5577 H         1 UNK         0.0828 
    108 H108       24.9623  -34.9476  -40.3855 H         1 UNK         0.0828 
    109 H109       24.5642  -33.6861  -41.5398 H         1 UNK         0.0828 
    110 H110       22.1178  -32.0949  -40.6249 H         1 UNK         0.2931 
    111 H111       20.1975  -34.2122  -39.9915 H         1 UNK         0.0412 
    112 H112       19.9277  -31.5174  -37.0478 H         1 UNK         0.3472 
    113 H113       21.3838  -31.7302  -37.9875 H         1 UNK         0.3472 
    114 H114       18.5720  -32.8443  -41.2636 H         1 UNK         0.0970 
    115 H115       19.7375  -31.5558  -41.4274 H         1 UNK         0.0970 
    116 H116       19.1302  -33.7767  -44.9143 H         1 UNK         0.0612 
    117 H117       18.0033  -33.6561  -43.5894 H         1 UNK         0.0612 
@<TRIPOS>BOND
     1    1    2 1    
     2    1   62 1    
     3    1   63 1    
     4    1   64 1    
     5    2    3 2    
     6    2    4 am   BACKBONE|DICT|INTERRES
     7    4    5 1    
     8    4   65 1    
     9    5    6 1    
    10    5   25 1    
    11    5   66 1    
    12    6    7 1    
    13    6   67 1    
    14    6   68 1    
    15    7    8 1    
    16    8    9 1    
    17    8   69 1    
    18    8   70 1    
    19    9   10 ar   
    20    9   14 ar   
    21   10   11 ar   
    22   10   71 1    
    23   11   12 ar   
    24   11   61 1    
    25   12   13 ar   
    26   12   72 1    
    27   13   14 ar   
    28   13   15 1    
    29   14   73 1    
    30   15   16 1    
    31   15   74 1    
    32   15   75 1    
    33   16   17 1    
    34   17   18 1    
    35   17   76 1    
    36   17   77 1    
    37   18   19 1    
    38   18   27 1    
    39   18   78 1    
    40   19   20 am   BACKBONE|DICT|INTERRES
    41   19   79 1    
    42   20   21 2    
    43   20   22 1    
    44   22   23 1    
    45   22   24 1    
    46   22   80 1    
    47   23   81 1    
    48   23   82 1    
    49   23   83 1    
    50   24   25 am   BACKBONE|DICT|INTERRES
    51   24   84 1    
    52   25   26 2    
    53   27   28 2    
    54   27   29 am   BACKBONE|DICT|INTERRES
    55   29   30 1    
    56   29   85 1    
    57   30   31 1    
    58   30   32 1    
    59   30   86 1    
    60   31   87 1    
    61   31   88 1    
    62   31   89 1    
    63   32   33 2    
    64   32   34 am   BACKBONE|DICT|INTERRES
    65   34   35 1    
    66   34   90 1    
    67   35   36 1    
    68   35   37 1    
    69   35   91 1    
    70   36   92 1    
    71   36   93 1    
    72   36   94 1    
    73   37   38 2    
    74   37   39 am   BACKBONE|DICT|INTERRES
    75   39   40 1    
    76   39   95 1    
    77   40   41 1    
    78   40   42 1    
    79   40   96 1    
    80   41   97 1    
    81   41   98 1    
    82   41   99 1    
    83   42   43 2    
    84   42   44 am   BACKBONE|DICT|INTERRES
    85   44   45 1    
    86   44  100 1    
    87   45   46 1    
    88   45   47 1    
    89   45  101 1    
    90   46  102 1    
    91   46  103 1    
    92   46  104 1    
    93   47   48 2    
    94   47   49 am   BACKBONE|DICT|INTERRES
    95   49   50 1    
    96   49  105 1    
    97   50   51 1    
    98   50   52 1    
    99   50  106 1    
   100   51  107 1    
   101   51  108 1    
   102   51  109 1    
   103   52   53 2    
   104   52   54 am   BACKBONE|DICT|INTERRES
   105   54   55 1    
   106   54  110 1    
   107   55   56 1    
   108   55   59 1    
   109   55  111 1    
   110   56   57 am   BACKBONE|DICT|INTERRES
   111   56   58 2    
   112   57  112 1    
   113   57  113 1    
   114   59   60 1    
   115   59  114 1    
   116   59  115 1    
   117   60   61 1    
   118   61  116 1    
   119   61  117 1    
@<TRIPOS>SUBSTRUCTURE
     1 UNK         1 GROUP             0       ****    0 ROOT    
