@<TRIPOS>MOLECULE
3R8
117   119    1
SMALL
USER_CHARGES


@<TRIPOS>ATOM
      1 CA         19.6286  -23.4740  -50.0883 C.3       0 UNK        -0.2013 
      2 C          20.1995  -24.4154  -49.0383 C.2       0 UNK         0.4866 
      3 O          21.1384  -25.1583  -49.3261 O.2       0 UNK        -0.5176 
      4 N          19.6449  -24.3873  -47.8237 N.am      1 UNK        -0.4884 
      5 CA         20.0552  -25.2027  -46.6815 C.3       1 UNK         0.0853 
      6 C6         19.5766  -26.6801  -46.7844 C.3       10 UNK        -0.0849 
      7 S7         17.7611  -26.8745  -46.8779 S.3       10 UNK        -0.2776 
      8 C8         17.6057  -28.6749  -47.0805 C.3       10 UNK         0.0316 
      9 C9         17.8155  -29.4250  -45.7717 C.ar      10 UNK        -0.0863 
     10 C10        19.0193  -30.0902  -45.5200 C.ar      10 UNK        -0.1009 
     11 C11        19.1915  -30.8468  -44.3556 C.ar      10 UNK        -0.0712 
     12 C12        18.1407  -30.9129  -43.4300 C.ar      10 UNK        -0.0894 
     13 C13        16.9347  -30.2438  -43.6625 C.ar      10 UNK        -0.0745 
     14 C14        16.7808  -29.4984  -44.8347 C.ar      10 UNK        -0.0972 
     15 C15        15.7752  -30.3731  -42.6798 C.3       10 UNK         0.0209 
     16 S16        16.2065  -29.8601  -40.9848 S.3       10 UNK        -0.2568 
     17 C17        16.5198  -28.0758  -41.1973 C.3       10 UNK        -0.0983 
     18 CA         18.0327  -27.7528  -41.2240 C.3       3 UNK         0.0876 
     19 N          18.2964  -26.4617  -41.8652 N.am      3 UNK        -0.4424 
     20 C          19.5184  -25.9924  -42.1419 C.2       2 UNK         0.4918 
     21 O          20.5629  -26.5878  -41.8716 O.2       2 UNK        -0.4875 
     22 CA         19.5945  -24.6742  -42.9121 C.3       2 UNK         0.0481 
     23 CB         20.5746  -23.6811  -42.2649 C.3       2 UNK        -0.1831 
     24 N          20.0523  -25.0238  -44.2493 N.am      2 UNK        -0.4498 
     25 C          19.5767  -24.5163  -45.3893 C.2       1 UNK         0.5027 
     26 O          18.7813  -23.5726  -45.4472 O.2       1 UNK        -0.4969 
     27 C          18.6725  -27.8305  -39.8207 C.2       3 UNK         0.5005 
     28 O          18.6318  -26.8477  -39.0767 O.2       3 UNK        -0.5279 
     29 N          19.2927  -28.9796  -39.5174 N.am      4 UNK        -0.4463 
     30 CA         20.0790  -29.3165  -38.3200 C.3       4 UNK         0.0283 
     31 CB         19.2483  -29.1665  -37.0302 C.3       4 UNK        -0.1875 
     32 C          21.4325  -28.5855  -38.1992 C.2       4 UNK         0.4949 
     33 O          22.3344  -29.1196  -37.5527 O.2       4 UNK        -0.5039 
     34 N          21.5715  -27.4041  -38.8132 N.am      5 UNK        -0.4663 
     35 CA         22.8165  -26.6385  -38.8721 C.3       5 UNK         0.0242 
     36 CB         22.4923  -25.1484  -39.0623 C.3       5 UNK        -0.1982 
     37 C          23.7457  -27.1455  -39.9859 C.2       5 UNK         0.5017 
     38 O          24.9457  -27.2915  -39.7494 O.2       5 UNK        -0.5012 
     39 N          23.1822  -27.3975  -41.1757 N.am      6 UNK        -0.4439 
     40 CA         23.8905  -27.9347  -42.3369 C.3       6 UNK         0.0297 
     41 CB         23.0257  -27.7472  -43.5944 C.3       6 UNK        -0.2006 
     42 C          24.2316  -29.4188  -42.1459 C.2       6 UNK         0.4892 
     43 O          23.3984  -30.1807  -41.6499 O.2       6 UNK        -0.5089 
     44 N          25.4366  -29.8088  -42.5756 N.am      7 UNK        -0.4243 
     45 CA         25.8890  -31.1996  -42.5929 C.3       7 UNK         0.0196 
     46 CB         27.4151  -31.2235  -42.7827 C.3       7 UNK        -0.2007 
     47 C          25.1916  -31.9917  -43.7199 C.2       7 UNK         0.5020 
     48 O          24.8841  -31.4053  -44.7575 O.2       7 UNK        -0.5147 
     49 N          24.9626  -33.3040  -43.5743 N.am      8 UNK        -0.4734 
     50 CA         25.2429  -34.1492  -42.4053 C.3       8 UNK         0.0238 
     51 CB         25.4699  -35.5893  -42.8980 C.3       8 UNK        -0.1912 
     52 C          24.1260  -34.1179  -41.3419 C.2       8 UNK         0.5038 
     53 O          24.2696  -34.7787  -40.3126 O.2       8 UNK        -0.5046 
     54 N          23.0338  -33.3926  -41.6158 N.am      9 UNK        -0.4200 
     55 CA         21.8281  -33.3080  -40.7769 C.3       9 UNK         0.0839 
     56 C          22.0745  -32.6943  -39.3727 C.2       9 UNK         0.5513 
     57 N          22.8689  -31.6380  -39.2733 N.am      9 UNK        -0.7519 
     58 O          21.5292  -33.1692  -38.3803 O.2       9 UNK        -0.4960 
     59 C59        20.6691  -32.5594  -41.4885 C.3       10 UNK        -0.0876 
     60 S60        20.3771  -33.1413  -43.1971 S.3       10 UNK        -0.2414 
     61 C61        20.5165  -31.5839  -44.1450 C.3       10 UNK         0.0169 
     62 H62        20.4007  -22.7898  -50.4391 H         1 UNK         0.0903 
     63 H63        19.2630  -24.0431  -50.9427 H         1 UNK         0.0903 
     64 H64        18.8016  -22.8812  -49.6975 H         1 UNK         0.0903 
     65 H65        18.9005  -23.7359  -47.6027 H         1 UNK         0.3096 
     66 H66        21.1473  -25.1958  -46.6465 H         1 UNK         0.1121 
     67 H67        19.9461  -27.2628  -45.9389 H         1 UNK         0.0849 
     68 H68        20.0159  -27.1430  -47.6693 H         1 UNK         0.0849 
     69 H69        18.3035  -29.0211  -47.8447 H         1 UNK         0.0865 
     70 H70        16.6089  -28.8974  -47.4645 H         1 UNK         0.0865 
     71 H71        19.8187  -30.0378  -46.2467 H         1 UNK         0.1346 
     72 H72        18.2436  -31.4969  -42.5276 H         1 UNK         0.1412 
     73 H73        15.8463  -28.9912  -45.0334 H         1 UNK         0.1426 
     74 H74        15.4550  -31.4156  -42.6562 H         1 UNK         0.0716 
     75 H75        14.9109  -29.7971  -43.0144 H         1 UNK         0.0716 
     76 H76        16.0125  -27.5261  -40.4019 H         1 UNK         0.0695 
     77 H77        16.0480  -27.7551  -42.1276 H         1 UNK         0.0695 
     78 H78        18.5261  -28.4915  -41.8598 H         1 UNK         0.0983 
     79 H79        17.4897  -25.9079  -42.1118 H         1 UNK         0.3095 
     80 H80        18.6005  -24.2227  -42.9468 H         1 UNK         0.0454 
     81 H81        21.5921  -24.0730  -42.2390 H         1 UNK         0.0851 
     82 H82        20.2808  -23.4555  -41.2392 H         1 UNK         0.0851 
     83 H83        20.5963  -22.7383  -42.8114 H         1 UNK         0.0851 
     84 H84        20.6814  -25.8144  -44.2827 H         1 UNK         0.2976 
     85 H85        19.2638  -29.7107  -40.2136 H         1 UNK         0.3116 
     86 H86        20.3167  -30.3757  -38.4247 H         1 UNK         0.0646 
     87 H87        19.0108  -28.1247  -36.8141 H         1 UNK         0.0847 
     88 H88        19.7963  -29.5549  -36.1708 H         1 UNK         0.0847 
     89 H89        18.3115  -29.7197  -37.0939 H         1 UNK         0.0847 
     90 H90        20.7644  -27.0181  -39.2882 H         1 UNK         0.3040 
     91 H91        23.3460  -26.7487  -37.9228 H         1 UNK         0.1015 
     92 H92        21.9329  -24.9716  -39.9802 H         1 UNK         0.0786 
     93 H93        23.4049  -24.5530  -39.1147 H         1 UNK         0.0786 
     94 H94        21.9007  -24.7634  -38.2315 H         1 UNK         0.0786 
     95 H95        22.1848  -27.2330  -41.2926 H         1 UNK         0.3172 
     96 H96        24.8151  -27.3679  -42.4658 H         1 UNK         0.0595 
     97 H97        23.5353  -28.1281  -44.4806 H         1 UNK         0.0839 
     98 H98        22.8094  -26.6938  -43.7708 H         1 UNK         0.0839 
     99 H99        22.0762  -28.2786  -43.5120 H         1 UNK         0.0839 
    100 H100       26.0435  -29.1299  -43.0114 H         1 UNK         0.2998 
    101 H101       25.6467  -31.6283  -41.6198 H         1 UNK         0.0822 
    102 H102       27.7983  -32.2445  -42.7804 H         1 UNK         0.0787 
    103 H103       27.7105  -30.7701  -43.7299 H         1 UNK         0.0787 
    104 H104       27.9231  -30.6869  -41.9810 H         1 UNK         0.0787 
    105 H105       24.5199  -33.7809  -44.3471 H         1 UNK         0.3055 
    106 H106       26.1645  -33.8259  -41.9191 H         1 UNK         0.1106 
    107 H107       25.7336  -36.2513  -42.0718 H         1 UNK         0.0828 
    108 H108       24.5776  -36.0008  -43.3715 H         1 UNK         0.0828 
    109 H109       26.2863  -35.6387  -43.6189 H         1 UNK         0.0828 
    110 H110       23.0043  -32.8711  -42.4788 H         1 UNK         0.2931 
    111 H111       21.4970  -34.3364  -40.6186 H         1 UNK         0.0412 
    112 H112       23.0074  -31.1944  -38.3775 H         1 UNK         0.3472 
    113 H113       23.2183  -31.1909  -40.1178 H         1 UNK         0.3472 
    114 H114       20.8646  -31.4854  -41.4986 H         1 UNK         0.0970 
    115 H115       19.7429  -32.6895  -40.9257 H         1 UNK         0.0970 
    116 H116       20.9402  -31.8422  -45.1167 H         1 UNK         0.0612 
    117 H117       21.2365  -30.9129  -43.6745 H         1 UNK         0.0612 
@<TRIPOS>BOND
     1    1    2 1    
     2    1   62 1    
     3    1   63 1    
     4    1   64 1    
     5    2    3 2    
     6    2    4 am   BACKBONE|DICT|INTERRES
     7    4    5 1    
     8    4   65 1    
     9    5    6 1    
    10    5   25 1    
    11    5   66 1    
    12    6    7 1    
    13    6   67 1    
    14    6   68 1    
    15    7    8 1    
    16    8    9 1    
    17    8   69 1    
    18    8   70 1    
    19    9   10 ar   
    20    9   14 ar   
    21   10   11 ar   
    22   10   71 1    
    23   11   12 ar   
    24   11   61 1    
    25   12   13 ar   
    26   12   72 1    
    27   13   14 ar   
    28   13   15 1    
    29   14   73 1    
    30   15   16 1    
    31   15   74 1    
    32   15   75 1    
    33   16   17 1    
    34   17   18 1    
    35   17   76 1    
    36   17   77 1    
    37   18   19 1    
    38   18   27 1    
    39   18   78 1    
    40   19   20 am   BACKBONE|DICT|INTERRES
    41   19   79 1    
    42   20   21 2    
    43   20   22 1    
    44   22   23 1    
    45   22   24 1    
    46   22   80 1    
    47   23   81 1    
    48   23   82 1    
    49   23   83 1    
    50   24   25 am   BACKBONE|DICT|INTERRES
    51   24   84 1    
    52   25   26 2    
    53   27   28 2    
    54   27   29 am   BACKBONE|DICT|INTERRES
    55   29   30 1    
    56   29   85 1    
    57   30   31 1    
    58   30   32 1    
    59   30   86 1    
    60   31   87 1    
    61   31   88 1    
    62   31   89 1    
    63   32   33 2    
    64   32   34 am   BACKBONE|DICT|INTERRES
    65   34   35 1    
    66   34   90 1    
    67   35   36 1    
    68   35   37 1    
    69   35   91 1    
    70   36   92 1    
    71   36   93 1    
    72   36   94 1    
    73   37   38 2    
    74   37   39 am   BACKBONE|DICT|INTERRES
    75   39   40 1    
    76   39   95 1    
    77   40   41 1    
    78   40   42 1    
    79   40   96 1    
    80   41   97 1    
    81   41   98 1    
    82   41   99 1    
    83   42   43 2    
    84   42   44 am   BACKBONE|DICT|INTERRES
    85   44   45 1    
    86   44  100 1    
    87   45   46 1    
    88   45   47 1    
    89   45  101 1    
    90   46  102 1    
    91   46  103 1    
    92   46  104 1    
    93   47   48 2    
    94   47   49 am   BACKBONE|DICT|INTERRES
    95   49   50 1    
    96   49  105 1    
    97   50   51 1    
    98   50   52 1    
    99   50  106 1    
   100   51  107 1    
   101   51  108 1    
   102   51  109 1    
   103   52   53 2    
   104   52   54 am   BACKBONE|DICT|INTERRES
   105   54   55 1    
   106   54  110 1    
   107   55   56 1    
   108   55   59 1    
   109   55  111 1    
   110   56   57 am   BACKBONE|DICT|INTERRES
   111   56   58 2    
   112   57  112 1    
   113   57  113 1    
   114   59   60 1    
   115   59  114 1    
   116   59  115 1    
   117   60   61 1    
   118   61  116 1    
   119   61  117 1    
@<TRIPOS>SUBSTRUCTURE
     1 UNK         1 GROUP             0       ****    0 ROOT    
