@<TRIPOS>MOLECULE
3R8
117   119    1
SMALL
USER_CHARGES


@<TRIPOS>ATOM
      1 CA         13.0684  -24.2243  -44.6503 C.3       0 UNK        -0.2013 
      2 C          14.4639  -24.3224  -45.2487 C.2       0 UNK         0.4866 
      3 O          14.9388  -23.3615  -45.8556 O.2       0 UNK        -0.5176 
      4 N          15.1200  -25.4786  -45.0913 N.am      1 UNK        -0.4884 
      5 CA         16.4878  -25.7333  -45.5559 C.3       1 UNK         0.0853 
      6 C6         16.8173  -27.2437  -45.5552 C.3       10 UNK        -0.0849 
      7 S7         15.9022  -28.1511  -46.8487 S.3       10 UNK        -0.2776 
      8 C8         15.6960  -29.8081  -46.0997 C.3       10 UNK         0.0316 
      9 C9         16.9631  -30.3693  -45.4553 C.ar      10 UNK        -0.0863 
     10 C10        16.8728  -31.0408  -44.2306 C.ar      10 UNK        -0.1009 
     11 C11        18.0225  -31.5142  -43.5917 C.ar      10 UNK        -0.0712 
     12 C12        19.2706  -31.3062  -44.1832 C.ar      10 UNK        -0.0894 
     13 C13        19.3773  -30.6426  -45.4079 C.ar      10 UNK        -0.0745 
     14 C14        18.2189  -30.2047  -46.0536 C.ar      10 UNK        -0.0972 
     15 C15        20.7463  -30.3635  -46.0120 C.3       10 UNK         0.0209 
     16 S16        21.2501  -28.6233  -45.7931 S.3       10 UNK        -0.2568 
     17 C17        21.2178  -28.4460  -43.9754 C.3       10 UNK        -0.0983 
     18 CA         21.5315  -27.0065  -43.4960 C.3       3 UNK         0.0876 
     19 N          20.6502  -26.0141  -44.1216 N.am      3 UNK        -0.4424 
     20 C          20.7494  -24.6835  -43.9927 C.2       2 UNK         0.4918 
     21 O          21.6241  -24.1263  -43.3284 O.2       2 UNK        -0.4875 
     22 CA         19.7323  -23.8105  -44.7548 C.3       2 UNK         0.0481 
     23 CB         20.4407  -23.0067  -45.8586 C.3       2 UNK        -0.1831 
     24 N          18.6290  -24.5651  -45.3591 N.am      2 UNK        -0.4498 
     25 C          17.5236  -24.9602  -44.7124 C.2       1 UNK         0.5027 
     26 O          17.3240  -24.7674  -43.5104 O.2       1 UNK        -0.4969 
     27 C          21.4415  -26.9229  -41.9577 C.2       3 UNK         0.5005 
     28 O          20.3465  -27.0603  -41.4059 O.2       3 UNK        -0.5279 
     29 N          22.5814  -26.7007  -41.2980 N.am      4 UNK        -0.4463 
     30 CA         22.7194  -26.5836  -39.8505 C.3       4 UNK         0.0283 
     31 CB         22.2340  -25.2063  -39.3620 C.3       4 UNK        -0.1875 
     32 C          24.1980  -26.7950  -39.5284 C.2       4 UNK         0.4949 
     33 O          25.0457  -26.1901  -40.1901 O.2       4 UNK        -0.5039 
     34 N          24.4779  -27.6659  -38.5490 N.am      5 UNK        -0.4663 
     35 CA         25.7900  -28.2184  -38.1786 C.3       5 UNK         0.0242 
     36 CB         26.7499  -27.1293  -37.6553 C.3       5 UNK        -0.1982 
     37 C          26.4133  -29.0516  -39.3140 C.2       5 UNK         0.5017 
     38 O          26.5019  -30.2738  -39.1933 O.2       5 UNK        -0.5012 
     39 N          26.7869  -28.3819  -40.4098 N.am      6 UNK        -0.4439 
     40 CA         27.1912  -28.9943  -41.6707 C.3       6 UNK         0.0297 
     41 CB         27.9571  -27.9632  -42.5145 C.3       6 UNK        -0.2006 
     42 C          25.9477  -29.4953  -42.4198 C.2       6 UNK         0.4892 
     43 O          24.9843  -28.7388  -42.5693 O.2       6 UNK        -0.5089 
     44 N          26.0020  -30.7593  -42.8629 N.am      7 UNK        -0.4243 
     45 CA         24.9601  -31.4940  -43.5967 C.3       7 UNK         0.0196 
     46 CB         24.7155  -30.8544  -44.9813 C.3       7 UNK        -0.2007 
     47 C          23.6436  -31.6982  -42.8162 C.2       7 UNK         0.5020 
     48 O          22.6290  -32.0240  -43.4302 O.2       7 UNK        -0.5147 
     49 N          23.6653  -31.5116  -41.4894 N.am      8 UNK        -0.4734 
     50 CA         22.4983  -31.6337  -40.6140 C.3       8 UNK         0.0238 
     51 CB         22.8479  -31.0524  -39.2355 C.3       8 UNK        -0.1912 
     52 C          22.0060  -33.0861  -40.4858 C.2       8 UNK         0.5038 
     53 O          22.8153  -34.0165  -40.5236 O.2       8 UNK        -0.5046 
     54 N          20.6894  -33.2394  -40.3050 N.am      9 UNK        -0.4200 
     55 CA         20.0000  -34.5335  -40.1644 C.3       9 UNK         0.0839 
     56 C          20.1136  -35.1731  -38.7493 C.2       9 UNK         0.5513 
     57 N          20.6646  -34.4952  -37.7493 N.am      9 UNK        -0.7519 
     58 O          19.6986  -36.3132  -38.5573 O.2       9 UNK        -0.4960 
     59 C59        18.5181  -34.4423  -40.6216 C.3       10 UNK        -0.0876 
     60 S60        18.3547  -33.9778  -42.3797 S.3       10 UNK        -0.2414 
     61 C61        17.9324  -32.2130  -42.2438 C.3       10 UNK         0.0169 
     62 H62        13.0320  -23.4216  -43.9142 H         1 UNK         0.0903 
     63 H63        12.3400  -24.0049  -45.4306 H         1 UNK         0.0903 
     64 H64        12.7693  -25.1496  -44.1580 H         1 UNK         0.0903 
     65 H65        14.6873  -26.2305  -44.5744 H         1 UNK         0.3096 
     66 H66        16.5601  -25.3652  -46.5824 H         1 UNK         0.1121 
     67 H67        17.8800  -27.4090  -45.7432 H         1 UNK         0.0849 
     68 H68        16.6111  -27.6802  -44.5757 H         1 UNK         0.0849 
     69 H69        15.3542  -30.5027  -46.8680 H         1 UNK         0.0865 
     70 H70        14.8934  -29.7460  -45.3630 H         1 UNK         0.0865 
     71 H71        15.9073  -31.1813  -43.7638 H         1 UNK         0.1346 
     72 H72        20.1611  -31.6508  -43.6776 H         1 UNK         0.1412 
     73 H73        18.3039  -29.6885  -47.0001 H         1 UNK         0.1426 
     74 H74        21.5030  -31.0140  -45.5734 H         1 UNK         0.0716 
     75 H75        20.7276  -30.5950  -47.0778 H         1 UNK         0.0716 
     76 H76        21.9328  -29.1536  -43.5508 H         1 UNK         0.0695 
     77 H77        20.2322  -28.7467  -43.6165 H         1 UNK         0.0695 
     78 H78        22.5535  -26.7668  -43.7986 H         1 UNK         0.0983 
     79 H79        19.9068  -26.3870  -44.6900 H         1 UNK         0.3095 
     80 H80        19.3176  -23.0991  -44.0374 H         1 UNK         0.0454 
     81 H81        20.8896  -23.6582  -46.6093 H         1 UNK         0.0851 
     82 H82        19.7497  -22.3335  -46.3661 H         1 UNK         0.0851 
     83 H83        21.2400  -22.3910  -45.4437 H         1 UNK         0.0851 
     84 H84        18.7192  -24.7724  -46.3443 H         1 UNK         0.2976 
     85 H85        23.4578  -26.6402  -41.8047 H         1 UNK         0.3116 
     86 H86        22.1280  -27.3679  -39.3729 H         1 UNK         0.0646 
     87 H87        21.1733  -25.0606  -39.5664 H         1 UNK         0.0847 
     88 H88        22.7808  -24.3943  -39.8434 H         1 UNK         0.0847 
     89 H89        22.3735  -25.1025  -38.2853 H         1 UNK         0.0847 
     90 H90        23.6956  -28.0850  -38.0647 H         1 UNK         0.3040 
     91 H91        25.6058  -28.9089  -37.3533 H         1 UNK         0.1015 
     92 H92        27.6942  -27.5692  -37.3317 H         1 UNK         0.0786 
     93 H93        26.3242  -26.6110  -36.7961 H         1 UNK         0.0786 
     94 H94        26.9863  -26.3794  -38.4103 H         1 UNK         0.0786 
     95 H95        26.5142  -27.4032  -40.4487 H         1 UNK         0.3172 
     96 H96        27.8583  -29.8329  -41.4589 H         1 UNK         0.0595 
     97 H97        27.3393  -27.0953  -42.7502 H         1 UNK         0.0839 
     98 H98        28.2827  -28.3981  -43.4604 H         1 UNK         0.0839 
     99 H99        28.8484  -27.6093  -41.9961 H         1 UNK         0.0839 
    100 H100       26.8397  -31.2900  -42.6648 H         1 UNK         0.2998 
    101 H101       25.3606  -32.4949  -43.7644 H         1 UNK         0.0822 
    102 H102       25.6488  -30.7151  -45.5265 H         1 UNK         0.0787 
    103 H103       24.0744  -31.4856  -45.5977 H         1 UNK         0.0787 
    104 H104       24.2263  -29.8831  -44.8978 H         1 UNK         0.0787 
    105 H105       24.5456  -31.2827  -41.0508 H         1 UNK         0.3055 
    106 H106       21.6962  -31.0340  -41.0513 H         1 UNK         0.1106 
    107 H107       23.1405  -30.0070  -39.3177 H         1 UNK         0.0828 
    108 H108       21.9936  -31.0959  -38.5588 H         1 UNK         0.0828 
    109 H109       23.6687  -31.5951  -38.7641 H         1 UNK         0.0828 
    110 H110       20.1028  -32.4217  -40.2455 H         1 UNK         0.2931 
    111 H111       20.4953  -35.2378  -40.8362 H         1 UNK         0.0412 
    112 H112       20.7338  -34.9263  -36.8405 H         1 UNK         0.3472 
    113 H113       21.0167  -33.5631  -37.8936 H         1 UNK         0.3472 
    114 H114       17.9599  -33.7437  -39.9956 H         1 UNK         0.0970 
    115 H115       18.0237  -35.4085  -40.5025 H         1 UNK         0.0970 
    116 H116       18.6121  -31.7214  -41.5476 H         1 UNK         0.0612 
    117 H117       16.9312  -32.1174  -41.8209 H         1 UNK         0.0612 
@<TRIPOS>BOND
     1    1    2 1    
     2    1   62 1    
     3    1   63 1    
     4    1   64 1    
     5    2    3 2    
     6    2    4 am   BACKBONE|DICT|INTERRES
     7    4    5 1    
     8    4   65 1    
     9    5    6 1    
    10    5   25 1    
    11    5   66 1    
    12    6    7 1    
    13    6   67 1    
    14    6   68 1    
    15    7    8 1    
    16    8    9 1    
    17    8   69 1    
    18    8   70 1    
    19    9   10 ar   
    20    9   14 ar   
    21   10   11 ar   
    22   10   71 1    
    23   11   12 ar   
    24   11   61 1    
    25   12   13 ar   
    26   12   72 1    
    27   13   14 ar   
    28   13   15 1    
    29   14   73 1    
    30   15   16 1    
    31   15   74 1    
    32   15   75 1    
    33   16   17 1    
    34   17   18 1    
    35   17   76 1    
    36   17   77 1    
    37   18   19 1    
    38   18   27 1    
    39   18   78 1    
    40   19   20 am   BACKBONE|DICT|INTERRES
    41   19   79 1    
    42   20   21 2    
    43   20   22 1    
    44   22   23 1    
    45   22   24 1    
    46   22   80 1    
    47   23   81 1    
    48   23   82 1    
    49   23   83 1    
    50   24   25 am   BACKBONE|DICT|INTERRES
    51   24   84 1    
    52   25   26 2    
    53   27   28 2    
    54   27   29 am   BACKBONE|DICT|INTERRES
    55   29   30 1    
    56   29   85 1    
    57   30   31 1    
    58   30   32 1    
    59   30   86 1    
    60   31   87 1    
    61   31   88 1    
    62   31   89 1    
    63   32   33 2    
    64   32   34 am   BACKBONE|DICT|INTERRES
    65   34   35 1    
    66   34   90 1    
    67   35   36 1    
    68   35   37 1    
    69   35   91 1    
    70   36   92 1    
    71   36   93 1    
    72   36   94 1    
    73   37   38 2    
    74   37   39 am   BACKBONE|DICT|INTERRES
    75   39   40 1    
    76   39   95 1    
    77   40   41 1    
    78   40   42 1    
    79   40   96 1    
    80   41   97 1    
    81   41   98 1    
    82   41   99 1    
    83   42   43 2    
    84   42   44 am   BACKBONE|DICT|INTERRES
    85   44   45 1    
    86   44  100 1    
    87   45   46 1    
    88   45   47 1    
    89   45  101 1    
    90   46  102 1    
    91   46  103 1    
    92   46  104 1    
    93   47   48 2    
    94   47   49 am   BACKBONE|DICT|INTERRES
    95   49   50 1    
    96   49  105 1    
    97   50   51 1    
    98   50   52 1    
    99   50  106 1    
   100   51  107 1    
   101   51  108 1    
   102   51  109 1    
   103   52   53 2    
   104   52   54 am   BACKBONE|DICT|INTERRES
   105   54   55 1    
   106   54  110 1    
   107   55   56 1    
   108   55   59 1    
   109   55  111 1    
   110   56   57 am   BACKBONE|DICT|INTERRES
   111   56   58 2    
   112   57  112 1    
   113   57  113 1    
   114   59   60 1    
   115   59  114 1    
   116   59  115 1    
   117   60   61 1    
   118   61  116 1    
   119   61  117 1    
@<TRIPOS>SUBSTRUCTURE
     1 UNK         1 GROUP             0       ****    0 ROOT    
