@<TRIPOS>MOLECULE
3R8
117   119    1
SMALL
USER_CHARGES


@<TRIPOS>ATOM
      1 CA         14.2404  -29.0372  -40.5461 C.3       0 UNK        -0.2013 
      2 C          14.6924  -27.8082  -41.3213 C.2       0 UNK         0.4866 
      3 O          14.0999  -26.7400  -41.1657 O.2       0 UNK        -0.5176 
      4 N          15.7305  -27.9571  -42.1517 N.am      1 UNK        -0.4884 
      5 CA         16.2797  -26.8951  -43.0048 C.3       1 UNK         0.0853 
      6 C6         16.3642  -27.2914  -44.5027 C.3       10 UNK        -0.0849 
      7 S7         14.9233  -28.1962  -45.1760 S.3       10 UNK        -0.2776 
      8 C8         15.4464  -29.9514  -45.0473 C.3       10 UNK         0.0316 
      9 C9         16.8685  -30.2235  -45.5378 C.ar      10 UNK        -0.0863 
     10 C10        17.7314  -31.0173  -44.7739 C.ar      10 UNK        -0.1009 
     11 C11        19.0594  -31.2101  -45.1677 C.ar      10 UNK        -0.0712 
     12 C12        19.5228  -30.6058  -46.3384 C.ar      10 UNK        -0.0894 
     13 C13        18.6720  -29.8124  -47.1131 C.ar      10 UNK        -0.0745 
     14 C14        17.3407  -29.6494  -46.7231 C.ar      10 UNK        -0.0972 
     15 C15        19.1841  -29.1153  -48.3655 C.3       10 UNK         0.0209 
     16 S16        20.7012  -28.1477  -48.0730 S.3       10 UNK        -0.2568 
     17 C17        20.2039  -26.9515  -46.7705 C.3       10 UNK        -0.0983 
     18 CA         21.1039  -26.8274  -45.4926 C.3       3 UNK         0.0876 
     19 N          20.4185  -27.2751  -44.2679 N.am      3 UNK        -0.4424 
     20 C          20.8068  -26.9613  -43.0184 C.2       2 UNK         0.4918 
     21 O          21.8256  -26.3147  -42.7701 O.2       2 UNK        -0.4875 
     22 CA         19.9272  -27.4691  -41.8572 C.3       2 UNK         0.0481 
     23 CB         20.1630  -26.7064  -40.5376 C.3       2 UNK        -0.1831 
     24 N          18.4991  -27.5234  -42.1893 N.am      2 UNK        -0.4498 
     25 C          17.6920  -26.5047  -42.5326 C.2       1 UNK         0.5027 
     26 O          18.0297  -25.3209  -42.5366 O.2       1 UNK        -0.4969 
     27 C          22.5324  -27.4085  -45.6254 C.2       3 UNK         0.5005 
     28 O          23.3860  -26.7777  -46.2520 O.2       3 UNK        -0.5279 
     29 N          22.7725  -28.5780  -45.0113 N.am      4 UNK        -0.4463 
     30 CA         24.0757  -29.2418  -44.9442 C.3       4 UNK         0.0283 
     31 CB         23.8935  -30.6477  -44.3516 C.3       4 UNK        -0.1875 
     32 C          25.1289  -28.4635  -44.1349 C.2       4 UNK         0.4949 
     33 O          26.3208  -28.6699  -44.3650 O.2       4 UNK        -0.5039 
     34 N          24.6825  -27.6132  -43.1955 N.am      5 UNK        -0.4663 
     35 CA         25.4449  -26.7471  -42.2810 C.3       5 UNK         0.0242 
     36 CB         26.2799  -25.7097  -43.0559 C.3       5 UNK        -0.1982 
     37 C          26.3071  -27.4985  -41.2498 C.2       5 UNK         0.5017 
     38 O          26.2511  -27.1722  -40.0642 O.2       5 UNK        -0.5012 
     39 N          27.0679  -28.4996  -41.7085 N.am      6 UNK        -0.4439 
     40 CA         27.8611  -29.4208  -40.8912 C.3       6 UNK         0.0297 
     41 CB         28.8414  -30.1798  -41.7996 C.3       6 UNK        -0.2006 
     42 C          26.9953  -30.4096  -40.0887 C.2       6 UNK         0.4892 
     43 O          27.4616  -30.9261  -39.0725 O.2       6 UNK        -0.5089 
     44 N          25.7596  -30.6415  -40.5480 N.am      7 UNK        -0.4243 
     45 CA         24.7193  -31.3834  -39.8478 C.3       7 UNK         0.0196 
     46 CB         24.2980  -32.6011  -40.6871 C.3       7 UNK        -0.2007 
     47 C          23.5383  -30.4311  -39.6489 C.2       7 UNK         0.5020 
     48 O          23.1416  -29.7459  -40.5949 O.2       7 UNK        -0.5147 
     49 N          22.9749  -30.4216  -38.4368 N.am      8 UNK        -0.4734 
     50 CA         21.8321  -29.5896  -38.0517 C.3       8 UNK         0.0238 
     51 CB         21.9366  -29.2605  -36.5504 C.3       8 UNK        -0.1912 
     52 C          20.4963  -30.2609  -38.4215 C.2       8 UNK         0.5038 
     53 O          19.6218  -30.4089  -37.5651 O.2       8 UNK        -0.5046 
     54 N          20.3657  -30.6672  -39.6896 N.am      9 UNK        -0.4200 
     55 CA         19.1791  -31.2960  -40.2903 C.3       9 UNK         0.0839 
     56 C          17.9849  -30.3171  -40.4860 C.2       9 UNK         0.5513 
     57 N          17.5786  -29.6006  -39.4482 N.am      9 UNK        -0.7519 
     58 O          17.4397  -30.1712  -41.5780 O.2       9 UNK        -0.4960 
     59 C59        19.5489  -32.1196  -41.5540 C.3       10 UNK        -0.0876 
     60 S60        20.5137  -31.2070  -42.8118 S.3       10 UNK        -0.2414 
     61 C61        20.0009  -32.0643  -44.3332 C.3       10 UNK         0.0169 
     62 H62        13.1779  -29.2126  -40.7119 H         1 UNK         0.0903 
     63 H63        14.7781  -29.9347  -40.8515 H         1 UNK         0.0903 
     64 H64        14.3973  -28.8900  -39.4780 H         1 UNK         0.0903 
     65 H65        16.2055  -28.8549  -42.1875 H         1 UNK         0.3096 
     66 H66        15.6568  -26.0005  -42.9340 H         1 UNK         0.1121 
     67 H67        16.4801  -26.3869  -45.1028 H         1 UNK         0.0849 
     68 H68        17.2682  -27.8644  -44.6996 H         1 UNK         0.0849 
     69 H69        15.3415  -30.2604  -44.0061 H         1 UNK         0.0865 
     70 H70        14.7530  -30.5684  -45.6198 H         1 UNK         0.0865 
     71 H71        17.3787  -31.4701  -43.8578 H         1 UNK         0.1346 
     72 H72        20.5519  -30.7398  -46.6431 H         1 UNK         0.1412 
     73 H73        16.6791  -29.0346  -47.3182 H         1 UNK         0.1426 
     74 H74        19.3874  -29.8673  -49.1288 H         1 UNK         0.0716 
     75 H75        18.4248  -28.4506  -48.7806 H         1 UNK         0.0716 
     76 H76        20.1815  -25.9795  -47.2656 H         1 UNK         0.0695 
     77 H77        19.1649  -27.1325  -46.4925 H         1 UNK         0.0695 
     78 H78        21.2626  -25.7562  -45.3444 H         1 UNK         0.0983 
     79 H79        19.5969  -27.8472  -44.3919 H         1 UNK         0.3095 
     80 H80        20.2357  -28.4995  -41.6863 H         1 UNK         0.0454 
     81 H81        19.9289  -25.6461  -40.6344 H         1 UNK         0.0851 
     82 H82        19.5534  -27.1140  -39.7312 H         1 UNK         0.0851 
     83 H83        21.2051  -26.7807  -40.2246 H         1 UNK         0.0851 
     84 H84        18.1030  -28.4583  -42.1901 H         1 UNK         0.2976 
     85 H85        22.0076  -29.0258  -44.5271 H         1 UNK         0.3116 
     86 H86        24.4532  -29.3429  -45.9638 H         1 UNK         0.0646 
     87 H87        24.8441  -31.1810  -44.3050 H         1 UNK         0.0847 
     88 H88        23.2159  -31.2503  -44.9563 H         1 UNK         0.0847 
     89 H89        23.4934  -30.6056  -43.3380 H         1 UNK         0.0847 
     90 H90        23.6775  -27.5323  -43.0934 H         1 UNK         0.3040 
     91 H91        24.6925  -26.1985  -41.7110 H         1 UNK         0.1015 
     92 H92        25.6539  -25.1232  -43.7286 H         1 UNK         0.0786 
     93 H93        27.0653  -26.1761  -43.6514 H         1 UNK         0.0786 
     94 H94        26.7641  -25.0114  -42.3719 H         1 UNK         0.0786 
     95 H95        27.0296  -28.6761  -42.7119 H         1 UNK         0.3172 
     96 H96        28.4390  -28.8310  -40.1768 H         1 UNK         0.0595 
     97 H97        29.4655  -30.8604  -41.2186 H         1 UNK         0.0839 
     98 H98        29.5101  -29.4953  -42.3218 H         1 UNK         0.0839 
     99 H99        28.3187  -30.7756  -42.5492 H         1 UNK         0.0839 
    100 H100       25.4423  -30.1126  -41.3483 H         1 UNK         0.2998 
    101 H101       25.0754  -31.7280  -38.8744 H         1 UNK         0.0822 
    102 H102       23.8994  -32.3090  -41.6591 H         1 UNK         0.0787 
    103 H103       25.1398  -33.2719  -40.8594 H         1 UNK         0.0787 
    104 H104       23.5230  -33.1756  -40.1780 H         1 UNK         0.0787 
    105 H105       23.3328  -31.0460  -37.7274 H         1 UNK         0.3055 
    106 H106       21.8743  -28.6451  -38.5991 H         1 UNK         0.1106 
    107 H107       21.1274  -28.5991  -36.2375 H         1 UNK         0.0828 
    108 H108       21.8809  -30.1583  -35.9336 H         1 UNK         0.0828 
    109 H109       22.8729  -28.7519  -36.3199 H         1 UNK         0.0828 
    110 H110       21.1330  -30.4832  -40.3256 H         1 UNK         0.2931 
    111 H111       18.8113  -32.0268  -39.5676 H         1 UNK         0.0412 
    112 H112       16.8229  -28.9443  -39.5389 H         1 UNK         0.3472 
    113 H113       18.0458  -29.7268  -38.5570 H         1 UNK         0.3472 
    114 H114       18.6463  -32.5356  -42.0045 H         1 UNK         0.0970 
    115 H115       20.1454  -32.9828  -41.2554 H         1 UNK         0.0970 
    116 H116       19.5271  -33.0190  -44.1017 H         1 UNK         0.0612 
    117 H117       20.8970  -32.3097  -44.9048 H         1 UNK         0.0612 
@<TRIPOS>BOND
     1    1    2 1    
     2    1   62 1    
     3    1   63 1    
     4    1   64 1    
     5    2    3 2    
     6    2    4 am   BACKBONE|DICT|INTERRES
     7    4    5 1    
     8    4   65 1    
     9    5    6 1    
    10    5   25 1    
    11    5   66 1    
    12    6    7 1    
    13    6   67 1    
    14    6   68 1    
    15    7    8 1    
    16    8    9 1    
    17    8   69 1    
    18    8   70 1    
    19    9   10 ar   
    20    9   14 ar   
    21   10   11 ar   
    22   10   71 1    
    23   11   12 ar   
    24   11   61 1    
    25   12   13 ar   
    26   12   72 1    
    27   13   14 ar   
    28   13   15 1    
    29   14   73 1    
    30   15   16 1    
    31   15   74 1    
    32   15   75 1    
    33   16   17 1    
    34   17   18 1    
    35   17   76 1    
    36   17   77 1    
    37   18   19 1    
    38   18   27 1    
    39   18   78 1    
    40   19   20 am   BACKBONE|DICT|INTERRES
    41   19   79 1    
    42   20   21 2    
    43   20   22 1    
    44   22   23 1    
    45   22   24 1    
    46   22   80 1    
    47   23   81 1    
    48   23   82 1    
    49   23   83 1    
    50   24   25 am   BACKBONE|DICT|INTERRES
    51   24   84 1    
    52   25   26 2    
    53   27   28 2    
    54   27   29 am   BACKBONE|DICT|INTERRES
    55   29   30 1    
    56   29   85 1    
    57   30   31 1    
    58   30   32 1    
    59   30   86 1    
    60   31   87 1    
    61   31   88 1    
    62   31   89 1    
    63   32   33 2    
    64   32   34 am   BACKBONE|DICT|INTERRES
    65   34   35 1    
    66   34   90 1    
    67   35   36 1    
    68   35   37 1    
    69   35   91 1    
    70   36   92 1    
    71   36   93 1    
    72   36   94 1    
    73   37   38 2    
    74   37   39 am   BACKBONE|DICT|INTERRES
    75   39   40 1    
    76   39   95 1    
    77   40   41 1    
    78   40   42 1    
    79   40   96 1    
    80   41   97 1    
    81   41   98 1    
    82   41   99 1    
    83   42   43 2    
    84   42   44 am   BACKBONE|DICT|INTERRES
    85   44   45 1    
    86   44  100 1    
    87   45   46 1    
    88   45   47 1    
    89   45  101 1    
    90   46  102 1    
    91   46  103 1    
    92   46  104 1    
    93   47   48 2    
    94   47   49 am   BACKBONE|DICT|INTERRES
    95   49   50 1    
    96   49  105 1    
    97   50   51 1    
    98   50   52 1    
    99   50  106 1    
   100   51  107 1    
   101   51  108 1    
   102   51  109 1    
   103   52   53 2    
   104   52   54 am   BACKBONE|DICT|INTERRES
   105   54   55 1    
   106   54  110 1    
   107   55   56 1    
   108   55   59 1    
   109   55  111 1    
   110   56   57 am   BACKBONE|DICT|INTERRES
   111   56   58 2    
   112   57  112 1    
   113   57  113 1    
   114   59   60 1    
   115   59  114 1    
   116   59  115 1    
   117   60   61 1    
   118   61  116 1    
   119   61  117 1    
@<TRIPOS>SUBSTRUCTURE
     1 UNK         1 GROUP             0       ****    0 ROOT    
