@<TRIPOS>MOLECULE
3R8
117   119    1
SMALL
USER_CHARGES


@<TRIPOS>ATOM
      1 CA         15.5366  -22.8802  -45.6317 C.3       0 UNK        -0.2013 
      2 C          16.2327  -24.1609  -45.1980 C.2       0 UNK         0.4866 
      3 O          17.4101  -24.3545  -45.5058 O.2       0 UNK        -0.5176 
      4 N          15.5225  -25.0365  -44.4747 N.am      1 UNK        -0.4884 
      5 CA         16.0138  -26.3277  -43.9754 C.3       1 UNK         0.0853 
      6 C6         14.8561  -27.3422  -43.7719 C.3       10 UNK        -0.0849 
      7 S7         14.3696  -28.0786  -45.3703 S.3       10 UNK        -0.2776 
      8 C8         15.2850  -29.6614  -45.3517 C.3       10 UNK         0.0316 
      9 C9         16.7679  -29.4743  -45.0488 C.ar      10 UNK        -0.0863 
     10 C10        17.2673  -29.7809  -43.7806 C.ar      10 UNK        -0.1009 
     11 C11        18.6122  -29.5654  -43.4753 C.ar      10 UNK        -0.0712 
     12 C12        19.4681  -29.0503  -44.4532 C.ar      10 UNK        -0.0894 
     13 C13        18.9895  -28.7561  -45.7394 C.ar      10 UNK        -0.0745 
     14 C14        17.6366  -28.9760  -46.0242 C.ar      10 UNK        -0.0972 
     15 C15        19.8841  -28.2481  -46.8729 C.3       10 UNK         0.0209 
     16 S16        21.5855  -27.7721  -46.4085 S.3       10 UNK        -0.2568 
     17 C17        21.4774  -25.9583  -46.1860 C.3       10 UNK        -0.0983 
     18 CA         21.8007  -25.4290  -44.7595 C.3       3 UNK         0.0876 
     19 N          20.6649  -25.6240  -43.8551 N.am      3 UNK        -0.4424 
     20 C          20.3876  -24.8587  -42.7900 C.2       2 UNK         0.4918 
     21 O          21.0455  -23.8682  -42.4666 O.2       2 UNK        -0.4875 
     22 CA         19.1287  -25.2420  -41.9955 C.3       2 UNK         0.0481 
     23 CB         18.7342  -24.1942  -40.9348 C.3       2 UNK        -0.1831 
     24 N          18.0368  -25.4563  -42.9396 N.am      2 UNK        -0.4498 
     25 C          16.9203  -26.1608  -42.7364 C.2       1 UNK         0.5027 
     26 O          16.6094  -26.6585  -41.6529 O.2       1 UNK        -0.4969 
     27 C          23.1140  -25.9839  -44.1552 C.2       3 UNK         0.5005 
     28 O          23.1489  -26.3678  -42.9845 O.2       3 UNK        -0.5279 
     29 N          24.1715  -26.0781  -44.9756 N.am      4 UNK        -0.4463 
     30 CA         25.4711  -26.6668  -44.6181 C.3       4 UNK         0.0283 
     31 CB         26.4262  -26.5475  -45.8164 C.3       4 UNK        -0.1875 
     32 C          25.4028  -28.1308  -44.1327 C.2       4 UNK         0.4949 
     33 O          26.2907  -28.5638  -43.3983 O.2       4 UNK        -0.5039 
     34 N          24.3406  -28.8548  -44.5144 N.am      5 UNK        -0.4663 
     35 CA         24.0364  -30.2091  -44.0492 C.3       5 UNK         0.0242 
     36 CB         23.0755  -30.8867  -45.0404 C.3       5 UNK        -0.1982 
     37 C          23.4742  -30.2716  -42.6154 C.2       5 UNK         0.5017 
     38 O          23.2752  -31.3803  -42.1214 O.2       5 UNK        -0.5012 
     39 N          23.2455  -29.1271  -41.9470 N.am      6 UNK        -0.4439 
     40 CA         22.7234  -29.0387  -40.5736 C.3       6 UNK         0.0297 
     41 CB         22.5306  -27.5679  -40.1737 C.3       6 UNK        -0.2006 
     42 C          23.5363  -29.7878  -39.5002 C.2       6 UNK         0.4892 
     43 O          22.9721  -30.1350  -38.4632 O.2       6 UNK        -0.5089 
     44 N          24.8213  -30.0547  -39.7712 N.am      7 UNK        -0.4243 
     45 CA         25.6782  -30.9200  -38.9575 C.3       7 UNK         0.0196 
     46 CB         27.1398  -30.7313  -39.3948 C.3       7 UNK        -0.2007 
     47 C          25.2850  -32.4100  -39.0265 C.2       7 UNK         0.5020 
     48 O          25.5611  -33.1431  -38.0766 O.2       7 UNK        -0.5147 
     49 N          24.6658  -32.8361  -40.1366 N.am      8 UNK        -0.4734 
     50 CA         24.1833  -34.2012  -40.3563 C.3       8 UNK         0.0238 
     51 CB         24.4387  -34.6009  -41.8194 C.3       8 UNK        -0.1912 
     52 C          22.6921  -34.3494  -40.0130 C.2       8 UNK         0.5038 
     53 O          22.2858  -35.4421  -39.6144 O.2       8 UNK        -0.5046 
     54 N          21.9072  -33.2725  -40.1728 N.am      9 UNK        -0.4200 
     55 CA         20.4821  -33.2021  -39.8059 C.3       9 UNK         0.0839 
     56 C          20.2251  -33.4832  -38.2981 C.2       9 UNK         0.5513 
     57 N          19.1104  -34.1228  -37.9707 N.am      9 UNK        -0.7519 
     58 O          20.9964  -33.0898  -37.4259 O.2       9 UNK        -0.4960 
     59 C59        19.8428  -31.8466  -40.2067 C.3       10 UNK        -0.0876 
     60 S60        19.8355  -31.5608  -42.0080 S.3       10 UNK        -0.2414 
     61 C61        19.1304  -29.8842  -42.0824 C.3       10 UNK         0.0169 
     62 H62        15.5399  -22.8023  -46.7185 H         1 UNK         0.0903 
     63 H63        14.5017  -22.8426  -45.2921 H         1 UNK         0.0903 
     64 H64        16.0589  -22.0140  -45.2263 H         1 UNK         0.0903 
     65 H65        14.5662  -24.8149  -44.2352 H         1 UNK         0.3096 
     66 H66        16.6781  -26.7369  -44.7382 H         1 UNK         0.1121 
     67 H67        15.1270  -28.1511  -43.0923 H         1 UNK         0.0849 
     68 H68        13.9901  -26.8597  -43.3163 H         1 UNK         0.0849 
     69 H69        14.8260  -30.3287  -44.6204 H         1 UNK         0.0865 
     70 H70        15.1697  -30.1503  -46.3201 H         1 UNK         0.0865 
     71 H71        16.6050  -30.1741  -43.0212 H         1 UNK         0.1346 
     72 H72        20.5078  -28.9032  -44.2006 H         1 UNK         0.1412 
     73 H73        17.2516  -28.7490  -47.0095 H         1 UNK         0.1426 
     74 H74        19.3969  -27.4161  -47.3832 H         1 UNK         0.0716 
     75 H75        19.9626  -29.0468  -47.6117 H         1 UNK         0.0716 
     76 H76        20.4896  -25.6075  -46.4890 H         1 UNK         0.0695 
     77 H77        22.1621  -25.5078  -46.9061 H         1 UNK         0.0695 
     78 H78        21.9565  -24.3518  -44.8537 H         1 UNK         0.0983 
     79 H79        20.0891  -26.4318  -44.0382 H         1 UNK         0.3095 
     80 H80        19.3456  -26.1858  -41.4910 H         1 UNK         0.0454 
     81 H81        18.4978  -23.2322  -41.3907 H         1 UNK         0.0851 
     82 H82        19.5465  -24.0309  -40.2256 H         1 UNK         0.0851 
     83 H83        17.8662  -24.5140  -40.3587 H         1 UNK         0.0851 
     84 H84        18.1566  -25.0399  -43.8615 H         1 UNK         0.2976 
     85 H85        24.0684  -25.7669  -45.9310 H         1 UNK         0.3116 
     86 H86        25.8793  -26.0761  -43.7955 H         1 UNK         0.0646 
     87 H87        26.0560  -27.0954  -46.6839 H         1 UNK         0.0847 
     88 H88        27.4102  -26.9511  -45.5730 H         1 UNK         0.0847 
     89 H89        26.5703  -25.5076  -46.1099 H         1 UNK         0.0847 
     90 H90        23.6547  -28.4179  -45.1160 H         1 UNK         0.3040 
     91 H91        24.9665  -30.7819  -44.0439 H         1 UNK         0.1015 
     92 H92        23.4708  -30.8687  -46.0561 H         1 UNK         0.0786 
     93 H93        22.0973  -30.4079  -45.0512 H         1 UNK         0.0786 
     94 H94        22.9162  -31.9329  -44.7750 H         1 UNK         0.0786 
     95 H95        23.4055  -28.2411  -42.4203 H         1 UNK         0.3172 
     96 H96        21.7417  -29.5052  -40.5854 H         1 UNK         0.0595 
     97 H97        23.4634  -27.0068  -40.2403 H         1 UNK         0.0839 
     98 H98        22.1682  -27.4808  -39.1484 H         1 UNK         0.0839 
     99 H99        21.7963  -27.0777  -40.8125 H         1 UNK         0.0839 
    100 H100       25.2055  -29.7155  -40.6419 H         1 UNK         0.2998 
    101 H101       25.5882  -30.6050  -37.9155 H         1 UNK         0.0822 
    102 H102       27.4586  -29.6952  -39.2787 H         1 UNK         0.0787 
    103 H103       27.8100  -31.3448  -38.7909 H         1 UNK         0.0787 
    104 H104       27.2891  -31.0146  -40.4377 H         1 UNK         0.0787 
    105 H105       24.4197  -32.1613  -40.8558 H         1 UNK         0.3055 
    106 H106       24.7360  -34.8943  -39.7179 H         1 UNK         0.1106 
    107 H107       25.4980  -34.5375  -42.0684 H         1 UNK         0.0828 
    108 H108       24.1243  -35.6294  -42.0018 H         1 UNK         0.0828 
    109 H109       23.8915  -33.9659  -42.5170 H         1 UNK         0.0828 
    110 H110       22.3106  -32.4361  -40.5752 H         1 UNK         0.2931 
    111 H111       19.9813  -33.9883  -40.3748 H         1 UNK         0.0412 
    112 H112       18.4656  -34.4427  -38.6771 H         1 UNK         0.3472 
    113 H113       18.9153  -34.3016  -36.9976 H         1 UNK         0.3472 
    114 H114       18.8038  -31.8071  -39.8728 H         1 UNK         0.0970 
    115 H115       20.3501  -31.0241  -39.7019 H         1 UNK         0.0970 
    116 H116       19.8818  -29.1498  -41.7939 H         1 UNK         0.0612 
    117 H117       18.3203  -29.7949  -41.3568 H         1 UNK         0.0612 
@<TRIPOS>BOND
     1    1    2 1    
     2    1   62 1    
     3    1   63 1    
     4    1   64 1    
     5    2    3 2    
     6    2    4 am   BACKBONE|DICT|INTERRES
     7    4    5 1    
     8    4   65 1    
     9    5    6 1    
    10    5   25 1    
    11    5   66 1    
    12    6    7 1    
    13    6   67 1    
    14    6   68 1    
    15    7    8 1    
    16    8    9 1    
    17    8   69 1    
    18    8   70 1    
    19    9   10 ar   
    20    9   14 ar   
    21   10   11 ar   
    22   10   71 1    
    23   11   12 ar   
    24   11   61 1    
    25   12   13 ar   
    26   12   72 1    
    27   13   14 ar   
    28   13   15 1    
    29   14   73 1    
    30   15   16 1    
    31   15   74 1    
    32   15   75 1    
    33   16   17 1    
    34   17   18 1    
    35   17   76 1    
    36   17   77 1    
    37   18   19 1    
    38   18   27 1    
    39   18   78 1    
    40   19   20 am   BACKBONE|DICT|INTERRES
    41   19   79 1    
    42   20   21 2    
    43   20   22 1    
    44   22   23 1    
    45   22   24 1    
    46   22   80 1    
    47   23   81 1    
    48   23   82 1    
    49   23   83 1    
    50   24   25 am   BACKBONE|DICT|INTERRES
    51   24   84 1    
    52   25   26 2    
    53   27   28 2    
    54   27   29 am   BACKBONE|DICT|INTERRES
    55   29   30 1    
    56   29   85 1    
    57   30   31 1    
    58   30   32 1    
    59   30   86 1    
    60   31   87 1    
    61   31   88 1    
    62   31   89 1    
    63   32   33 2    
    64   32   34 am   BACKBONE|DICT|INTERRES
    65   34   35 1    
    66   34   90 1    
    67   35   36 1    
    68   35   37 1    
    69   35   91 1    
    70   36   92 1    
    71   36   93 1    
    72   36   94 1    
    73   37   38 2    
    74   37   39 am   BACKBONE|DICT|INTERRES
    75   39   40 1    
    76   39   95 1    
    77   40   41 1    
    78   40   42 1    
    79   40   96 1    
    80   41   97 1    
    81   41   98 1    
    82   41   99 1    
    83   42   43 2    
    84   42   44 am   BACKBONE|DICT|INTERRES
    85   44   45 1    
    86   44  100 1    
    87   45   46 1    
    88   45   47 1    
    89   45  101 1    
    90   46  102 1    
    91   46  103 1    
    92   46  104 1    
    93   47   48 2    
    94   47   49 am   BACKBONE|DICT|INTERRES
    95   49   50 1    
    96   49  105 1    
    97   50   51 1    
    98   50   52 1    
    99   50  106 1    
   100   51  107 1    
   101   51  108 1    
   102   51  109 1    
   103   52   53 2    
   104   52   54 am   BACKBONE|DICT|INTERRES
   105   54   55 1    
   106   54  110 1    
   107   55   56 1    
   108   55   59 1    
   109   55  111 1    
   110   56   57 am   BACKBONE|DICT|INTERRES
   111   56   58 2    
   112   57  112 1    
   113   57  113 1    
   114   59   60 1    
   115   59  114 1    
   116   59  115 1    
   117   60   61 1    
   118   61  116 1    
   119   61  117 1    
@<TRIPOS>SUBSTRUCTURE
     1 UNK         1 GROUP             0       ****    0 ROOT    
