@<TRIPOS>MOLECULE
3R8
117   119    1
SMALL
USER_CHARGES


@<TRIPOS>ATOM
      1 CA         15.5411  -22.3319  -44.9968 C.3       0 UNK        -0.2013 
      2 C          15.9728  -23.4882  -44.1065 C.2       0 UNK         0.4866 
      3 O          16.0963  -23.3068  -42.8946 O.2       0 UNK        -0.5176 
      4 N          16.1963  -24.6669  -44.7050 N.am      1 UNK        -0.4884 
      5 CA         16.6445  -25.9141  -44.0627 C.3       1 UNK         0.0853 
      6 C6         15.6274  -26.4688  -43.0199 C.3       10 UNK        -0.0849 
      7 S7         14.0509  -26.9178  -43.8283 S.3       10 UNK        -0.2776 
      8 C8         14.0366  -28.7415  -43.7146 C.3       10 UNK         0.0316 
      9 C9         15.3417  -29.3916  -44.1640 C.ar      10 UNK        -0.0863 
     10 C10        16.0384  -30.2295  -43.2875 C.ar      10 UNK        -0.1009 
     11 C11        17.2389  -30.8255  -43.6808 C.ar      10 UNK        -0.0712 
     12 C12        17.7475  -30.5770  -44.9571 C.ar      10 UNK        -0.0894 
     13 C13        17.0704  -29.7302  -45.8386 C.ar      10 UNK        -0.0745 
     14 C14        15.8565  -29.1578  -45.4440 C.ar      10 UNK        -0.0972 
     15 C15        17.6446  -29.4343  -47.2164 C.3       10 UNK         0.0209 
     16 S16        18.8570  -28.0729  -47.1677 S.3       10 UNK        -0.2568 
     17 C17        20.4066  -28.9544  -46.7644 C.3       10 UNK        -0.0983 
     18 CA         21.2640  -28.2387  -45.6898 C.3       3 UNK         0.0876 
     19 N          20.5116  -27.9832  -44.4590 N.am      3 UNK        -0.4424 
     20 C          20.9204  -27.1993  -43.4514 C.2       2 UNK         0.4918 
     21 O          22.0002  -26.6047  -43.4370 O.2       2 UNK        -0.4875 
     22 CA         19.9185  -27.0204  -42.2915 C.3       2 UNK         0.0481 
     23 CB         20.3272  -25.9095  -41.3003 C.3       2 UNK        -0.1831 
     24 N          18.5420  -26.8234  -42.7725 N.am      2 UNK        -0.4498 
     25 C          18.1016  -25.8183  -43.5495 C.2       1 UNK         0.5027 
     26 O          18.8179  -24.8814  -43.9143 O.2       1 UNK        -0.4969 
     27 C          22.5487  -29.0455  -45.4091 C.2       3 UNK         0.5005 
     28 O          22.5885  -29.8249  -44.4553 O.2       3 UNK        -0.5279 
     29 N          23.5640  -28.8606  -46.2649 N.am      4 UNK        -0.4463 
     30 CA         24.8951  -29.4867  -46.2531 C.3       4 UNK         0.0283 
     31 CB         24.8153  -31.0245  -46.3429 C.3       4 UNK        -0.1875 
     32 C          25.7918  -29.0377  -45.0854 C.2       4 UNK         0.4949 
     33 O          26.9098  -28.5849  -45.3332 O.2       4 UNK        -0.5039 
     34 N          25.2981  -29.1489  -43.8489 N.am      5 UNK        -0.4663 
     35 CA         25.9764  -28.7293  -42.6267 C.3       5 UNK         0.0242 
     36 CB         27.0121  -29.7865  -42.2016 C.3       5 UNK        -0.1982 
     37 C          24.9353  -28.5112  -41.5258 C.2       5 UNK         0.5017 
     38 O          24.0001  -29.3065  -41.4094 O.2       5 UNK        -0.5012 
     39 N          25.1340  -27.4629  -40.7161 N.am      6 UNK        -0.4439 
     40 CA         24.2930  -27.1316  -39.5637 C.3       6 UNK         0.0297 
     41 CB         24.7213  -25.7701  -38.9939 C.3       6 UNK        -0.2006 
     42 C          24.3589  -28.2172  -38.4774 C.2       6 UNK         0.4892 
     43 O          25.4226  -28.8062  -38.2689 O.2       6 UNK        -0.5089 
     44 N          23.2155  -28.4657  -37.8242 N.am      7 UNK        -0.4243 
     45 CA         22.9432  -29.4875  -36.7999 C.3       7 UNK         0.0196 
     46 CB         23.8358  -29.3050  -35.5563 C.3       7 UNK        -0.2007 
     47 C          22.9963  -30.9384  -37.3165 C.2       7 UNK         0.5020 
     48 O          22.1194  -31.7284  -36.9670 O.2       7 UNK        -0.5147 
     49 N          23.9999  -31.2658  -38.1398 N.am      8 UNK        -0.4734 
     50 CA         24.1670  -32.5635  -38.7976 C.3       8 UNK         0.0238 
     51 CB         25.5696  -32.6440  -39.4205 C.3       8 UNK        -0.1912 
     52 C          23.0827  -32.8335  -39.8536 C.2       8 UNK         0.5038 
     53 O          22.5586  -33.9467  -39.9064 O.2       8 UNK        -0.5046 
     54 N          22.7538  -31.8070  -40.6504 N.am      9 UNK        -0.4200 
     55 CA         21.7108  -31.8159  -41.6868 C.3       9 UNK         0.0839 
     56 C          22.0058  -32.7452  -42.9058 C.2       9 UNK         0.5513 
     57 N          23.2528  -33.1363  -43.1449 N.am      9 UNK        -0.7519 
     58 O          21.1031  -33.1158  -43.6515 O.2       9 UNK        -0.4960 
     59 C59        20.2832  -31.9896  -41.0794 C.3       10 UNK        -0.0876 
     60 S60        19.1228  -30.7289  -41.6994 S.3       10 UNK        -0.2414 
     61 C61        18.0035  -31.7229  -42.7246 C.3       10 UNK         0.0169 
     62 H62        14.5706  -21.9540  -44.6763 H         1 UNK         0.0903 
     63 H63        15.4603  -22.6283  -46.0424 H         1 UNK         0.0903 
     64 H64        16.2628  -21.5182  -44.9302 H         1 UNK         0.0903 
     65 H65        16.0948  -24.7249  -45.7086 H         1 UNK         0.3096 
     66 H66        16.7099  -26.6380  -44.8749 H         1 UNK         0.1121 
     67 H67        16.0077  -27.3457  -42.4968 H         1 UNK         0.0849 
     68 H68        15.4249  -25.7343  -42.2397 H         1 UNK         0.0849 
     69 H69        13.8016  -29.0195  -42.6859 H         1 UNK         0.0865 
     70 H70        13.2201  -29.1269  -44.3267 H         1 UNK         0.0865 
     71 H71        15.6528  -30.4167  -42.2943 H         1 UNK         0.1346 
     72 H72        18.6764  -31.0425  -45.2536 H         1 UNK         0.1412 
     73 H73        15.3214  -28.5081  -46.1236 H         1 UNK         0.1426 
     74 H74        18.1008  -30.3298  -47.6411 H         1 UNK         0.0716 
     75 H75        16.8406  -29.1560  -47.8996 H         1 UNK         0.0716 
     76 H76        20.9715  -29.0494  -47.6936 H         1 UNK         0.0695 
     77 H77        20.1844  -29.9746  -46.4528 H         1 UNK         0.0695 
     78 H78        21.5613  -27.2646  -46.0847 H         1 UNK         0.0983 
     79 H79        19.6159  -28.4411  -44.3869 H         1 UNK         0.3095 
     80 H80        19.9242  -27.9585  -41.7381 H         1 UNK         0.0454 
     81 H81        19.6135  -25.8260  -40.4811 H         1 UNK         0.0851 
     82 H82        20.3986  -24.9354  -41.7845 H         1 UNK         0.0851 
     83 H83        21.3016  -26.1202  -40.8606 H         1 UNK         0.0851 
     84 H84        17.8978  -27.5675  -42.5429 H         1 UNK         0.2976 
     85 H85        23.4314  -28.1823  -47.0032 H         1 UNK         0.3116 
     86 H86        25.3817  -29.1414  -47.1669 H         1 UNK         0.0646 
     87 H87        24.2331  -31.3420  -47.2077 H         1 UNK         0.0847 
     88 H88        25.8110  -31.4577  -46.4454 H         1 UNK         0.0847 
     89 H89        24.3639  -31.4674  -45.4547 H         1 UNK         0.0847 
     90 H90        24.3428  -29.4878  -43.7340 H         1 UNK         0.3040 
     91 H91        26.4861  -27.7817  -42.8155 H         1 UNK         0.1015 
     92 H92        27.4582  -29.5368  -41.2378 H         1 UNK         0.0786 
     93 H93        27.8245  -29.8600  -42.9247 H         1 UNK         0.0786 
     94 H94        26.5595  -30.7739  -42.1095 H         1 UNK         0.0786 
     95 H95        25.9543  -26.8903  -40.8525 H         1 UNK         0.3172 
     96 H96        23.2639  -27.0533  -39.9187 H         1 UNK         0.0595 
     97 H97        25.7523  -25.7880  -38.6376 H         1 UNK         0.0839 
     98 H98        24.0916  -25.4834  -38.1505 H         1 UNK         0.0839 
     99 H99        24.6364  -24.9809  -39.7413 H         1 UNK         0.0839 
    100 H100       22.4047  -27.9278  -38.0984 H         1 UNK         0.2998 
    101 H101       21.9131  -29.3123  -36.4847 H         1 UNK         0.0822 
    102 H102       23.7538  -28.2953  -35.1540 H         1 UNK         0.0787 
    103 H103       23.5411  -29.9945  -34.7641 H         1 UNK         0.0787 
    104 H104       24.8873  -29.4956  -35.7729 H         1 UNK         0.0787 
    105 H105       24.6830  -30.5406  -38.3455 H         1 UNK         0.3055 
    106 H106       24.0841  -33.3419  -38.0355 H         1 UNK         0.1106 
    107 H107       26.3456  -32.5583  -38.6597 H         1 UNK         0.0828 
    108 H108       25.7190  -33.5977  -39.9289 H         1 UNK         0.0828 
    109 H109       25.7309  -31.8523  -40.1520 H         1 UNK         0.0828 
    110 H110       23.2725  -30.9363  -40.5853 H         1 UNK         0.2931 
    111 H111       21.7764  -30.8111  -42.1041 H         1 UNK         0.0412 
    112 H112       23.4387  -33.7351  -43.9332 H         1 UNK         0.3472 
    113 H113       24.0046  -32.8266  -42.5519 H         1 UNK         0.3472 
    114 H114       19.8908  -32.9953  -41.2412 H         1 UNK         0.0970 
    115 H115       20.3080  -31.8678  -39.9954 H         1 UNK         0.0970 
    116 H116       17.3156  -32.2752  -42.0828 H         1 UNK         0.0612 
    117 H117       18.5699  -32.4658  -43.2867 H         1 UNK         0.0612 
@<TRIPOS>BOND
     1    1    2 1    
     2    1   62 1    
     3    1   63 1    
     4    1   64 1    
     5    2    3 2    
     6    2    4 am   BACKBONE|DICT|INTERRES
     7    4    5 1    
     8    4   65 1    
     9    5    6 1    
    10    5   25 1    
    11    5   66 1    
    12    6    7 1    
    13    6   67 1    
    14    6   68 1    
    15    7    8 1    
    16    8    9 1    
    17    8   69 1    
    18    8   70 1    
    19    9   10 ar   
    20    9   14 ar   
    21   10   11 ar   
    22   10   71 1    
    23   11   12 ar   
    24   11   61 1    
    25   12   13 ar   
    26   12   72 1    
    27   13   14 ar   
    28   13   15 1    
    29   14   73 1    
    30   15   16 1    
    31   15   74 1    
    32   15   75 1    
    33   16   17 1    
    34   17   18 1    
    35   17   76 1    
    36   17   77 1    
    37   18   19 1    
    38   18   27 1    
    39   18   78 1    
    40   19   20 am   BACKBONE|DICT|INTERRES
    41   19   79 1    
    42   20   21 2    
    43   20   22 1    
    44   22   23 1    
    45   22   24 1    
    46   22   80 1    
    47   23   81 1    
    48   23   82 1    
    49   23   83 1    
    50   24   25 am   BACKBONE|DICT|INTERRES
    51   24   84 1    
    52   25   26 2    
    53   27   28 2    
    54   27   29 am   BACKBONE|DICT|INTERRES
    55   29   30 1    
    56   29   85 1    
    57   30   31 1    
    58   30   32 1    
    59   30   86 1    
    60   31   87 1    
    61   31   88 1    
    62   31   89 1    
    63   32   33 2    
    64   32   34 am   BACKBONE|DICT|INTERRES
    65   34   35 1    
    66   34   90 1    
    67   35   36 1    
    68   35   37 1    
    69   35   91 1    
    70   36   92 1    
    71   36   93 1    
    72   36   94 1    
    73   37   38 2    
    74   37   39 am   BACKBONE|DICT|INTERRES
    75   39   40 1    
    76   39   95 1    
    77   40   41 1    
    78   40   42 1    
    79   40   96 1    
    80   41   97 1    
    81   41   98 1    
    82   41   99 1    
    83   42   43 2    
    84   42   44 am   BACKBONE|DICT|INTERRES
    85   44   45 1    
    86   44  100 1    
    87   45   46 1    
    88   45   47 1    
    89   45  101 1    
    90   46  102 1    
    91   46  103 1    
    92   46  104 1    
    93   47   48 2    
    94   47   49 am   BACKBONE|DICT|INTERRES
    95   49   50 1    
    96   49  105 1    
    97   50   51 1    
    98   50   52 1    
    99   50  106 1    
   100   51  107 1    
   101   51  108 1    
   102   51  109 1    
   103   52   53 2    
   104   52   54 am   BACKBONE|DICT|INTERRES
   105   54   55 1    
   106   54  110 1    
   107   55   56 1    
   108   55   59 1    
   109   55  111 1    
   110   56   57 am   BACKBONE|DICT|INTERRES
   111   56   58 2    
   112   57  112 1    
   113   57  113 1    
   114   59   60 1    
   115   59  114 1    
   116   59  115 1    
   117   60   61 1    
   118   61  116 1    
   119   61  117 1    
@<TRIPOS>SUBSTRUCTURE
     1 UNK         1 GROUP             0       ****    0 ROOT    
