@<TRIPOS>MOLECULE
3R8
117   119    1
SMALL
USER_CHARGES


@<TRIPOS>ATOM
      1 CA         19.8270  -23.6785  -39.8067 C.3       0 UNK        -0.2013 
      2 C          18.7020  -23.9028  -40.8060 C.2       0 UNK         0.4866 
      3 O          17.8096  -23.0625  -40.9170 O.2       0 UNK        -0.5176 
      4 N          18.7363  -25.0309  -41.5289 N.am      1 UNK        -0.4884 
      5 CA         17.7479  -25.3922  -42.5520 C.3       1 UNK         0.0853 
      6 C6         17.7337  -26.9001  -42.9163 C.3       10 UNK        -0.0849 
      7 S7         17.5830  -27.9828  -41.4554 S.3       10 UNK        -0.2776 
      8 C8         17.0276  -29.5403  -42.2217 C.3       10 UNK         0.0316 
      9 C9         18.0560  -30.0862  -43.2019 C.ar      10 UNK        -0.0863 
     10 C10        19.1978  -30.7367  -42.7291 C.ar      10 UNK        -0.1009 
     11 C11        20.1615  -31.2206  -43.6177 C.ar      10 UNK        -0.0712 
     12 C12        19.9660  -31.0710  -44.9932 C.ar      10 UNK        -0.0894 
     13 C13        18.8215  -30.4322  -45.4801 C.ar      10 UNK        -0.0745 
     14 C14        17.8704  -29.9411  -44.5802 C.ar      10 UNK        -0.0972 
     15 C15        18.6004  -30.2846  -46.9780 C.3       10 UNK         0.0209 
     16 S16        18.9233  -28.5888  -47.5522 S.3       10 UNK        -0.2568 
     17 C17        20.7464  -28.5268  -47.5385 C.3       10 UNK        -0.0983 
     18 CA         21.2609  -27.0898  -47.2906 C.3       3 UNK         0.0876 
     19 N          20.8838  -26.5841  -45.9635 N.am      3 UNK        -0.4424 
     20 C          20.7384  -25.2840  -45.6868 C.2       2 UNK         0.4918 
     21 O          20.8956  -24.3837  -46.5146 O.2       2 UNK        -0.4875 
     22 CA         20.3059  -24.9120  -44.2645 C.3       2 UNK         0.0481 
     23 CB         21.3329  -23.9640  -43.6199 C.3       2 UNK        -0.1831 
     24 N          19.0154  -24.2371  -44.4040 N.am      2 UNK        -0.4498 
     25 C          17.8392  -24.4883  -43.8050 C.2       1 UNK         0.5027 
     26 O          16.8043  -23.9673  -44.2184 O.2       1 UNK        -0.4969 
     27 C          22.7836  -26.9999  -47.5100 C.2       3 UNK         0.5005 
     28 O          23.2238  -26.7083  -48.6230 O.2       3 UNK        -0.5279 
     29 N          23.5476  -27.2289  -46.4371 N.am      4 UNK        -0.4463 
     30 CA         25.0038  -27.1320  -46.3365 C.3       4 UNK         0.0283 
     31 CB         25.7291  -28.1346  -47.2593 C.3       4 UNK        -0.1875 
     32 C          25.3378  -27.3774  -44.8655 C.2       4 UNK         0.4949 
     33 O          25.8780  -26.4972  -44.1962 O.2       4 UNK        -0.5039 
     34 N          24.8937  -28.5418  -44.3780 N.am      5 UNK        -0.4663 
     35 CA         24.6289  -28.8036  -42.9667 C.3       5 UNK         0.0242 
     36 CB         24.9472  -30.2803  -42.6719 C.3       5 UNK        -0.1982 
     37 C          23.1586  -28.4540  -42.6589 C.2       5 UNK         0.5017 
     38 O          22.4234  -28.0150  -43.5528 O.2       5 UNK        -0.5012 
     39 N          22.7588  -28.6538  -41.4004 N.am      6 UNK        -0.4439 
     40 CA         21.4194  -28.3866  -40.8888 C.3       6 UNK         0.0297 
     41 CB         21.3530  -26.9319  -40.3937 C.3       6 UNK        -0.2006 
     42 C          21.0967  -29.3682  -39.7552 C.2       6 UNK         0.4892 
     43 O          21.9974  -30.0557  -39.2644 O.2       6 UNK        -0.5089 
     44 N          19.8182  -29.3876  -39.3524 N.am      7 UNK        -0.4243 
     45 CA         19.2429  -30.1626  -38.2485 C.3       7 UNK         0.0196 
     46 CB         19.7242  -29.5995  -36.8909 C.3       7 UNK        -0.2007 
     47 C          19.4738  -31.6755  -38.4216 C.2       7 UNK         0.5020 
     48 O          18.8895  -32.2701  -39.3266 O.2       7 UNK        -0.5147 
     49 N          20.3157  -32.2665  -37.5638 N.am      8 UNK        -0.4734 
     50 CA         20.6979  -33.6820  -37.5934 C.3       8 UNK         0.0238 
     51 CB         21.2543  -34.0717  -36.2130 C.3       8 UNK        -0.1912 
     52 C          21.7064  -34.0362  -38.7044 C.2       8 UNK         0.5038 
     53 O          21.9673  -35.2228  -38.9080 O.2       8 UNK        -0.5046 
     54 N          22.2610  -33.0226  -39.3840 N.am      9 UNK        -0.4200 
     55 CA         23.2398  -33.1321  -40.4786 C.3       9 UNK         0.0839 
     56 C          24.6693  -33.5600  -40.0308 C.2       9 UNK         0.5513 
     57 N          25.0014  -33.5158  -38.7461 N.am      9 UNK        -0.7519 
     58 O          25.5042  -33.9075  -40.8619 O.2       9 UNK        -0.4960 
     59 C59        22.7337  -33.9428  -41.7113 C.3       10 UNK        -0.0876 
     60 S60        21.0684  -33.4727  -42.2938 S.3       10 UNK        -0.2414 
     61 C61        21.4234  -31.8780  -43.0854 C.3       10 UNK         0.0169 
     62 H62        19.5758  -24.1318  -38.8486 H         1 UNK         0.0903 
     63 H63        20.7670  -24.1022  -40.1553 H         1 UNK         0.0903 
     64 H64        19.9856  -22.6127  -39.6464 H         1 UNK         0.0903 
     65 H65        19.4774  -25.6981  -41.3858 H         1 UNK         0.3096 
     66 H66        16.7701  -25.1846  -42.1099 H         1 UNK         0.1121 
     67 H67        18.6238  -27.2032  -43.4654 H         1 UNK         0.0849 
     68 H68        16.8925  -27.1051  -43.5814 H         1 UNK         0.0849 
     69 H69        16.8480  -30.2770  -41.4370 H         1 UNK         0.0865 
     70 H70        16.0673  -29.3813  -42.7149 H         1 UNK         0.0865 
     71 H71        19.3410  -30.8662  -41.6658 H         1 UNK         0.1346 
     72 H72        20.7059  -31.4491  -45.6851 H         1 UNK         0.1412 
     73 H73        16.9883  -29.4415  -44.9571 H         1 UNK         0.1426 
     74 H74        17.5675  -30.5436  -47.2148 H         1 UNK         0.0716 
     75 H75        19.2244  -30.9838  -47.5372 H         1 UNK         0.0716 
     76 H76        21.0956  -28.9033  -48.5020 H         1 UNK         0.0695 
     77 H77        21.1384  -29.2063  -46.7807 H         1 UNK         0.0695 
     78 H78        20.8036  -26.4476  -48.0476 H         1 UNK         0.0983 
     79 H79        20.7519  -27.2723  -45.2343 H         1 UNK         0.3095 
     80 H80        20.2437  -25.8129  -43.6584 H         1 UNK         0.0454 
     81 H81        22.3017  -24.4552  -43.5190 H         1 UNK         0.0851 
     82 H82        21.0250  -23.6496  -42.6251 H         1 UNK         0.0851 
     83 H83        21.4849  -23.0623  -44.2145 H         1 UNK         0.0851 
     84 H84        18.9903  -23.6147  -45.2005 H         1 UNK         0.2976 
     85 H85        23.0791  -27.4202  -45.5561 H         1 UNK         0.3116 
     86 H86        25.3070  -26.1161  -46.5974 H         1 UNK         0.0646 
     87 H87        25.3724  -29.1553  -47.1199 H         1 UNK         0.0847 
     88 H88        25.5970  -27.8787  -48.3102 H         1 UNK         0.0847 
     89 H89        26.8027  -28.1337  -47.0662 H         1 UNK         0.0847 
     90 H90        24.4500  -29.1772  -45.0255 H         1 UNK         0.3040 
     91 H91        25.2659  -28.1726  -42.3424 H         1 UNK         0.1015 
     92 H92        24.8739  -30.4951  -41.6061 H         1 UNK         0.0786 
     93 H93        25.9654  -30.5296  -42.9719 H         1 UNK         0.0786 
     94 H94        24.2739  -30.9571  -43.1974 H         1 UNK         0.0786 
     95 H95        23.3817  -29.0810  -40.7262 H         1 UNK         0.3172 
     96 H96        20.6855  -28.5359  -41.6833 H         1 UNK         0.0595 
     97 H97        22.1017  -26.7385  -39.6243 H         1 UNK         0.0839 
     98 H98        20.3803  -26.7056  -39.9572 H         1 UNK         0.0839 
     99 H99        21.5290  -26.2314  -41.2100 H         1 UNK         0.0839 
    100 H100       19.1543  -28.8190  -39.8640 H         1 UNK         0.2998 
    101 H101       18.1627  -30.0159  -38.2994 H         1 UNK         0.0822 
    102 H102       19.2755  -30.1406  -36.0566 H         1 UNK         0.0787 
    103 H103       19.4350  -28.5541  -36.7815 H         1 UNK         0.0787 
    104 H104       20.8079  -29.6496  -36.7791 H         1 UNK         0.0787 
    105 H105       20.7627  -31.6893  -36.8656 H         1 UNK         0.3055 
    106 H106       19.8008  -34.2764  -37.7817 H         1 UNK         0.1106 
    107 H107       20.5211  -33.8970  -35.4254 H         1 UNK         0.0828 
    108 H108       21.5135  -35.1309  -36.1795 H         1 UNK         0.0828 
    109 H109       22.1550  -33.5086  -35.9658 H         1 UNK         0.0828 
    110 H110       22.0011  -32.0733  -39.1372 H         1 UNK         0.2931 
    111 H111       23.3698  -32.1047  -40.8131 H         1 UNK         0.0412 
    112 H112       24.3315  -33.2175  -38.0557 H         1 UNK         0.3472 
    113 H113       25.9319  -33.7842  -38.4663 H         1 UNK         0.3472 
    114 H114       23.4278  -33.8371  -42.5470 H         1 UNK         0.0970 
    115 H115       22.7150  -35.0084  -41.4775 H         1 UNK         0.0970 
    116 H116       22.1512  -32.0261  -43.8843 H         1 UNK         0.0612 
    117 H117       21.8824  -31.2104  -42.3577 H         1 UNK         0.0612 
@<TRIPOS>BOND
     1    1    2 1    
     2    1   62 1    
     3    1   63 1    
     4    1   64 1    
     5    2    3 2    
     6    2    4 am   BACKBONE|DICT|INTERRES
     7    4    5 1    
     8    4   65 1    
     9    5    6 1    
    10    5   25 1    
    11    5   66 1    
    12    6    7 1    
    13    6   67 1    
    14    6   68 1    
    15    7    8 1    
    16    8    9 1    
    17    8   69 1    
    18    8   70 1    
    19    9   10 ar   
    20    9   14 ar   
    21   10   11 ar   
    22   10   71 1    
    23   11   12 ar   
    24   11   61 1    
    25   12   13 ar   
    26   12   72 1    
    27   13   14 ar   
    28   13   15 1    
    29   14   73 1    
    30   15   16 1    
    31   15   74 1    
    32   15   75 1    
    33   16   17 1    
    34   17   18 1    
    35   17   76 1    
    36   17   77 1    
    37   18   19 1    
    38   18   27 1    
    39   18   78 1    
    40   19   20 am   BACKBONE|DICT|INTERRES
    41   19   79 1    
    42   20   21 2    
    43   20   22 1    
    44   22   23 1    
    45   22   24 1    
    46   22   80 1    
    47   23   81 1    
    48   23   82 1    
    49   23   83 1    
    50   24   25 am   BACKBONE|DICT|INTERRES
    51   24   84 1    
    52   25   26 2    
    53   27   28 2    
    54   27   29 am   BACKBONE|DICT|INTERRES
    55   29   30 1    
    56   29   85 1    
    57   30   31 1    
    58   30   32 1    
    59   30   86 1    
    60   31   87 1    
    61   31   88 1    
    62   31   89 1    
    63   32   33 2    
    64   32   34 am   BACKBONE|DICT|INTERRES
    65   34   35 1    
    66   34   90 1    
    67   35   36 1    
    68   35   37 1    
    69   35   91 1    
    70   36   92 1    
    71   36   93 1    
    72   36   94 1    
    73   37   38 2    
    74   37   39 am   BACKBONE|DICT|INTERRES
    75   39   40 1    
    76   39   95 1    
    77   40   41 1    
    78   40   42 1    
    79   40   96 1    
    80   41   97 1    
    81   41   98 1    
    82   41   99 1    
    83   42   43 2    
    84   42   44 am   BACKBONE|DICT|INTERRES
    85   44   45 1    
    86   44  100 1    
    87   45   46 1    
    88   45   47 1    
    89   45  101 1    
    90   46  102 1    
    91   46  103 1    
    92   46  104 1    
    93   47   48 2    
    94   47   49 am   BACKBONE|DICT|INTERRES
    95   49   50 1    
    96   49  105 1    
    97   50   51 1    
    98   50   52 1    
    99   50  106 1    
   100   51  107 1    
   101   51  108 1    
   102   51  109 1    
   103   52   53 2    
   104   52   54 am   BACKBONE|DICT|INTERRES
   105   54   55 1    
   106   54  110 1    
   107   55   56 1    
   108   55   59 1    
   109   55  111 1    
   110   56   57 am   BACKBONE|DICT|INTERRES
   111   56   58 2    
   112   57  112 1    
   113   57  113 1    
   114   59   60 1    
   115   59  114 1    
   116   59  115 1    
   117   60   61 1    
   118   61  116 1    
   119   61  117 1    
@<TRIPOS>SUBSTRUCTURE
     1 UNK         1 GROUP             0       ****    0 ROOT    
