@<TRIPOS>MOLECULE
3R8
117   119    1
SMALL
USER_CHARGES


@<TRIPOS>ATOM
      1 CA         15.1064  -23.0320  -47.4302 C.3       0 UNK        -0.2013 
      2 C          16.4815  -23.6818  -47.3908 C.2       0 UNK         0.4866 
      3 O          17.4474  -23.0991  -47.8836 O.2       0 UNK        -0.5176 
      4 N          16.5766  -24.8868  -46.8119 N.am      1 UNK        -0.4884 
      5 CA         17.8234  -25.6518  -46.6710 C.3       1 UNK         0.0853 
      6 C6         17.5277  -27.1304  -46.3065 C.3       10 UNK        -0.0849 
      7 S7         18.8937  -28.2668  -46.7261 S.3       10 UNK        -0.2776 
      8 C8         19.7256  -28.4851  -45.1180 C.3       10 UNK         0.0316 
      9 C9         18.9389  -29.3860  -44.1779 C.ar      10 UNK        -0.0863 
     10 C10        19.0032  -30.7734  -44.3286 C.ar      10 UNK        -0.1009 
     11 C11        18.3035  -31.6167  -43.4609 C.ar      10 UNK        -0.0712 
     12 C12        17.5452  -31.0596  -42.4255 C.ar      10 UNK        -0.0894 
     13 C13        17.4792  -29.6720  -42.2575 C.ar      10 UNK        -0.0745 
     14 C14        18.1675  -28.8410  -43.1468 C.ar      10 UNK        -0.0972 
     15 C15        16.6532  -29.0775  -41.1240 C.3       10 UNK         0.0209 
     16 S16        17.6745  -28.7301  -39.6515 S.3       10 UNK        -0.2568 
     17 C17        17.8627  -26.9137  -39.7204 C.3       10 UNK        -0.0983 
     18 CA         19.1015  -26.4664  -40.5426 C.3       3 UNK         0.0876 
     19 N          18.7787  -25.3527  -41.4494 N.am      3 UNK        -0.4424 
     20 C          19.4797  -25.0101  -42.5378 C.2       2 UNK         0.4918 
     21 O          20.5407  -25.5493  -42.8523 O.2       2 UNK        -0.4875 
     22 CA         18.8957  -23.8755  -43.3956 C.3       2 UNK         0.0481 
     23 CB         19.9510  -22.8022  -43.7326 C.3       2 UNK        -0.1831 
     24 N          18.2372  -24.4100  -44.5935 N.am      2 UNK        -0.4498 
     25 C          18.7978  -25.0080  -45.6591 C.2       1 UNK         0.5027 
     26 O          20.0092  -25.0700  -45.8707 O.2       1 UNK        -0.4969 
     27 C          20.3756  -26.2638  -39.6856 C.2       3 UNK         0.5005 
     28 O          20.7312  -27.1471  -38.9071 O.2       3 UNK        -0.5279 
     29 N          21.1027  -25.1562  -39.8947 N.am      4 UNK        -0.4463 
     30 CA         22.5083  -25.0044  -39.5044 C.3       4 UNK         0.0283 
     31 CB         22.9520  -23.5549  -39.7566 C.3       4 UNK        -0.1875 
     32 C          23.4346  -25.9896  -40.2501 C.2       4 UNK         0.4949 
     33 O          24.4804  -26.3564  -39.7161 O.2       4 UNK        -0.5039 
     34 N          23.0171  -26.4370  -41.4451 N.am      5 UNK        -0.4663 
     35 CA         23.6865  -27.4526  -42.2613 C.3       5 UNK         0.0242 
     36 CB         23.3518  -27.1966  -43.7416 C.3       5 UNK        -0.1982 
     37 C          23.3438  -28.9010  -41.8522 C.2       5 UNK         0.5017 
     38 O          23.6255  -29.8192  -42.6238 O.2       5 UNK        -0.5012 
     39 N          22.7726  -29.1111  -40.6539 N.am      6 UNK        -0.4439 
     40 CA         22.3971  -30.4224  -40.1031 C.3       6 UNK         0.0297 
     41 CB         21.6928  -30.2434  -38.7496 C.3       6 UNK        -0.2006 
     42 C          23.5469  -31.4428  -39.9786 C.2       6 UNK         0.4892 
     43 O          23.2732  -32.6404  -39.9055 O.2       6 UNK        -0.5089 
     44 N          24.8034  -30.9769  -40.0140 N.am      7 UNK        -0.4243 
     45 CA         26.0017  -31.8124  -40.1334 C.3       7 UNK         0.0196 
     46 CB         27.2506  -30.9264  -40.0002 C.3       7 UNK        -0.2007 
     47 C          26.0559  -32.6276  -41.4422 C.2       7 UNK         0.5020 
     48 O          26.6284  -33.7174  -41.4420 O.2       7 UNK        -0.5147 
     49 N          25.4532  -32.1074  -42.5232 N.am      8 UNK        -0.4734 
     50 CA         25.2888  -32.8209  -43.7940 C.3       8 UNK         0.0238 
     51 CB         25.1894  -31.8029  -44.9424 C.3       8 UNK        -0.1912 
     52 C          24.0564  -33.7426  -43.7850 C.2       8 UNK         0.5038 
     53 O          24.0521  -34.7463  -44.4986 O.2       8 UNK        -0.5046 
     54 N          23.0407  -33.3856  -42.9875 N.am      9 UNK        -0.4200 
     55 CA         21.8288  -34.1802  -42.7461 C.3       9 UNK         0.0839 
     56 C          22.1230  -35.4649  -41.9234 C.2       9 UNK         0.5513 
     57 N          22.8507  -35.3588  -40.8182 N.am      9 UNK        -0.7519 
     58 O          21.7056  -36.5580  -42.2966 O.2       9 UNK        -0.4960 
     59 C59        20.7259  -33.3074  -42.0926 C.3       10 UNK        -0.0876 
     60 S60        19.0487  -34.0138  -42.2230 S.3       10 UNK        -0.2414 
     61 C61        18.3622  -33.1271  -43.6590 C.3       10 UNK         0.0169 
     62 H62        14.8090  -22.8458  -48.4610 H         1 UNK         0.0903 
     63 H63        14.3449  -23.6573  -46.9666 H         1 UNK         0.0903 
     64 H64        15.1270  -22.0786  -46.9048 H         1 UNK         0.0903 
     65 H65        15.7434  -25.3223  -46.4405 H         1 UNK         0.3096 
     66 H66        18.3188  -25.6337  -47.6450 H         1 UNK         0.1121 
     67 H67        17.2425  -27.2361  -45.2592 H         1 UNK         0.0849 
     68 H68        16.6649  -27.4805  -46.8757 H         1 UNK         0.0849 
     69 H69        20.7105  -28.9218  -45.2917 H         1 UNK         0.0865 
     70 H70        19.9098  -27.5157  -44.6555 H         1 UNK         0.0865 
     71 H71        19.5963  -31.1947  -45.1292 H         1 UNK         0.1346 
     72 H72        17.0097  -31.7105  -41.7477 H         1 UNK         0.1412 
     73 H73        18.1063  -27.7685  -43.0328 H         1 UNK         0.1426 
     74 H74        16.1434  -28.1761  -41.4664 H         1 UNK         0.0716 
     75 H75        15.8632  -29.7737  -40.8378 H         1 UNK         0.0716 
     76 H76        17.9068  -26.5316  -38.6986 H         1 UNK         0.0695 
     77 H77        16.9431  -26.4972  -40.1339 H         1 UNK         0.0695 
     78 H78        19.3803  -27.2958  -41.1940 H         1 UNK         0.0983 
     79 H79        17.9339  -24.8409  -41.2370 H         1 UNK         0.3095 
     80 H80        18.1120  -23.3819  -42.8187 H         1 UNK         0.0454 
     81 H81        20.3205  -22.3250  -42.8243 H         1 UNK         0.0851 
     82 H82        19.5320  -22.0185  -44.3635 H         1 UNK         0.0851 
     83 H83        20.8171  -23.2187  -44.2476 H         1 UNK         0.0851 
     84 H84        17.2272  -24.4078  -44.5613 H         1 UNK         0.2976 
     85 H85        20.7384  -24.4740  -40.5430 H         1 UNK         0.3116 
     86 H86        22.5908  -25.2114  -38.4353 H         1 UNK         0.0646 
     87 H87        22.3454  -22.8486  -39.1895 H         1 UNK         0.0847 
     88 H88        23.9887  -23.4069  -39.4506 H         1 UNK         0.0847 
     89 H89        22.8833  -23.2876  -40.8119 H         1 UNK         0.0847 
     90 H90        22.1448  -26.0784  -41.8242 H         1 UNK         0.3040 
     91 H91        24.7664  -27.3420  -42.1404 H         1 UNK         0.1015 
     92 H92        23.6100  -26.1797  -44.0376 H         1 UNK         0.0786 
     93 H93        22.2907  -27.3423  -43.9431 H         1 UNK         0.0786 
     94 H94        23.9043  -27.8723  -44.3961 H         1 UNK         0.0786 
     95 H95        22.5589  -28.3062  -40.0796 H         1 UNK         0.3172 
     96 H96        21.6726  -30.8522  -40.7960 H         1 UNK         0.0595 
     97 H97        22.2975  -29.6648  -38.0501 H         1 UNK         0.0839 
     98 H98        21.4818  -31.2064  -38.2818 H         1 UNK         0.0839 
     99 H99        20.7342  -29.7385  -38.8693 H         1 UNK         0.0839 
    100 H100       24.9372  -29.9774  -40.0604 H         1 UNK         0.2998 
    101 H101       25.9937  -32.5242  -39.3050 H         1 UNK         0.0822 
    102 H102       27.2681  -30.4052  -39.0426 H         1 UNK         0.0787 
    103 H103       28.1611  -31.5249  -40.0581 H         1 UNK         0.0787 
    104 H104       27.3014  -30.1781  -40.7924 H         1 UNK         0.0787 
    105 H105       24.9854  -31.2078  -42.4485 H         1 UNK         0.3055 
    106 H106       26.1670  -33.4466  -43.9708 H         1 UNK         0.1106 
    107 H107       24.3089  -31.1663  -44.8470 H         1 UNK         0.0828 
    108 H108       26.0673  -31.1578  -44.9783 H         1 UNK         0.0828 
    109 H109       25.1204  -32.3096  -45.9061 H         1 UNK         0.0828 
    110 H110       23.1583  -32.5626  -42.4165 H         1 UNK         0.2931 
    111 H111       21.4620  -34.4937  -43.7260 H         1 UNK         0.0412 
    112 H112       23.1436  -34.4433  -40.4871 H         1 UNK         0.3472 
    113 H113       23.0586  -36.1826  -40.2768 H         1 UNK         0.3472 
    114 H114       20.9353  -33.1470  -41.0342 H         1 UNK         0.0970 
    115 H115       20.7247  -32.3144  -42.5422 H         1 UNK         0.0970 
    116 H116       18.9534  -33.3823  -44.5400 H         1 UNK         0.0612 
    117 H117       17.3537  -33.4968  -43.8489 H         1 UNK         0.0612 
@<TRIPOS>BOND
     1    1    2 1    
     2    1   62 1    
     3    1   63 1    
     4    1   64 1    
     5    2    3 2    
     6    2    4 am   BACKBONE|DICT|INTERRES
     7    4    5 1    
     8    4   65 1    
     9    5    6 1    
    10    5   25 1    
    11    5   66 1    
    12    6    7 1    
    13    6   67 1    
    14    6   68 1    
    15    7    8 1    
    16    8    9 1    
    17    8   69 1    
    18    8   70 1    
    19    9   10 ar   
    20    9   14 ar   
    21   10   11 ar   
    22   10   71 1    
    23   11   12 ar   
    24   11   61 1    
    25   12   13 ar   
    26   12   72 1    
    27   13   14 ar   
    28   13   15 1    
    29   14   73 1    
    30   15   16 1    
    31   15   74 1    
    32   15   75 1    
    33   16   17 1    
    34   17   18 1    
    35   17   76 1    
    36   17   77 1    
    37   18   19 1    
    38   18   27 1    
    39   18   78 1    
    40   19   20 am   BACKBONE|DICT|INTERRES
    41   19   79 1    
    42   20   21 2    
    43   20   22 1    
    44   22   23 1    
    45   22   24 1    
    46   22   80 1    
    47   23   81 1    
    48   23   82 1    
    49   23   83 1    
    50   24   25 am   BACKBONE|DICT|INTERRES
    51   24   84 1    
    52   25   26 2    
    53   27   28 2    
    54   27   29 am   BACKBONE|DICT|INTERRES
    55   29   30 1    
    56   29   85 1    
    57   30   31 1    
    58   30   32 1    
    59   30   86 1    
    60   31   87 1    
    61   31   88 1    
    62   31   89 1    
    63   32   33 2    
    64   32   34 am   BACKBONE|DICT|INTERRES
    65   34   35 1    
    66   34   90 1    
    67   35   36 1    
    68   35   37 1    
    69   35   91 1    
    70   36   92 1    
    71   36   93 1    
    72   36   94 1    
    73   37   38 2    
    74   37   39 am   BACKBONE|DICT|INTERRES
    75   39   40 1    
    76   39   95 1    
    77   40   41 1    
    78   40   42 1    
    79   40   96 1    
    80   41   97 1    
    81   41   98 1    
    82   41   99 1    
    83   42   43 2    
    84   42   44 am   BACKBONE|DICT|INTERRES
    85   44   45 1    
    86   44  100 1    
    87   45   46 1    
    88   45   47 1    
    89   45  101 1    
    90   46  102 1    
    91   46  103 1    
    92   46  104 1    
    93   47   48 2    
    94   47   49 am   BACKBONE|DICT|INTERRES
    95   49   50 1    
    96   49  105 1    
    97   50   51 1    
    98   50   52 1    
    99   50  106 1    
   100   51  107 1    
   101   51  108 1    
   102   51  109 1    
   103   52   53 2    
   104   52   54 am   BACKBONE|DICT|INTERRES
   105   54   55 1    
   106   54  110 1    
   107   55   56 1    
   108   55   59 1    
   109   55  111 1    
   110   56   57 am   BACKBONE|DICT|INTERRES
   111   56   58 2    
   112   57  112 1    
   113   57  113 1    
   114   59   60 1    
   115   59  114 1    
   116   59  115 1    
   117   60   61 1    
   118   61  116 1    
   119   61  117 1    
@<TRIPOS>SUBSTRUCTURE
     1 UNK         1 GROUP             0       ****    0 ROOT    
