@<TRIPOS>MOLECULE
3R8
117   119    1
SMALL
USER_CHARGES


@<TRIPOS>ATOM
      1 CA         20.6080  -25.4843  -39.0276 C.3       0 UNK        -0.2013 
      2 C          19.7480  -25.3905  -40.2763 C.2       0 UNK         0.4866 
      3 O          19.2622  -24.3083  -40.6076 O.2       0 UNK        -0.5176 
      4 N          19.5590  -26.5154  -40.9752 N.am      1 UNK        -0.4884 
      5 CA         18.8587  -26.5762  -42.2595 C.3       1 UNK         0.0853 
      6 C6         18.3953  -28.0085  -42.6058 C.3       10 UNK        -0.0849 
      7 S7         17.1685  -28.6807  -41.4316 S.3       10 UNK        -0.2776 
      8 C8         15.9925  -29.5371  -42.5390 C.3       10 UNK         0.0316 
      9 C9         16.6939  -30.3803  -43.5983 C.ar      10 UNK        -0.0863 
     10 C10        17.5027  -31.4576  -43.2244 C.ar      10 UNK        -0.1009 
     11 C11        18.2128  -32.1794  -44.1882 C.ar      10 UNK        -0.0712 
     12 C12        18.0886  -31.8349  -45.5370 C.ar      10 UNK        -0.0894 
     13 C13        17.2847  -30.7586  -45.9231 C.ar      10 UNK        -0.0745 
     14 C14        16.5772  -30.0453  -44.9515 C.ar      10 UNK        -0.0972 
     15 C15        17.2206  -30.3359  -47.3843 C.3       10 UNK         0.0209 
     16 S16        18.0972  -28.7633  -47.6811 S.3       10 UNK        -0.2568 
     17 C17        19.7899  -29.1739  -47.1325 C.3       10 UNK        -0.0983 
     18 CA         20.7534  -27.9603  -47.1474 C.3       3 UNK         0.0876 
     19 N          20.2172  -26.8384  -46.3756 N.am      3 UNK        -0.4424 
     20 C          20.7083  -25.5937  -46.3494 C.2       2 UNK         0.4918 
     21 O          21.6582  -25.2169  -47.0357 O.2       2 UNK        -0.4875 
     22 CA         20.0389  -24.6017  -45.3751 C.3       2 UNK         0.0481 
     23 CB         19.1088  -23.6494  -46.1434 C.3       2 UNK        -0.1831 
     24 N          19.2892  -25.2172  -44.2679 N.am      2 UNK        -0.4498 
     25 C          19.7994  -26.0662  -43.3638 C.2       1 UNK         0.5027 
     26 O          20.9522  -26.5009  -43.4147 O.2       1 UNK        -0.4969 
     27 C          22.1533  -28.4128  -46.6718 C.2       3 UNK         0.5005 
     28 O          22.8910  -28.9792  -47.4808 O.2       3 UNK        -0.5279 
     29 N          22.4870  -28.1993  -45.3873 N.am      4 UNK        -0.4463 
     30 CA         23.7062  -28.7297  -44.7638 C.3       4 UNK         0.0283 
     31 CB         23.3754  -30.0507  -44.0480 C.3       4 UNK        -0.1875 
     32 C          24.3995  -27.7648  -43.7916 C.2       4 UNK         0.4949 
     33 O          25.5954  -27.9370  -43.5553 O.2       4 UNK        -0.5039 
     34 N          23.6635  -26.8109  -43.2027 N.am      5 UNK        -0.4663 
     35 CA         24.0594  -25.8365  -42.1713 C.3       5 UNK         0.0242 
     36 CB         25.1914  -24.9130  -42.6608 C.3       5 UNK        -0.1982 
     37 C          24.3920  -26.4529  -40.7983 C.2       5 UNK         0.5017 
     38 O          24.0169  -25.8799  -39.7745 O.2       5 UNK        -0.5012 
     39 N          25.0661  -27.6082  -40.7892 N.am      6 UNK        -0.4439 
     40 CA         25.3767  -28.4257  -39.6183 C.3       6 UNK         0.0297 
     41 CB         26.5187  -29.3930  -39.9800 C.3       6 UNK        -0.2006 
     42 C          24.1227  -29.1660  -39.1192 C.2       6 UNK         0.4892 
     43 O          23.9704  -30.3623  -39.3768 O.2       6 UNK        -0.5089 
     44 N          23.2393  -28.4254  -38.4351 N.am      7 UNK        -0.4243 
     45 CA         21.9498  -28.8687  -37.8914 C.3       7 UNK         0.0196 
     46 CB         22.1703  -29.8521  -36.7180 C.3       7 UNK        -0.2007 
     47 C          21.0219  -29.4079  -39.0002 C.2       7 UNK         0.5020 
     48 O          20.9960  -28.8449  -40.0969 O.2       7 UNK        -0.5147 
     49 N          20.2867  -30.4867  -38.7131 N.am      8 UNK        -0.4734 
     50 CA         19.4763  -31.2227  -39.6818 C.3       8 UNK         0.0238 
     51 CB         18.1748  -31.6878  -39.0020 C.3       8 UNK        -0.1912 
     52 C          20.3004  -32.3839  -40.2615 C.2       8 UNK         0.5038 
     53 O          19.9472  -33.5477  -40.0620 O.2       8 UNK        -0.5046 
     54 N          21.3948  -32.0363  -40.9507 N.am      9 UNK        -0.4200 
     55 CA         22.3515  -32.9609  -41.5831 C.3       9 UNK         0.0839 
     56 C          23.1470  -33.8073  -40.5468 C.2       9 UNK         0.5513 
     57 N          23.6744  -33.1914  -39.4970 N.am      9 UNK        -0.7519 
     58 O          23.2970  -35.0191  -40.6871 O.2       9 UNK        -0.4960 
     59 C59        21.7267  -33.8181  -42.7249 C.3       10 UNK        -0.0876 
     60 S60        20.8861  -32.8039  -43.9879 S.3       10 UNK        -0.2414 
     61 C61        19.1480  -33.3018  -43.7699 C.3       10 UNK         0.0169 
     62 H62        20.0009  -25.7637  -38.1672 H         1 UNK         0.0903 
     63 H63        21.3959  -26.2235  -39.1576 H         1 UNK         0.0903 
     64 H64        21.0848  -24.5271  -38.8175 H         1 UNK         0.0903 
     65 H65        20.0215  -27.3760  -40.6854 H         1 UNK         0.3096 
     66 H66        17.9802  -25.9286  -42.2120 H         1 UNK         0.1121 
     67 H67        19.2434  -28.6965  -42.6396 H         1 UNK         0.0849 
     68 H68        17.9607  -28.0118  -43.6063 H         1 UNK         0.0849 
     69 H69        15.3415  -30.1766  -41.9414 H         1 UNK         0.0865 
     70 H70        15.3452  -28.7921  -43.0044 H         1 UNK         0.0865 
     71 H71        17.6055  -31.7081  -42.1781 H         1 UNK         0.1346 
     72 H72        18.6532  -32.3817  -46.2800 H         1 UNK         0.1412 
     73 H73        15.9692  -29.2022  -45.2507 H         1 UNK         0.1426 
     74 H74        16.1773  -30.2226  -47.6824 H         1 UNK         0.0716 
     75 H75        17.6426  -31.1068  -48.0310 H         1 UNK         0.0716 
     76 H76        20.1675  -29.9721  -47.7749 H         1 UNK         0.0695 
     77 H77        19.7386  -29.5887  -46.1240 H         1 UNK         0.0695 
     78 H78        20.8610  -27.6223  -48.1805 H         1 UNK         0.0983 
     79 H79        19.4075  -27.0426  -45.8105 H         1 UNK         0.3095 
     80 H80        20.8390  -24.0077  -44.9287 H         1 UNK         0.0454 
     81 H81        18.2657  -24.1799  -46.5879 H         1 UNK         0.0851 
     82 H82        19.6422  -23.1503  -46.9538 H         1 UNK         0.0851 
     83 H83        18.7121  -22.8690  -45.4939 H         1 UNK         0.0851 
     84 H84        18.3277  -24.9235  -44.1672 H         1 UNK         0.2976 
     85 H85        21.8401  -27.6947  -44.7907 H         1 UNK         0.3116 
     86 H86        24.4486  -28.9432  -45.5358 H         1 UNK         0.0646 
     87 H87        22.6009  -29.9171  -43.2915 H         1 UNK         0.0847 
     88 H88        24.2539  -30.4620  -43.5488 H         1 UNK         0.0847 
     89 H89        23.0273  -30.8031  -44.7553 H         1 UNK         0.0847 
     90 H90        22.6646  -26.7821  -43.4023 H         1 UNK         0.3040 
     91 H91        23.1767  -25.2134  -42.0148 H         1 UNK         0.1015 
     92 H92        26.1258  -25.4535  -42.8138 H         1 UNK         0.0786 
     93 H93        25.3905  -24.1257  -41.9326 H         1 UNK         0.0786 
     94 H94        24.9268  -24.4268  -43.5998 H         1 UNK         0.0786 
     95 H95        25.3453  -27.9742  -41.6957 H         1 UNK         0.3172 
     96 H96        25.7285  -27.7746  -38.8153 H         1 UNK         0.0595 
     97 H97        26.2473  -30.0491  -40.8083 H         1 UNK         0.0839 
     98 H98        26.7745  -30.0286  -39.1312 H         1 UNK         0.0839 
     99 H99        27.4217  -28.8524  -40.2638 H         1 UNK         0.0839 
    100 H100       23.4269  -27.4308  -38.3808 H         1 UNK         0.2998 
    101 H101       21.4612  -27.9813  -37.4882 H         1 UNK         0.0822 
    102 H102       22.8636  -29.4370  -35.9862 H         1 UNK         0.0787 
    103 H103       21.2399  -30.0557  -36.1867 H         1 UNK         0.0787 
    104 H104       22.5808  -30.8057  -37.0534 H         1 UNK         0.0787 
    105 H105       20.3926  -30.9103  -37.8021 H         1 UNK         0.3055 
    106 H106       19.2031  -30.5756  -40.5176 H         1 UNK         0.1106 
    107 H107       18.3708  -32.3387  -38.1492 H         1 UNK         0.0828 
    108 H108       17.5463  -32.2429  -39.6994 H         1 UNK         0.0828 
    109 H109       17.5901  -30.8378  -38.6497 H         1 UNK         0.0828 
    110 H110       21.6295  -31.0548  -41.0062 H         1 UNK         0.2931 
    111 H111       23.1011  -32.3218  -42.0508 H         1 UNK         0.0412 
    112 H112       24.1913  -33.7276  -38.8190 H         1 UNK         0.3472 
    113 H113       23.6360  -32.1769  -39.4169 H         1 UNK         0.3472 
    114 H114       21.0389  -34.5611  -42.3187 H         1 UNK         0.0970 
    115 H115       22.5079  -34.3871  -43.2318 H         1 UNK         0.0970 
    116 H116       18.9498  -34.1943  -44.3649 H         1 UNK         0.0612 
    117 H117       18.9632  -33.5739  -42.7301 H         1 UNK         0.0612 
@<TRIPOS>BOND
     1    1    2 1    
     2    1   62 1    
     3    1   63 1    
     4    1   64 1    
     5    2    3 2    
     6    2    4 am   BACKBONE|DICT|INTERRES
     7    4    5 1    
     8    4   65 1    
     9    5    6 1    
    10    5   25 1    
    11    5   66 1    
    12    6    7 1    
    13    6   67 1    
    14    6   68 1    
    15    7    8 1    
    16    8    9 1    
    17    8   69 1    
    18    8   70 1    
    19    9   10 ar   
    20    9   14 ar   
    21   10   11 ar   
    22   10   71 1    
    23   11   12 ar   
    24   11   61 1    
    25   12   13 ar   
    26   12   72 1    
    27   13   14 ar   
    28   13   15 1    
    29   14   73 1    
    30   15   16 1    
    31   15   74 1    
    32   15   75 1    
    33   16   17 1    
    34   17   18 1    
    35   17   76 1    
    36   17   77 1    
    37   18   19 1    
    38   18   27 1    
    39   18   78 1    
    40   19   20 am   BACKBONE|DICT|INTERRES
    41   19   79 1    
    42   20   21 2    
    43   20   22 1    
    44   22   23 1    
    45   22   24 1    
    46   22   80 1    
    47   23   81 1    
    48   23   82 1    
    49   23   83 1    
    50   24   25 am   BACKBONE|DICT|INTERRES
    51   24   84 1    
    52   25   26 2    
    53   27   28 2    
    54   27   29 am   BACKBONE|DICT|INTERRES
    55   29   30 1    
    56   29   85 1    
    57   30   31 1    
    58   30   32 1    
    59   30   86 1    
    60   31   87 1    
    61   31   88 1    
    62   31   89 1    
    63   32   33 2    
    64   32   34 am   BACKBONE|DICT|INTERRES
    65   34   35 1    
    66   34   90 1    
    67   35   36 1    
    68   35   37 1    
    69   35   91 1    
    70   36   92 1    
    71   36   93 1    
    72   36   94 1    
    73   37   38 2    
    74   37   39 am   BACKBONE|DICT|INTERRES
    75   39   40 1    
    76   39   95 1    
    77   40   41 1    
    78   40   42 1    
    79   40   96 1    
    80   41   97 1    
    81   41   98 1    
    82   41   99 1    
    83   42   43 2    
    84   42   44 am   BACKBONE|DICT|INTERRES
    85   44   45 1    
    86   44  100 1    
    87   45   46 1    
    88   45   47 1    
    89   45  101 1    
    90   46  102 1    
    91   46  103 1    
    92   46  104 1    
    93   47   48 2    
    94   47   49 am   BACKBONE|DICT|INTERRES
    95   49   50 1    
    96   49  105 1    
    97   50   51 1    
    98   50   52 1    
    99   50  106 1    
   100   51  107 1    
   101   51  108 1    
   102   51  109 1    
   103   52   53 2    
   104   52   54 am   BACKBONE|DICT|INTERRES
   105   54   55 1    
   106   54  110 1    
   107   55   56 1    
   108   55   59 1    
   109   55  111 1    
   110   56   57 am   BACKBONE|DICT|INTERRES
   111   56   58 2    
   112   57  112 1    
   113   57  113 1    
   114   59   60 1    
   115   59  114 1    
   116   59  115 1    
   117   60   61 1    
   118   61  116 1    
   119   61  117 1    
@<TRIPOS>SUBSTRUCTURE
     1 UNK         1 GROUP             0       ****    0 ROOT    
