@<TRIPOS>MOLECULE
3R8
117   119    1
SMALL
USER_CHARGES


@<TRIPOS>ATOM
      1 CA         15.3159  -23.7950  -42.5838 C.3       0 UNK        -0.2013 
      2 C          16.6459  -23.7322  -41.8396 C.2       0 UNK         0.4866 
      3 O          16.7291  -23.0713  -40.8061 O.2       0 UNK        -0.5176 
      4 N          17.7084  -24.3911  -42.3146 N.am      1 UNK        -0.4884 
      5 CA         17.7995  -25.2046  -43.5270 C.3       1 UNK         0.0853 
      6 C6         17.0851  -26.5790  -43.3834 C.3       10 UNK        -0.0849 
      7 S7         15.7334  -26.8044  -44.5853 S.3       10 UNK        -0.2776 
      8 C8         16.5486  -27.7186  -45.9430 C.3       10 UNK         0.0316 
      9 C9         17.1785  -29.0640  -45.5727 C.ar      10 UNK        -0.0863 
     10 C10        16.8077  -29.7890  -44.4305 C.ar      10 UNK        -0.1009 
     11 C11        17.4038  -31.0169  -44.1251 C.ar      10 UNK        -0.0712 
     12 C12        18.3600  -31.5365  -45.0057 C.ar      10 UNK        -0.0894 
     13 C13        18.7435  -30.8288  -46.1484 C.ar      10 UNK        -0.0745 
     14 C14        18.1480  -29.5975  -46.4269 C.ar      10 UNK        -0.0972 
     15 C15        19.8085  -31.4004  -47.0761 C.3       10 UNK         0.0209 
     16 S16        21.4143  -30.5480  -46.9167 S.3       10 UNK        -0.2568 
     17 C17        21.7285  -30.6372  -45.1175 C.3       10 UNK        -0.0983 
     18 CA         22.0534  -29.2722  -44.4548 C.3       3 UNK         0.0876 
     19 N          21.3699  -28.1143  -45.0461 N.am      3 UNK        -0.4424 
     20 C          21.8125  -26.8569  -44.9036 C.2       2 UNK         0.4918 
     21 O          22.7905  -26.5530  -44.2185 O.2       2 UNK        -0.4875 
     22 CA         21.0079  -25.7515  -45.6075 C.3       2 UNK         0.0481 
     23 CB         20.9863  -25.9611  -47.1317 C.3       2 UNK        -0.1831 
     24 N          19.6366  -25.6102  -45.1056 N.am      2 UNK        -0.4498 
     25 C          19.2976  -25.3823  -43.8285 C.2       1 UNK         0.5027 
     26 O          20.1068  -25.3355  -42.8979 O.2       1 UNK        -0.4969 
     27 C          21.8389  -29.3433  -42.9313 C.2       3 UNK         0.5005 
     28 O          22.6705  -29.9291  -42.2405 O.2       3 UNK        -0.5279 
     29 N          20.7493  -28.7435  -42.4258 N.am      4 UNK        -0.4463 
     30 CA         20.4690  -28.5964  -40.9949 C.3       4 UNK         0.0283 
     31 CB         19.0438  -28.0670  -40.7789 C.3       4 UNK        -0.1875 
     32 C          21.5052  -27.7039  -40.2943 C.2       4 UNK         0.4949 
     33 O          21.9713  -28.0558  -39.2121 O.2       4 UNK        -0.5039 
     34 N          21.8791  -26.5916  -40.9392 N.am      5 UNK        -0.4663 
     35 CA         22.9519  -25.7097  -40.4839 C.3       5 UNK         0.0242 
     36 CB         22.8465  -24.3581  -41.2088 C.3       5 UNK        -0.1982 
     37 C          24.3425  -26.3318  -40.6889 C.2       5 UNK         0.5017 
     38 O          25.1750  -26.2537  -39.7849 O.2       5 UNK        -0.5012 
     39 N          24.5753  -26.9153  -41.8736 N.am      6 UNK        -0.4439 
     40 CA         25.8861  -27.4197  -42.2877 C.3       6 UNK         0.0297 
     41 CB         25.9278  -27.5640  -43.8171 C.3       6 UNK        -0.2006 
     42 C          26.3106  -28.7372  -41.6168 C.2       6 UNK         0.4892 
     43 O          27.4922  -28.8780  -41.2975 O.2       6 UNK        -0.5089 
     44 N          25.3807  -29.6893  -41.4544 N.am      7 UNK        -0.4243 
     45 CA         25.6923  -31.0704  -41.0688 C.3       7 UNK         0.0196 
     46 CB         26.0273  -31.8842  -42.3362 C.3       7 UNK        -0.2007 
     47 C          24.5811  -31.7327  -40.2366 C.2       7 UNK         0.5020 
     48 O          24.4990  -32.9620  -40.2186 O.2       7 UNK        -0.5147 
     49 N          23.7349  -30.9309  -39.5714 N.am      8 UNK        -0.4734 
     50 CA         22.6223  -31.3565  -38.7058 C.3       8 UNK         0.0238 
     51 CB         23.1689  -31.9912  -37.4083 C.3       8 UNK        -0.1912 
     52 C          21.5778  -32.2536  -39.4067 C.2       8 UNK         0.5038 
     53 O          20.9660  -33.0960  -38.7475 O.2       8 UNK        -0.5046 
     54 N          21.3967  -32.0649  -40.7235 N.am      9 UNK        -0.4200 
     55 CA         20.5432  -32.8820  -41.6058 C.3       9 UNK         0.0839 
     56 C          21.1059  -34.3208  -41.8547 C.2       9 UNK         0.5513 
     57 N          22.3623  -34.6110  -41.5324 N.am      9 UNK        -0.7519 
     58 O          20.4158  -35.1892  -42.3800 O.2       9 UNK        -0.4960 
     59 C59        19.0433  -32.8311  -41.1741 C.3       10 UNK        -0.0876 
     60 S60        17.8321  -33.3035  -42.4634 S.3       10 UNK        -0.2414 
     61 C61        16.9548  -31.7448  -42.8541 C.3       10 UNK         0.0169 
     62 H62        14.6216  -23.0550  -42.1863 H         1 UNK         0.0903 
     63 H63        15.4387  -23.5903  -43.6463 H         1 UNK         0.0903 
     64 H64        14.8586  -24.7765  -42.4653 H         1 UNK         0.0903 
     65 H65        18.5970  -24.3221  -41.8310 H         1 UNK         0.3096 
     66 H66        17.3789  -24.6294  -44.3541 H         1 UNK         0.1121 
     67 H67        16.6465  -26.6875  -42.3900 H         1 UNK         0.0849 
     68 H68        17.7781  -27.4172  -43.4621 H         1 UNK         0.0849 
     69 H69        15.8072  -27.8958  -46.7232 H         1 UNK         0.0865 
     70 H70        17.3037  -27.0692  -46.3865 H         1 UNK         0.0865 
     71 H71        16.0481  -29.4020  -43.7660 H         1 UNK         0.1346 
     72 H72        18.8268  -32.4903  -44.8085 H         1 UNK         0.1412 
     73 H73        18.4410  -29.0571  -47.3172 H         1 UNK         0.1426 
     74 H74        19.4687  -31.3236  -48.1099 H         1 UNK         0.0716 
     75 H75        19.9551  -32.4645  -46.8837 H         1 UNK         0.0716 
     76 H76        22.5661  -31.3201  -44.9637 H         1 UNK         0.0695 
     77 H77        20.8910  -31.1194  -44.6203 H         1 UNK         0.0695 
     78 H78        23.1220  -29.1125  -44.6059 H         1 UNK         0.0983 
     79 H79        20.5734  -28.3108  -45.6342 H         1 UNK         0.3095 
     80 H80        21.5205  -24.8075  -45.4109 H         1 UNK         0.0454 
     81 H81        21.9969  -26.0901  -47.5224 H         1 UNK         0.0851 
     82 H82        20.4118  -26.8421  -47.4197 H         1 UNK         0.0851 
     83 H83        20.5546  -25.1004  -47.6427 H         1 UNK         0.0851 
     84 H84        18.9067  -25.6278  -45.8023 H         1 UNK         0.2976 
     85 H85        20.1222  -28.2844  -43.0682 H         1 UNK         0.3116 
     86 H86        20.5196  -29.5834  -40.5380 H         1 UNK         0.0646 
     87 H87        18.9264  -27.0494  -41.1496 H         1 UNK         0.0847 
     88 H88        18.7976  -28.0493  -39.7164 H         1 UNK         0.0847 
     89 H89        18.3038  -28.6991  -41.2698 H         1 UNK         0.0847 
     90 H90        21.4072  -26.3309  -41.8005 H         1 UNK         0.3040 
     91 H91        22.8220  -25.5316  -39.4138 H         1 UNK         0.1015 
     92 H92        23.6342  -23.6769  -40.8843 H         1 UNK         0.0786 
     93 H93        21.8921  -23.8733  -41.0023 H         1 UNK         0.0786 
     94 H94        22.9337  -24.4701  -42.2905 H         1 UNK         0.0786 
     95 H95        23.8460  -26.8867  -42.5808 H         1 UNK         0.3172 
     96 H96        26.6278  -26.6653  -42.0154 H         1 UNK         0.0595 
     97 H97        25.2313  -28.3222  -44.1717 H         1 UNK         0.0839 
     98 H98        26.9233  -27.8580  -44.1528 H         1 UNK         0.0839 
     99 H99        25.6839  -26.6245  -44.3136 H         1 UNK         0.0839 
    100 H100       24.4196  -29.5226  -41.7464 H         1 UNK         0.2998 
    101 H101       26.5712  -31.0738  -40.4208 H         1 UNK         0.0822 
    102 H102       26.8541  -31.4389  -42.8897 H         1 UNK         0.0787 
    103 H103       26.3240  -32.9040  -42.0878 H         1 UNK         0.0787 
    104 H104       25.1690  -31.9453  -43.0066 H         1 UNK         0.0787 
    105 H105       23.8526  -29.9309  -39.6677 H         1 UNK         0.3055 
    106 H106       22.0838  -30.4548  -38.4170 H         1 UNK         0.1106 
    107 H107       23.8853  -31.3335  -36.9162 H         1 UNK         0.0828 
    108 H108       22.3663  -32.1816  -36.6947 H         1 UNK         0.0828 
    109 H109       23.6643  -32.9433  -37.6012 H         1 UNK         0.0828 
    110 H110       21.9640  -31.3606  -41.1881 H         1 UNK         0.2931 
    111 H111       20.6087  -32.3879  -42.5748 H         1 UNK         0.0412 
    112 H112       22.9673  -33.9280  -41.0884 H         1 UNK         0.3472 
    113 H113       22.7095  -35.5394  -41.7120 H         1 UNK         0.3472 
    114 H114       18.8793  -33.4829  -40.3147 H         1 UNK         0.0970 
    115 H115       18.8008  -31.8269  -40.8253 H         1 UNK         0.0970 
    116 H116       17.0146  -31.0632  -42.0050 H         1 UNK         0.0612 
    117 H117       15.8979  -31.9891  -42.9684 H         1 UNK         0.0612 
@<TRIPOS>BOND
     1    1    2 1    
     2    1   62 1    
     3    1   63 1    
     4    1   64 1    
     5    2    3 2    
     6    2    4 am   BACKBONE|DICT|INTERRES
     7    4    5 1    
     8    4   65 1    
     9    5    6 1    
    10    5   25 1    
    11    5   66 1    
    12    6    7 1    
    13    6   67 1    
    14    6   68 1    
    15    7    8 1    
    16    8    9 1    
    17    8   69 1    
    18    8   70 1    
    19    9   10 ar   
    20    9   14 ar   
    21   10   11 ar   
    22   10   71 1    
    23   11   12 ar   
    24   11   61 1    
    25   12   13 ar   
    26   12   72 1    
    27   13   14 ar   
    28   13   15 1    
    29   14   73 1    
    30   15   16 1    
    31   15   74 1    
    32   15   75 1    
    33   16   17 1    
    34   17   18 1    
    35   17   76 1    
    36   17   77 1    
    37   18   19 1    
    38   18   27 1    
    39   18   78 1    
    40   19   20 am   BACKBONE|DICT|INTERRES
    41   19   79 1    
    42   20   21 2    
    43   20   22 1    
    44   22   23 1    
    45   22   24 1    
    46   22   80 1    
    47   23   81 1    
    48   23   82 1    
    49   23   83 1    
    50   24   25 am   BACKBONE|DICT|INTERRES
    51   24   84 1    
    52   25   26 2    
    53   27   28 2    
    54   27   29 am   BACKBONE|DICT|INTERRES
    55   29   30 1    
    56   29   85 1    
    57   30   31 1    
    58   30   32 1    
    59   30   86 1    
    60   31   87 1    
    61   31   88 1    
    62   31   89 1    
    63   32   33 2    
    64   32   34 am   BACKBONE|DICT|INTERRES
    65   34   35 1    
    66   34   90 1    
    67   35   36 1    
    68   35   37 1    
    69   35   91 1    
    70   36   92 1    
    71   36   93 1    
    72   36   94 1    
    73   37   38 2    
    74   37   39 am   BACKBONE|DICT|INTERRES
    75   39   40 1    
    76   39   95 1    
    77   40   41 1    
    78   40   42 1    
    79   40   96 1    
    80   41   97 1    
    81   41   98 1    
    82   41   99 1    
    83   42   43 2    
    84   42   44 am   BACKBONE|DICT|INTERRES
    85   44   45 1    
    86   44  100 1    
    87   45   46 1    
    88   45   47 1    
    89   45  101 1    
    90   46  102 1    
    91   46  103 1    
    92   46  104 1    
    93   47   48 2    
    94   47   49 am   BACKBONE|DICT|INTERRES
    95   49   50 1    
    96   49  105 1    
    97   50   51 1    
    98   50   52 1    
    99   50  106 1    
   100   51  107 1    
   101   51  108 1    
   102   51  109 1    
   103   52   53 2    
   104   52   54 am   BACKBONE|DICT|INTERRES
   105   54   55 1    
   106   54  110 1    
   107   55   56 1    
   108   55   59 1    
   109   55  111 1    
   110   56   57 am   BACKBONE|DICT|INTERRES
   111   56   58 2    
   112   57  112 1    
   113   57  113 1    
   114   59   60 1    
   115   59  114 1    
   116   59  115 1    
   117   60   61 1    
   118   61  116 1    
   119   61  117 1    
@<TRIPOS>SUBSTRUCTURE
     1 UNK         1 GROUP             0       ****    0 ROOT    
