@<TRIPOS>MOLECULE
3R8
117   119    1
SMALL
USER_CHARGES


@<TRIPOS>ATOM
      1 CA         15.6425  -23.5881  -40.3897 C.3       0 UNK        -0.2013 
      2 C          15.8211  -24.4240  -41.6482 C.2       0 UNK         0.4866 
      3 O          14.9540  -24.4064  -42.5221 O.2       0 UNK        -0.5176 
      4 N          16.9371  -25.1590  -41.7445 N.am      1 UNK        -0.4884 
      5 CA         17.2779  -26.0241  -42.8814 C.3       1 UNK         0.0853 
      6 C6         18.4918  -26.9319  -42.5650 C.3       10 UNK        -0.0849 
      7 S7         18.0778  -28.2894  -41.4231 S.3       10 UNK        -0.2776 
      8 C8         17.7233  -29.6502  -42.5871 C.3       10 UNK         0.0316 
      9 C9         18.9810  -30.1773  -43.2674 C.ar      10 UNK        -0.0863 
     10 C10        19.8017  -31.0951  -42.6073 C.ar      10 UNK        -0.1009 
     11 C11        20.9518  -31.5955  -43.2263 C.ar      10 UNK        -0.0712 
     12 C12        21.2888  -31.1572  -44.5097 C.ar      10 UNK        -0.0894 
     13 C13        20.4880  -30.2234  -45.1725 C.ar      10 UNK        -0.0745 
     14 C14        19.3221  -29.7576  -44.5570 C.ar      10 UNK        -0.0972 
     15 C15        20.8894  -29.7072  -46.5474 C.3       10 UNK         0.0209 
     16 S16        22.1302  -28.3756  -46.4298 S.3       10 UNK        -0.2568 
     17 C17        21.1965  -27.0927  -45.5293 C.3       10 UNK        -0.0983 
     18 CA         21.6574  -25.6430  -45.8254 C.3       3 UNK         0.0876 
     19 N          20.6891  -24.6926  -45.2885 N.am      3 UNK        -0.4424 
     20 C          19.7598  -24.0328  -45.9872 C.2       2 UNK         0.4918 
     21 O          19.6607  -24.0748  -47.2147 O.2       2 UNK        -0.4875 
     22 CA         18.7397  -23.2385  -45.1420 C.3       2 UNK         0.0481 
     23 CB         17.6102  -22.6122  -45.9867 C.3       2 UNK        -0.1831 
     24 N          18.1873  -24.0580  -44.0513 N.am      2 UNK        -0.4498 
     25 C          17.5570  -25.2394  -44.1783 C.2       1 UNK         0.5027 
     26 O          17.2377  -25.7435  -45.2558 O.2       1 UNK        -0.4969 
     27 C          23.0202  -25.3352  -45.1844 C.2       3 UNK         0.5005 
     28 O          23.0660  -24.8612  -44.0454 O.2       3 UNK        -0.5279 
     29 N          24.1032  -25.6349  -45.9139 N.am      4 UNK        -0.4463 
     30 CA         25.4855  -25.4998  -45.4441 C.3       4 UNK         0.0283 
     31 CB         26.4381  -25.5590  -46.6494 C.3       4 UNK        -0.1875 
     32 C          25.8777  -26.5598  -44.3978 C.2       4 UNK         0.4949 
     33 O          26.7970  -26.3156  -43.6163 O.2       4 UNK        -0.5039 
     34 N          25.1892  -27.7102  -44.4088 N.am      5 UNK        -0.4663 
     35 CA         25.3401  -28.7852  -43.4307 C.3       5 UNK         0.0242 
     36 CB         24.9698  -30.1289  -44.0875 C.3       5 UNK        -0.1982 
     37 C          24.5086  -28.4673  -42.1774 C.2       5 UNK         0.5017 
     38 O          25.0407  -27.8724  -41.2406 O.2       5 UNK        -0.5012 
     39 N          23.2270  -28.8709  -42.1840 N.am      6 UNK        -0.4439 
     40 CA         22.2120  -28.6372  -41.1424 C.3       6 UNK         0.0297 
     41 CB         21.9084  -27.1286  -41.0247 C.3       6 UNK        -0.2006 
     42 C          22.5237  -29.2697  -39.7657 C.2       6 UNK         0.4892 
     43 O          21.9088  -28.8819  -38.7711 O.2       6 UNK        -0.5089 
     44 N          23.4756  -30.2129  -39.7167 N.am      7 UNK        -0.4243 
     45 CA         24.0105  -30.7894  -38.4800 C.3       7 UNK         0.0196 
     46 CB         25.3770  -31.4295  -38.7755 C.3       7 UNK        -0.2007 
     47 C          23.0771  -31.8102  -37.8097 C.2       7 UNK         0.5020 
     48 O          23.0442  -31.8797  -36.5807 O.2       7 UNK        -0.5147 
     49 N          22.3588  -32.5958  -38.6189 N.am      8 UNK        -0.4734 
     50 CA         21.4709  -33.6710  -38.1805 C.3       8 UNK         0.0238 
     51 CB         22.2923  -34.8958  -37.7129 C.3       8 UNK        -0.1912 
     52 C          20.4802  -33.9706  -39.3131 C.2       8 UNK         0.5038 
     53 O          19.5814  -33.1615  -39.5426 O.2       8 UNK        -0.5046 
     54 N          20.6756  -35.0982  -40.0112 N.am      9 UNK        -0.4200 
     55 CA         19.8586  -35.5893  -41.1376 C.3       9 UNK         0.0839 
     56 C          18.4161  -36.0369  -40.7456 C.2       9 UNK         0.5513 
     57 N          18.1215  -36.2795  -39.4738 N.am      9 UNK        -0.7519 
     58 O          17.5559  -36.2011  -41.6073 O.2       9 UNK        -0.4960 
     59 C59        19.8737  -34.6428  -42.3739 C.3       10 UNK        -0.0876 
     60 S60        21.5526  -34.3065  -43.0148 S.3       10 UNK        -0.2414 
     61 C61        21.8474  -32.5852  -42.4979 C.3       10 UNK         0.0169 
     62 H62        16.4797  -23.7018  -39.7013 H         1 UNK         0.0903 
     63 H63        15.5576  -22.5332  -40.6491 H         1 UNK         0.0903 
     64 H64        14.7328  -23.8851  -39.8684 H         1 UNK         0.0903 
     65 H65        17.5966  -25.1606  -40.9789 H         1 UNK         0.3096 
     66 H66        16.4125  -26.6586  -43.0875 H         1 UNK         0.1121 
     67 H67        18.9174  -27.3582  -43.4717 H         1 UNK         0.0849 
     68 H68        19.2963  -26.3433  -42.1232 H         1 UNK         0.0849 
     69 H69        16.9956  -29.3166  -43.3286 H         1 UNK         0.0865 
     70 H70        17.2426  -30.4622  -42.0393 H         1 UNK         0.0865 
     71 H71        19.5441  -31.4152  -41.6066 H         1 UNK         0.1346 
     72 H72        22.1790  -31.5384  -44.9907 H         1 UNK         0.1412 
     73 H73        18.6900  -29.0505  -45.0767 H         1 UNK         0.1426 
     74 H74        20.0172  -29.3449  -47.0939 H         1 UNK         0.0716 
     75 H75        21.3025  -30.5244  -47.1404 H         1 UNK         0.0716 
     76 H76        21.2413  -27.3112  -44.4603 H         1 UNK         0.0695 
     77 H77        20.1473  -27.1907  -45.8126 H         1 UNK         0.0695 
     78 H78        21.7457  -25.5031  -46.9053 H         1 UNK         0.0983 
     79 H79        20.7706  -24.5303  -44.2941 H         1 UNK         0.3095 
     80 H80        19.2922  -22.4235  -44.6722 H         1 UNK         0.0454 
     81 H81        16.9177  -22.0456  -45.3645 H         1 UNK         0.0851 
     82 H82        17.0360  -23.3673  -46.5242 H         1 UNK         0.0851 
     83 H83        18.0154  -21.9243  -46.7298 H         1 UNK         0.0851 
     84 H84        18.3826  -23.7346  -43.1140 H         1 UNK         0.2976 
     85 H85        23.9744  -26.0327  -46.8342 H         1 UNK         0.3116 
     86 H86        25.5922  -24.5197  -44.9739 H         1 UNK         0.0646 
     87 H87        27.4744  -25.4309  -46.3334 H         1 UNK         0.0847 
     88 H88        26.2214  -24.7680  -47.3676 H         1 UNK         0.0847 
     89 H89        26.3736  -26.5151  -47.1705 H         1 UNK         0.0847 
     90 H90        24.4424  -27.8086  -45.0820 H         1 UNK         0.3040 
     91 H91        26.3852  -28.8470  -43.1175 H         1 UNK         0.1015 
     92 H92        23.9886  -30.1015  -44.5589 H         1 UNK         0.0786 
     93 H93        24.9727  -30.9411  -43.3593 H         1 UNK         0.0786 
     94 H94        25.6917  -30.3925  -44.8608 H         1 UNK         0.0786 
     95 H95        22.8933  -29.3566  -43.0050 H         1 UNK         0.3172 
     96 H96        21.3012  -29.1191  -41.4942 H         1 UNK         0.0595 
     97 H97        22.7387  -26.5830  -40.5756 H         1 UNK         0.0839 
     98 H98        21.0308  -26.9538  -40.4012 H         1 UNK         0.0839 
     99 H99        21.7095  -26.6852  -42.0001 H         1 UNK         0.0839 
    100 H100       23.9433  -30.4587  -40.5757 H         1 UNK         0.2998 
    101 H101       24.1681  -29.9757  -37.7682 H         1 UNK         0.0822 
    102 H102       25.2971  -32.2416  -39.4994 H         1 UNK         0.0787 
    103 H103       26.0817  -30.6961  -39.1685 H         1 UNK         0.0787 
    104 H104       25.8174  -31.8449  -37.8678 H         1 UNK         0.0787 
    105 H105       22.4089  -32.4383  -39.6147 H         1 UNK         0.3055 
    106 H106       20.8758  -33.3137  -37.3368 H         1 UNK         0.1106 
    107 H107       21.6433  -35.7320  -37.4485 H         1 UNK         0.0828 
    108 H108       22.9922  -35.2385  -38.4759 H         1 UNK         0.0828 
    109 H109       22.8745  -34.6605  -36.8218 H         1 UNK         0.0828 
    110 H110       21.4447  -35.6954  -39.7454 H         1 UNK         0.2931 
    111 H111       20.3455  -36.5142  -41.4490 H         1 UNK         0.0412 
    112 H112       18.8180  -36.1672  -38.7551 H         1 UNK         0.3472 
    113 H113       17.1898  -36.5794  -39.2319 H         1 UNK         0.3472 
    114 H114       19.3150  -35.0918  -43.1969 H         1 UNK         0.0970 
    115 H115       19.3533  -33.7145  -42.1466 H         1 UNK         0.0970 
    116 H116       21.7126  -32.4952  -41.4221 H         1 UNK         0.0612 
    117 H117       22.8922  -32.3398  -42.6921 H         1 UNK         0.0612 
@<TRIPOS>BOND
     1    1    2 1    
     2    1   62 1    
     3    1   63 1    
     4    1   64 1    
     5    2    3 2    
     6    2    4 am   BACKBONE|DICT|INTERRES
     7    4    5 1    
     8    4   65 1    
     9    5    6 1    
    10    5   25 1    
    11    5   66 1    
    12    6    7 1    
    13    6   67 1    
    14    6   68 1    
    15    7    8 1    
    16    8    9 1    
    17    8   69 1    
    18    8   70 1    
    19    9   10 ar   
    20    9   14 ar   
    21   10   11 ar   
    22   10   71 1    
    23   11   12 ar   
    24   11   61 1    
    25   12   13 ar   
    26   12   72 1    
    27   13   14 ar   
    28   13   15 1    
    29   14   73 1    
    30   15   16 1    
    31   15   74 1    
    32   15   75 1    
    33   16   17 1    
    34   17   18 1    
    35   17   76 1    
    36   17   77 1    
    37   18   19 1    
    38   18   27 1    
    39   18   78 1    
    40   19   20 am   BACKBONE|DICT|INTERRES
    41   19   79 1    
    42   20   21 2    
    43   20   22 1    
    44   22   23 1    
    45   22   24 1    
    46   22   80 1    
    47   23   81 1    
    48   23   82 1    
    49   23   83 1    
    50   24   25 am   BACKBONE|DICT|INTERRES
    51   24   84 1    
    52   25   26 2    
    53   27   28 2    
    54   27   29 am   BACKBONE|DICT|INTERRES
    55   29   30 1    
    56   29   85 1    
    57   30   31 1    
    58   30   32 1    
    59   30   86 1    
    60   31   87 1    
    61   31   88 1    
    62   31   89 1    
    63   32   33 2    
    64   32   34 am   BACKBONE|DICT|INTERRES
    65   34   35 1    
    66   34   90 1    
    67   35   36 1    
    68   35   37 1    
    69   35   91 1    
    70   36   92 1    
    71   36   93 1    
    72   36   94 1    
    73   37   38 2    
    74   37   39 am   BACKBONE|DICT|INTERRES
    75   39   40 1    
    76   39   95 1    
    77   40   41 1    
    78   40   42 1    
    79   40   96 1    
    80   41   97 1    
    81   41   98 1    
    82   41   99 1    
    83   42   43 2    
    84   42   44 am   BACKBONE|DICT|INTERRES
    85   44   45 1    
    86   44  100 1    
    87   45   46 1    
    88   45   47 1    
    89   45  101 1    
    90   46  102 1    
    91   46  103 1    
    92   46  104 1    
    93   47   48 2    
    94   47   49 am   BACKBONE|DICT|INTERRES
    95   49   50 1    
    96   49  105 1    
    97   50   51 1    
    98   50   52 1    
    99   50  106 1    
   100   51  107 1    
   101   51  108 1    
   102   51  109 1    
   103   52   53 2    
   104   52   54 am   BACKBONE|DICT|INTERRES
   105   54   55 1    
   106   54  110 1    
   107   55   56 1    
   108   55   59 1    
   109   55  111 1    
   110   56   57 am   BACKBONE|DICT|INTERRES
   111   56   58 2    
   112   57  112 1    
   113   57  113 1    
   114   59   60 1    
   115   59  114 1    
   116   59  115 1    
   117   60   61 1    
   118   61  116 1    
   119   61  117 1    
@<TRIPOS>SUBSTRUCTURE
     1 UNK         1 GROUP             0       ****    0 ROOT    
