@<TRIPOS>MOLECULE
3R8
117   119    1
SMALL
USER_CHARGES


@<TRIPOS>ATOM
      1 CA         14.5106  -22.2088  -43.3831 C.3       0 UNK        -0.2013 
      2 C          15.0594  -23.3327  -44.2491 C.2       0 UNK         0.4866 
      3 O          14.6999  -23.4312  -45.4224 O.2       0 UNK        -0.5176 
      4 N          15.9227  -24.1830  -43.6773 N.am      1 UNK        -0.4884 
      5 CA         16.5613  -25.3192  -44.3546 C.3       1 UNK         0.0853 
      6 C6         17.2991  -26.2387  -43.3512 C.3       10 UNK        -0.0849 
      7 S7         16.1530  -27.1796  -42.2880 S.3       10 UNK        -0.2776 
      8 C8         15.9382  -28.7297  -43.2286 C.3       10 UNK         0.0316 
      9 C9         17.2389  -29.5107  -43.3623 C.ar      10 UNK        -0.0863 
     10 C10        17.7092  -30.2906  -42.3016 C.ar      10 UNK        -0.1009 
     11 C11        18.9125  -30.9928  -42.4203 C.ar      10 UNK        -0.0712 
     12 C12        19.6587  -30.8915  -43.5981 C.ar      10 UNK        -0.0894 
     13 C13        19.1978  -30.1182  -44.6670 C.ar      10 UNK        -0.0745 
     14 C14        17.9739  -29.4524  -44.5505 C.ar      10 UNK        -0.0972 
     15 C15        20.0121  -30.0274  -45.9522 C.3       10 UNK         0.0209 
     16 S16        20.2649  -28.3122  -46.5159 S.3       10 UNK        -0.2568 
     17 C17        21.3621  -27.6468  -45.2207 C.3       10 UNK        -0.0983 
     18 CA         21.8183  -26.2085  -45.5741 C.3       3 UNK         0.0876 
     19 N          20.6981  -25.2642  -45.5415 N.am      3 UNK        -0.4424 
     20 C          20.5641  -24.1902  -46.3291 C.2       2 UNK         0.4918 
     21 O          21.3516  -23.9121  -47.2352 O.2       2 UNK        -0.4875 
     22 CA         19.3700  -23.2480  -46.0468 C.3       2 UNK         0.0481 
     23 CB         18.7698  -22.6617  -47.3423 C.3       2 UNK        -0.1831 
     24 N          18.3180  -23.8249  -45.1940 N.am      2 UNK        -0.4498 
     25 C          17.5317  -24.8789  -45.4689 C.2       1 UNK         0.5027 
     26 O          17.5638  -25.5113  -46.5246 O.2       1 UNK        -0.4969 
     27 C          22.9328  -25.7151  -44.6303 C.2       3 UNK         0.5005 
     28 O          22.6793  -24.8777  -43.7588 O.2       3 UNK        -0.5279 
     29 N          24.1524  -26.2369  -44.8295 N.am      4 UNK        -0.4463 
     30 CA         25.3726  -25.8254  -44.1244 C.3       4 UNK         0.0283 
     31 CB         26.5847  -26.5513  -44.7310 C.3       4 UNK        -0.1875 
     32 C          25.3336  -26.0322  -42.5999 C.2       4 UNK         0.4949 
     33 O          25.8686  -25.1973  -41.8694 O.2       4 UNK        -0.5039 
     34 N          24.7013  -27.1211  -42.1479 N.am      5 UNK        -0.4663 
     35 CA         24.5065  -27.4550  -40.7402 C.3       5 UNK         0.0242 
     36 CB         25.8210  -27.9768  -40.1240 C.3       5 UNK        -0.1982 
     37 C          23.4126  -28.5194  -40.6263 C.2       5 UNK         0.5017 
     38 O          23.2545  -29.3320  -41.5409 O.2       5 UNK        -0.5012 
     39 N          22.7319  -28.5456  -39.4721 N.am      6 UNK        -0.4439 
     40 CA         21.7691  -29.5894  -39.0978 C.3       6 UNK         0.0297 
     41 CB         20.9520  -29.1224  -37.8833 C.3       6 UNK        -0.2006 
     42 C          22.4323  -30.9509  -38.8108 C.2       6 UNK         0.4892 
     43 O          21.7532  -31.9758  -38.8641 O.2       6 UNK        -0.5089 
     44 N          23.7508  -30.9460  -38.5578 N.am      7 UNK        -0.4243 
     45 CA         24.6036  -32.1251  -38.3731 C.3       7 UNK         0.0196 
     46 CB         26.0321  -31.6626  -38.0442 C.3       7 UNK        -0.2007 
     47 C          24.6161  -33.0902  -39.5737 C.2       7 UNK         0.5020 
     48 O          24.9098  -34.2710  -39.3889 O.2       7 UNK        -0.5147 
     49 N          24.2488  -32.5979  -40.7669 N.am      8 UNK        -0.4734 
     50 CA         24.0251  -33.3935  -41.9785 C.3       8 UNK         0.0238 
     51 CB         23.7239  -32.4424  -43.1482 C.3       8 UNK        -0.1912 
     52 C          22.9066  -34.4468  -41.8376 C.2       8 UNK         0.5038 
     53 O          22.9367  -35.4463  -42.5564 O.2       8 UNK        -0.5046 
     54 N          21.9649  -34.2188  -40.9120 N.am      9 UNK        -0.4200 
     55 CA         20.9162  -35.1714  -40.5200 C.3       9 UNK         0.0839 
     56 C          21.3704  -36.1817  -39.4248 C.2       9 UNK         0.5513 
     57 N          22.5981  -36.1320  -38.9192 N.am      9 UNK        -0.7519 
     58 O          20.5924  -37.0477  -39.0328 O.2       9 UNK        -0.4960 
     59 C59        19.6101  -34.4372  -40.1152 C.3       10 UNK        -0.0876 
     60 S60        18.8335  -33.5862  -41.5285 S.3       10 UNK        -0.2414 
     61 C61        19.4021  -31.8771  -41.2871 C.3       10 UNK         0.0169 
     62 H62        14.7702  -21.2423  -43.8144 H         1 UNK         0.0903 
     63 H63        13.4245  -22.2757  -43.3259 H         1 UNK         0.0903 
     64 H64        14.9060  -22.2444  -42.3682 H         1 UNK         0.0903 
     65 H65        16.1519  -24.0715  -42.6994 H         1 UNK         0.3096 
     66 H66        15.7746  -25.8993  -44.8427 H         1 UNK         0.1121 
     67 H67        17.9503  -25.6489  -42.7034 H         1 UNK         0.0849 
     68 H68        17.9669  -26.9297  -43.8634 H         1 UNK         0.0849 
     69 H69        15.1942  -29.3481  -42.7241 H         1 UNK         0.0865 
     70 H70        15.5231  -28.5014  -44.2116 H         1 UNK         0.0865 
     71 H71        17.1360  -30.3546  -41.3866 H         1 UNK         0.1346 
     72 H72        20.5905  -31.4320  -43.6867 H         1 UNK         0.1412 
     73 H73        17.6093  -28.8609  -45.3798 H         1 UNK         0.1426 
     74 H74        19.4889  -30.5786  -46.7345 H         1 UNK         0.0716 
     75 H75        20.9853  -30.5069  -45.8347 H         1 UNK         0.0716 
     76 H76        22.2164  -28.3202  -45.1290 H         1 UNK         0.0695 
     77 H77        20.8432  -27.6706  -44.2601 H         1 UNK         0.0695 
     78 H78        22.2381  -26.2230  -46.5829 H         1 UNK         0.0983 
     79 H79        20.0403  -25.3862  -44.7887 H         1 UNK         0.3095 
     80 H80        19.7837  -22.4150  -45.4769 H         1 UNK         0.0454 
     81 H81        19.5139  -22.0863  -47.8942 H         1 UNK         0.0851 
     82 H82        17.9391  -21.9899  -47.1268 H         1 UNK         0.0851 
     83 H83        18.4055  -23.4425  -48.0104 H         1 UNK         0.0851 
     84 H84        18.1953  -23.3782  -44.2954 H         1 UNK         0.2976 
     85 H85        24.2702  -26.9243  -45.5607 H         1 UNK         0.3116 
     86 H86        25.4997  -24.7550  -44.3004 H         1 UNK         0.0646 
     87 H87        27.5089  -26.2446  -44.2387 H         1 UNK         0.0847 
     88 H88        26.5040  -27.6337  -44.6237 H         1 UNK         0.0847 
     89 H89        26.6963  -26.3244  -45.7914 H         1 UNK         0.0847 
     90 H90        24.2635  -27.7606  -42.7996 H         1 UNK         0.3040 
     91 H91        24.1802  -26.5573  -40.2099 H         1 UNK         0.1015 
     92 H92        25.6908  -28.2330  -39.0720 H         1 UNK         0.0786 
     93 H93        26.6123  -27.2287  -40.1709 H         1 UNK         0.0786 
     94 H94        26.1780  -28.8705  -40.6378 H         1 UNK         0.0786 
     95 H95        22.9224  -27.8375  -38.7765 H         1 UNK         0.3172 
     96 H96        21.0824  -29.7306  -39.9350 H         1 UNK         0.0595 
     97 H97        20.4152  -28.1979  -38.0969 H         1 UNK         0.0839 
     98 H98        21.5831  -28.9528  -37.0099 H         1 UNK         0.0839 
     99 H99        20.2067  -29.8694  -37.6057 H         1 UNK         0.0839 
    100 H100       24.2144  -30.0512  -38.5216 H         1 UNK         0.2998 
    101 H101       24.2129  -32.6807  -37.5180 H         1 UNK         0.0822 
    102 H102       26.6886  -32.5166  -37.8707 H         1 UNK         0.0787 
    103 H103       26.4652  -31.0791  -38.8578 H         1 UNK         0.0787 
    104 H104       26.0552  -31.0517  -37.1415 H         1 UNK         0.0787 
    105 H105       24.0251  -31.6133  -40.8295 H         1 UNK         0.3055 
    106 H106       24.9488  -33.9336  -42.1980 H         1 UNK         0.1106 
    107 H107       24.5574  -31.7645  -43.3332 H         1 UNK         0.0828 
    108 H108       23.5467  -32.9967  -44.0710 H         1 UNK         0.0828 
    109 H109       22.8391  -31.8354  -42.9544 H         1 UNK         0.0828 
    110 H110       22.0304  -33.3853  -40.3384 H         1 UNK         0.2931 
    111 H111       20.6774  -35.7886  -41.3883 H         1 UNK         0.0412 
    112 H112       22.8630  -36.8047  -38.2172 H         1 UNK         0.3472 
    113 H113       23.2740  -35.4443  -39.2314 H         1 UNK         0.3472 
    114 H114       18.8722  -35.1464  -39.7356 H         1 UNK         0.0970 
    115 H115       19.7914  -33.7330  -39.3017 H         1 UNK         0.0970 
    116 H116       20.4915  -31.8557  -41.2524 H         1 UNK         0.0612 
    117 H117       19.0482  -31.5022  -40.3254 H         1 UNK         0.0612 
@<TRIPOS>BOND
     1    1    2 1    
     2    1   62 1    
     3    1   63 1    
     4    1   64 1    
     5    2    3 2    
     6    2    4 am   BACKBONE|DICT|INTERRES
     7    4    5 1    
     8    4   65 1    
     9    5    6 1    
    10    5   25 1    
    11    5   66 1    
    12    6    7 1    
    13    6   67 1    
    14    6   68 1    
    15    7    8 1    
    16    8    9 1    
    17    8   69 1    
    18    8   70 1    
    19    9   10 ar   
    20    9   14 ar   
    21   10   11 ar   
    22   10   71 1    
    23   11   12 ar   
    24   11   61 1    
    25   12   13 ar   
    26   12   72 1    
    27   13   14 ar   
    28   13   15 1    
    29   14   73 1    
    30   15   16 1    
    31   15   74 1    
    32   15   75 1    
    33   16   17 1    
    34   17   18 1    
    35   17   76 1    
    36   17   77 1    
    37   18   19 1    
    38   18   27 1    
    39   18   78 1    
    40   19   20 am   BACKBONE|DICT|INTERRES
    41   19   79 1    
    42   20   21 2    
    43   20   22 1    
    44   22   23 1    
    45   22   24 1    
    46   22   80 1    
    47   23   81 1    
    48   23   82 1    
    49   23   83 1    
    50   24   25 am   BACKBONE|DICT|INTERRES
    51   24   84 1    
    52   25   26 2    
    53   27   28 2    
    54   27   29 am   BACKBONE|DICT|INTERRES
    55   29   30 1    
    56   29   85 1    
    57   30   31 1    
    58   30   32 1    
    59   30   86 1    
    60   31   87 1    
    61   31   88 1    
    62   31   89 1    
    63   32   33 2    
    64   32   34 am   BACKBONE|DICT|INTERRES
    65   34   35 1    
    66   34   90 1    
    67   35   36 1    
    68   35   37 1    
    69   35   91 1    
    70   36   92 1    
    71   36   93 1    
    72   36   94 1    
    73   37   38 2    
    74   37   39 am   BACKBONE|DICT|INTERRES
    75   39   40 1    
    76   39   95 1    
    77   40   41 1    
    78   40   42 1    
    79   40   96 1    
    80   41   97 1    
    81   41   98 1    
    82   41   99 1    
    83   42   43 2    
    84   42   44 am   BACKBONE|DICT|INTERRES
    85   44   45 1    
    86   44  100 1    
    87   45   46 1    
    88   45   47 1    
    89   45  101 1    
    90   46  102 1    
    91   46  103 1    
    92   46  104 1    
    93   47   48 2    
    94   47   49 am   BACKBONE|DICT|INTERRES
    95   49   50 1    
    96   49  105 1    
    97   50   51 1    
    98   50   52 1    
    99   50  106 1    
   100   51  107 1    
   101   51  108 1    
   102   51  109 1    
   103   52   53 2    
   104   52   54 am   BACKBONE|DICT|INTERRES
   105   54   55 1    
   106   54  110 1    
   107   55   56 1    
   108   55   59 1    
   109   55  111 1    
   110   56   57 am   BACKBONE|DICT|INTERRES
   111   56   58 2    
   112   57  112 1    
   113   57  113 1    
   114   59   60 1    
   115   59  114 1    
   116   59  115 1    
   117   60   61 1    
   118   61  116 1    
   119   61  117 1    
@<TRIPOS>SUBSTRUCTURE
     1 UNK         1 GROUP             0       ****    0 ROOT    
