@<TRIPOS>MOLECULE
3R8
117   119    1
SMALL
USER_CHARGES


@<TRIPOS>ATOM
      1 CA         15.6586  -24.9756  -48.6257 C.3       0 UNK        -0.2013 
      2 C          16.7816  -24.3854  -47.7858 C.2       0 UNK         0.4866 
      3 O          16.7480  -23.1959  -47.4679 O.2       0 UNK        -0.5176 
      4 N          17.7809  -25.2048  -47.4338 N.am      1 UNK        -0.4884 
      5 CA         18.9085  -24.8295  -46.5719 C.3       1 UNK         0.0853 
      6 C6         20.1175  -25.7983  -46.7715 C.3       10 UNK        -0.0849 
      7 S7         20.2984  -27.2119  -45.6193 S.3       10 UNK        -0.2776 
      8 C8         18.8933  -28.2601  -46.0951 C.3       10 UNK         0.0316 
      9 C9         18.7532  -29.4406  -45.1486 C.ar      10 UNK        -0.0863 
     10 C10        19.3955  -30.6496  -45.4331 C.ar      10 UNK        -0.1009 
     11 C11        19.2555  -31.7436  -44.5750 C.ar      10 UNK        -0.0712 
     12 C12        18.4739  -31.6195  -43.4228 C.ar      10 UNK        -0.0894 
     13 C13        17.8204  -30.4183  -43.1311 C.ar      10 UNK        -0.0745 
     14 C14        17.9660  -29.3296  -43.9968 C.ar      10 UNK        -0.0972 
     15 C15        16.9262  -30.3225  -41.9029 C.3       10 UNK         0.0209 
     16 S16        17.8423  -29.7791  -40.4262 S.3       10 UNK        -0.2568 
     17 C17        17.7313  -27.9607  -40.5426 C.3       10 UNK        -0.0983 
     18 CA         19.0337  -27.2991  -41.0550 C.3       3 UNK         0.0876 
     19 N          18.7594  -25.9740  -41.6298 N.am      3 UNK        -0.4424 
     20 C          19.6571  -25.2044  -42.2583 C.2       2 UNK         0.4918 
     21 O          20.8490  -25.4909  -42.3711 O.2       2 UNK        -0.4875 
     22 CA         19.1463  -23.8856  -42.8571 C.3       2 UNK         0.0481 
     23 CB         19.9474  -22.6891  -42.3163 C.3       2 UNK        -0.1831 
     24 N          19.2673  -23.9397  -44.3126 N.am      2 UNK        -0.4498 
     25 C          18.4639  -24.6684  -45.0989 C.2       1 UNK         0.5027 
     26 O          17.4452  -25.2365  -44.6915 O.2       1 UNK        -0.4969 
     27 C          20.1428  -27.2802  -39.9767 C.2       3 UNK         0.5005 
     28 O          20.9104  -28.2362  -39.8723 O.2       3 UNK        -0.5279 
     29 N          20.2645  -26.1617  -39.2459 N.am      4 UNK        -0.4463 
     30 CA         21.3402  -25.8995  -38.2836 C.3       4 UNK         0.0283 
     31 CB         21.0297  -24.5976  -37.5273 C.3       4 UNK        -0.1875 
     32 C          22.7491  -25.8301  -38.9101 C.2       4 UNK         0.4949 
     33 O          23.7289  -26.0222  -38.1901 O.2       4 UNK        -0.5039 
     34 N          22.8314  -25.5602  -40.2204 N.am      5 UNK        -0.4663 
     35 CA         24.0719  -25.5054  -40.9954 C.3       5 UNK         0.0242 
     36 CB         24.0620  -24.2178  -41.8391 C.3       5 UNK        -0.1982 
     37 C          24.2591  -26.7435  -41.8934 C.2       5 UNK         0.5017 
     38 O          25.2689  -26.8133  -42.5964 O.2       5 UNK        -0.5012 
     39 N          23.3064  -27.6887  -41.8801 N.am      6 UNK        -0.4439 
     40 CA         23.3667  -28.9311  -42.6529 C.3       6 UNK         0.0297 
     41 CB         21.9598  -29.5403  -42.7503 C.3       6 UNK        -0.2006 
     42 C          24.3574  -29.9272  -42.0276 C.2       6 UNK         0.4892 
     43 O          24.5839  -29.8971  -40.8148 O.2       6 UNK        -0.5089 
     44 N          24.9175  -30.8116  -42.8623 N.am      7 UNK        -0.4243 
     45 CA         25.9669  -31.7774  -42.5119 C.3       7 UNK         0.0196 
     46 CB         26.7121  -32.1784  -43.7996 C.3       7 UNK        -0.2007 
     47 C          25.4511  -33.0006  -41.7227 C.2       7 UNK         0.5020 
     48 O          25.7486  -34.1377  -42.0911 O.2       7 UNK        -0.5147 
     49 N          24.6794  -32.7462  -40.6559 N.am      8 UNK        -0.4734 
     50 CA         24.0826  -33.7100  -39.7150 C.3       8 UNK         0.0238 
     51 CB         25.1840  -34.4134  -38.8933 C.3       8 UNK        -0.1912 
     52 C          23.1018  -34.7170  -40.3559 C.2       8 UNK         0.5038 
     53 O          22.8235  -35.7599  -39.7613 O.2       8 UNK        -0.5046 
     54 N          22.5913  -34.3878  -41.5473 N.am      9 UNK        -0.4200 
     55 CA         21.6577  -35.1991  -42.3404 C.3       9 UNK         0.0839 
     56 C          20.1768  -35.1553  -41.8620 C.2       9 UNK         0.5513 
     57 N          19.8076  -34.3126  -40.9047 N.am      9 UNK        -0.7519 
     58 O          19.3496  -35.9122  -42.3632 O.2       9 UNK        -0.4960 
     59 C59        21.8050  -34.8924  -43.8555 C.3       10 UNK        -0.0876 
     60 S60        21.6247  -33.1189  -44.2565 S.3       10 UNK        -0.2414 
     61 C61        19.9257  -33.0685  -44.8996 C.3       10 UNK         0.0169 
     62 H62        15.5772  -24.4418  -49.5722 H         1 UNK         0.0903 
     63 H63        15.8227  -26.0305  -48.8447 H         1 UNK         0.0903 
     64 H64        14.7090  -24.8828  -48.0993 H         1 UNK         0.0903 
     65 H65        17.7433  -26.1737  -47.7125 H         1 UNK         0.3096 
     66 H66        19.2320  -23.8406  -46.9069 H         1 UNK         0.1121 
     67 H67        20.1488  -26.1736  -47.7959 H         1 UNK         0.0849 
     68 H68        21.0362  -25.2188  -46.6660 H         1 UNK         0.0849 
     69 H69        17.9734  -27.6750  -46.0797 H         1 UNK         0.0865 
     70 H70        19.0261  -28.6070  -47.1211 H         1 UNK         0.0865 
     71 H71        20.0032  -30.7408  -46.3232 H         1 UNK         0.1346 
     72 H72        18.3642  -32.4651  -42.7574 H         1 UNK         0.1412 
     73 H73        17.4634  -28.3966  -43.7784 H         1 UNK         0.1426 
     74 H74        16.0795  -29.6619  -42.0944 H         1 UNK         0.0716 
     75 H75        16.4926  -31.3016  -41.6936 H         1 UNK         0.0716 
     76 H76        16.8998  -27.7123  -41.2033 H         1 UNK         0.0695 
     77 H77        17.4514  -27.5645  -39.5645 H         1 UNK         0.0695 
     78 H78        19.4156  -27.9040  -41.8798 H         1 UNK         0.0983 
     79 H79        17.7989  -25.6632  -41.5990 H         1 UNK         0.3095 
     80 H80        18.0974  -23.7423  -42.5883 H         1 UNK         0.0454 
     81 H81        19.8727  -22.6290  -41.2298 H         1 UNK         0.0851 
     82 H82        21.0071  -22.7607  -42.5651 H         1 UNK         0.0851 
     83 H83        19.5728  -21.7476  -42.7181 H         1 UNK         0.0851 
     84 H84        20.1093  -23.5445  -44.7059 H         1 UNK         0.2976 
     85 H85        19.5972  -25.4190  -39.3971 H         1 UNK         0.3116 
     86 H86        21.3467  -26.7204  -37.5635 H         1 UNK         0.0646 
     87 H87        21.7952  -24.3897  -36.7782 H         1 UNK         0.0847 
     88 H88        20.0762  -24.6587  -37.0025 H         1 UNK         0.0847 
     89 H89        20.9917  -23.7390  -38.1990 H         1 UNK         0.0847 
     90 H90        21.9788  -25.4485  -40.7611 H         1 UNK         0.3040 
     91 H91        24.9349  -25.4661  -40.3273 H         1 UNK         0.1015 
     92 H92        23.9409  -23.3339  -41.2127 H         1 UNK         0.0786 
     93 H93        23.2553  -24.2226  -42.5730 H         1 UNK         0.0786 
     94 H94        24.9984  -24.0997  -42.3859 H         1 UNK         0.0786 
     95 H95        22.5435  -27.6034  -41.2200 H         1 UNK         0.3172 
     96 H96        23.7027  -28.6876  -43.6632 H         1 UNK         0.0595 
     97 H97        21.2375  -28.8170  -43.1279 H         1 UNK         0.0839 
     98 H98        21.6017  -29.9065  -41.7877 H         1 UNK         0.0839 
     99 H99        21.9494  -30.3817  -43.4409 H         1 UNK         0.0839 
    100 H100       24.6343  -30.7992  -43.8319 H         1 UNK         0.2998 
    101 H101       26.6863  -31.2737  -41.8625 H         1 UNK         0.0822 
    102 H102       27.1228  -31.3067  -44.3095 H         1 UNK         0.0787 
    103 H103       27.5490  -32.8427  -43.5788 H         1 UNK         0.0787 
    104 H104       26.0565  -32.6998  -44.4984 H         1 UNK         0.0787 
    105 H105       24.5024  -31.7628  -40.4581 H         1 UNK         0.3055 
    106 H106       23.4825  -33.1201  -39.0202 H         1 UNK         0.1106 
    107 H107       25.7888  -35.0768  -39.5123 H         1 UNK         0.0828 
    108 H108       25.8517  -33.6911  -38.4238 H         1 UNK         0.0828 
    109 H109       24.7540  -35.0185  -38.0942 H         1 UNK         0.0828 
    110 H110       22.8656  -33.5096  -41.9620 H         1 UNK         0.2931 
    111 H111       21.9601  -36.2402  -42.2113 H         1 UNK         0.0412 
    112 H112       20.4780  -33.6877  -40.4881 H         1 UNK         0.3472 
    113 H113       18.8491  -34.3063  -40.5941 H         1 UNK         0.3472 
    114 H114       21.1122  -35.4908  -44.4503 H         1 UNK         0.0970 
    115 H115       22.7994  -35.1985  -44.1840 H         1 UNK         0.0970 
    116 H116       19.3375  -33.8850  -44.4787 H         1 UNK         0.0612 
    117 H117       19.9458  -33.2307  -45.9782 H         1 UNK         0.0612 
@<TRIPOS>BOND
     1    1    2 1    
     2    1   62 1    
     3    1   63 1    
     4    1   64 1    
     5    2    3 2    
     6    2    4 am   BACKBONE|DICT|INTERRES
     7    4    5 1    
     8    4   65 1    
     9    5    6 1    
    10    5   25 1    
    11    5   66 1    
    12    6    7 1    
    13    6   67 1    
    14    6   68 1    
    15    7    8 1    
    16    8    9 1    
    17    8   69 1    
    18    8   70 1    
    19    9   10 ar   
    20    9   14 ar   
    21   10   11 ar   
    22   10   71 1    
    23   11   12 ar   
    24   11   61 1    
    25   12   13 ar   
    26   12   72 1    
    27   13   14 ar   
    28   13   15 1    
    29   14   73 1    
    30   15   16 1    
    31   15   74 1    
    32   15   75 1    
    33   16   17 1    
    34   17   18 1    
    35   17   76 1    
    36   17   77 1    
    37   18   19 1    
    38   18   27 1    
    39   18   78 1    
    40   19   20 am   BACKBONE|DICT|INTERRES
    41   19   79 1    
    42   20   21 2    
    43   20   22 1    
    44   22   23 1    
    45   22   24 1    
    46   22   80 1    
    47   23   81 1    
    48   23   82 1    
    49   23   83 1    
    50   24   25 am   BACKBONE|DICT|INTERRES
    51   24   84 1    
    52   25   26 2    
    53   27   28 2    
    54   27   29 am   BACKBONE|DICT|INTERRES
    55   29   30 1    
    56   29   85 1    
    57   30   31 1    
    58   30   32 1    
    59   30   86 1    
    60   31   87 1    
    61   31   88 1    
    62   31   89 1    
    63   32   33 2    
    64   32   34 am   BACKBONE|DICT|INTERRES
    65   34   35 1    
    66   34   90 1    
    67   35   36 1    
    68   35   37 1    
    69   35   91 1    
    70   36   92 1    
    71   36   93 1    
    72   36   94 1    
    73   37   38 2    
    74   37   39 am   BACKBONE|DICT|INTERRES
    75   39   40 1    
    76   39   95 1    
    77   40   41 1    
    78   40   42 1    
    79   40   96 1    
    80   41   97 1    
    81   41   98 1    
    82   41   99 1    
    83   42   43 2    
    84   42   44 am   BACKBONE|DICT|INTERRES
    85   44   45 1    
    86   44  100 1    
    87   45   46 1    
    88   45   47 1    
    89   45  101 1    
    90   46  102 1    
    91   46  103 1    
    92   46  104 1    
    93   47   48 2    
    94   47   49 am   BACKBONE|DICT|INTERRES
    95   49   50 1    
    96   49  105 1    
    97   50   51 1    
    98   50   52 1    
    99   50  106 1    
   100   51  107 1    
   101   51  108 1    
   102   51  109 1    
   103   52   53 2    
   104   52   54 am   BACKBONE|DICT|INTERRES
   105   54   55 1    
   106   54  110 1    
   107   55   56 1    
   108   55   59 1    
   109   55  111 1    
   110   56   57 am   BACKBONE|DICT|INTERRES
   111   56   58 2    
   112   57  112 1    
   113   57  113 1    
   114   59   60 1    
   115   59  114 1    
   116   59  115 1    
   117   60   61 1    
   118   61  116 1    
   119   61  117 1    
@<TRIPOS>SUBSTRUCTURE
     1 UNK         1 GROUP             0       ****    0 ROOT    
