@<TRIPOS>MOLECULE
3R8
117   119    1
SMALL
USER_CHARGES


@<TRIPOS>ATOM
      1 CA         21.7670  -24.1999  -42.8715 C.3       0 UNK        -0.2013 
      2 C          20.4942  -23.8485  -43.6279 C.2       0 UNK         0.4866 
      3 O          20.3551  -22.7205  -44.1010 O.2       0 UNK        -0.5176 
      4 N          19.5641  -24.8044  -43.7451 N.am      1 UNK        -0.4884 
      5 CA         18.3011  -24.6659  -44.4829 C.3       1 UNK         0.0853 
      6 C6         17.3367  -25.8411  -44.1862 C.3       10 UNK        -0.0849 
      7 S7         16.9176  -26.0612  -42.4264 S.3       10 UNK        -0.2776 
      8 C8         15.6776  -27.3995  -42.5222 C.3       10 UNK         0.0316 
      9 C9         16.2775  -28.7368  -42.9477 C.ar      10 UNK        -0.0863 
     10 C10        16.6755  -29.6760  -41.9900 C.ar      10 UNK        -0.1009 
     11 C11        17.1962  -30.9151  -42.3814 C.ar      10 UNK        -0.0712 
     12 C12        17.3322  -31.2048  -43.7424 C.ar      10 UNK        -0.0894 
     13 C13        16.9842  -30.2563  -44.7094 C.ar      10 UNK        -0.0745 
     14 C14        16.4203  -29.0435  -44.3045 C.ar      10 UNK        -0.0972 
     15 C15        17.2604  -30.5042  -46.1902 C.3       10 UNK         0.0209 
     16 S16        18.9691  -31.0604  -46.5545 S.3       10 UNK        -0.2568 
     17 C17        20.0269  -30.0691  -45.4395 C.3       10 UNK        -0.0983 
     18 CA         20.9404  -29.0470  -46.1560 C.3       3 UNK         0.0876 
     19 N          20.1574  -28.0507  -46.8860 N.am      3 UNK        -0.4424 
     20 C          20.6686  -27.1129  -47.6979 C.2       2 UNK         0.4918 
     21 O          21.7824  -27.1726  -48.2181 O.2       2 UNK        -0.4875 
     22 CA         19.8247  -25.8392  -47.8292 C.3       2 UNK         0.0481 
     23 CB         18.5981  -26.1076  -48.7276 C.3       2 UNK        -0.1831 
     24 N          19.4669  -25.4610  -46.4588 N.am      2 UNK        -0.4498 
     25 C          18.5377  -24.6111  -46.0072 C.2       1 UNK         0.5027 
     26 O          17.8648  -23.8594  -46.7130 O.2       1 UNK        -0.4969 
     27 C          21.7945  -28.3325  -45.0855 C.2       3 UNK         0.5005 
     28 O          21.4099  -27.2512  -44.6206 O.2       3 UNK        -0.5279 
     29 N          22.8870  -28.9762  -44.6541 N.am      4 UNK        -0.4463 
     30 CA         23.7610  -28.5238  -43.5660 C.3       4 UNK         0.0283 
     31 CB         25.1220  -29.2325  -43.6906 C.3       4 UNK        -0.1875 
     32 C          23.1136  -28.7337  -42.1816 C.2       4 UNK         0.4949 
     33 O          23.6166  -29.5059  -41.3634 O.2       4 UNK        -0.5039 
     34 N          21.9691  -28.0792  -41.9561 N.am      5 UNK        -0.4663 
     35 CA         21.2071  -28.1149  -40.7069 C.3       5 UNK         0.0242 
     36 CB         19.9077  -27.3166  -40.8757 C.3       5 UNK        -0.1982 
     37 C          22.0367  -27.5933  -39.5211 C.2       5 UNK         0.5017 
     38 O          22.7996  -26.6392  -39.6849 O.2       5 UNK        -0.5012 
     39 N          21.8953  -28.2692  -38.3729 N.am      6 UNK        -0.4439 
     40 CA         22.7094  -28.1620  -37.1515 C.3       6 UNK         0.0297 
     41 CB         22.7968  -26.7155  -36.6202 C.3       6 UNK        -0.2006 
     42 C          24.0993  -28.8283  -37.2562 C.2       6 UNK         0.4892 
     43 O          24.7829  -28.9250  -36.2365 O.2       6 UNK        -0.5089 
     44 N          24.4720  -29.3327  -38.4412 N.am      7 UNK        -0.4243 
     45 CA         25.6403  -30.1814  -38.6839 C.3       7 UNK         0.0196 
     46 CB         26.6183  -29.4542  -39.6250 C.3       7 UNK        -0.2007 
     47 C          25.1651  -31.5383  -39.2347 C.2       7 UNK         0.5020 
     48 O          25.6980  -32.0343  -40.2284 O.2       7 UNK        -0.5147 
     49 N          24.1371  -32.0988  -38.5785 N.am      8 UNK        -0.4734 
     50 CA         23.4785  -33.3859  -38.8498 C.3       8 UNK         0.0238 
     51 CB         24.4713  -34.5573  -38.6847 C.3       8 UNK        -0.1912 
     52 C          22.7063  -33.4621  -40.1840 C.2       8 UNK         0.5038 
     53 O          22.3267  -34.5635  -40.5856 O.2       8 UNK        -0.5046 
     54 N          22.4635  -32.3139  -40.8333 N.am      9 UNK        -0.4200 
     55 CA         21.7542  -32.1849  -42.1198 C.3       9 UNK         0.0839 
     56 C          22.5333  -32.7868  -43.3281 C.2       9 UNK         0.5513 
     57 N          23.8499  -32.9411  -43.2453 N.am      9 UNK        -0.7519 
     58 O          21.9502  -33.0877  -44.3654 O.2       9 UNK        -0.4960 
     59 C59        20.2618  -32.6216  -42.0556 C.3       10 UNK        -0.0876 
     60 S60        19.3234  -31.7104  -40.7785 S.3       10 UNK        -0.2414 
     61 C61        17.6041  -31.9410  -41.3331 C.3       10 UNK         0.0169 
     62 H62        21.7943  -25.2483  -42.5782 H         1 UNK         0.0903 
     63 H63        22.6389  -24.0051  -43.4954 H         1 UNK         0.0903 
     64 H64        21.8491  -23.5934  -41.9699 H         1 UNK         0.0903 
     65 H65        19.7310  -25.7127  -43.3365 H         1 UNK         0.3096 
     66 H66        17.8237  -23.7306  -44.1822 H         1 UNK         0.1121 
     67 H67        17.7892  -26.7708  -44.5324 H         1 UNK         0.0849 
     68 H68        16.4044  -25.7184  -44.7421 H         1 UNK         0.0849 
     69 H69        15.2030  -27.5030  -41.5453 H         1 UNK         0.0865 
     70 H70        14.8815  -27.1101  -43.2101 H         1 UNK         0.0865 
     71 H71        16.5739  -29.4465  -40.9380 H         1 UNK         0.1346 
     72 H72        17.7450  -32.1540  -44.0539 H         1 UNK         0.1412 
     73 H73        16.1162  -28.3212  -45.0492 H         1 UNK         0.1426 
     74 H74        16.5603  -31.2543  -46.5599 H         1 UNK         0.0716 
     75 H75        17.0726  -29.5992  -46.7699 H         1 UNK         0.0716 
     76 H76        20.6315  -30.7842  -44.8807 H         1 UNK         0.0695 
     77 H77        19.4252  -29.5564  -44.6891 H         1 UNK         0.0695 
     78 H78        21.5988  -29.5634  -46.8578 H         1 UNK         0.0983 
     79 H79        19.2217  -27.9094  -46.5397 H         1 UNK         0.3095 
     80 H80        20.4367  -25.0476  -48.2646 H         1 UNK         0.0454 
     81 H81        18.0579  -25.1891  -48.9547 H         1 UNK         0.0851 
     82 H82        17.8960  -26.8040  -48.2683 H         1 UNK         0.0851 
     83 H83        18.9029  -26.5349  -49.6839 H         1 UNK         0.0851 
     84 H84        20.0085  -25.9502  -45.7521 H         1 UNK         0.2976 
     85 H85        23.1137  -29.8730  -45.0605 H         1 UNK         0.3116 
     86 H86        23.9338  -27.4516  -43.6822 H         1 UNK         0.0646 
     87 H87        25.0326  -30.3111  -43.5570 H         1 UNK         0.0847 
     88 H88        25.8196  -28.8688  -42.9360 H         1 UNK         0.0847 
     89 H89        25.5791  -29.0501  -44.6632 H         1 UNK         0.0847 
     90 H90        21.6076  -27.5129  -42.7163 H         1 UNK         0.3040 
     91 H91        20.9463  -29.1589  -40.5227 H         1 UNK         0.1015 
     92 H92        20.0992  -26.2588  -41.0573 H         1 UNK         0.0786 
     93 H93        19.2880  -27.3846  -39.9807 H         1 UNK         0.0786 
     94 H94        19.3154  -27.7052  -41.7046 H         1 UNK         0.0786 
     95 H95        21.2150  -29.0176  -38.3550 H         1 UNK         0.3172 
     96 H96        22.1669  -28.7402  -36.4019 H         1 UNK         0.0595 
     97 H97        23.4280  -26.0851  -37.2468 H         1 UNK         0.0839 
     98 H98        23.2266  -26.6974  -35.6179 H         1 UNK         0.0839 
     99 H99        21.8121  -26.2526  -36.5579 H         1 UNK         0.0839 
    100 H100       23.8727  -29.1962  -39.2474 H         1 UNK         0.2998 
    101 H101       26.1650  -30.3917  -37.7496 H         1 UNK         0.0822 
    102 H102       26.9418  -28.5039  -39.2002 H         1 UNK         0.0787 
    103 H103       27.5126  -30.0534  -39.8000 H         1 UNK         0.0787 
    104 H104       26.1662  -29.2500  -40.5949 H         1 UNK         0.0787 
    105 H105       23.7702  -31.5901  -37.7856 H         1 UNK         0.3055 
    106 H106       22.7176  -33.4978  -38.0756 H         1 UNK         0.1106 
    107 H107       23.9558  -35.5179  -38.7191 H         1 UNK         0.0828 
    108 H108       25.2227  -34.5668  -39.4747 H         1 UNK         0.0828 
    109 H109       24.9904  -34.5071  -37.7276 H         1 UNK         0.0828 
    110 H110       22.8740  -31.4601  -40.4809 H         1 UNK         0.2931 
    111 H111       21.7315  -31.1193  -42.3337 H         1 UNK         0.0412 
    112 H112       24.3421  -32.6861  -42.4010 H         1 UNK         0.3472 
    113 H113       24.3533  -33.3282  -44.0276 H         1 UNK         0.3472 
    114 H114       20.1746  -33.6922  -41.8663 H         1 UNK         0.0970 
    115 H115       19.7864  -32.4457  -43.0202 H         1 UNK         0.0970 
    116 H116       17.4722  -32.9549  -41.7142 H         1 UNK         0.0612 
    117 H117       16.9466  -31.8561  -40.4667 H         1 UNK         0.0612 
@<TRIPOS>BOND
     1    1    2 1    
     2    1   62 1    
     3    1   63 1    
     4    1   64 1    
     5    2    3 2    
     6    2    4 am   BACKBONE|DICT|INTERRES
     7    4    5 1    
     8    4   65 1    
     9    5    6 1    
    10    5   25 1    
    11    5   66 1    
    12    6    7 1    
    13    6   67 1    
    14    6   68 1    
    15    7    8 1    
    16    8    9 1    
    17    8   69 1    
    18    8   70 1    
    19    9   10 ar   
    20    9   14 ar   
    21   10   11 ar   
    22   10   71 1    
    23   11   12 ar   
    24   11   61 1    
    25   12   13 ar   
    26   12   72 1    
    27   13   14 ar   
    28   13   15 1    
    29   14   73 1    
    30   15   16 1    
    31   15   74 1    
    32   15   75 1    
    33   16   17 1    
    34   17   18 1    
    35   17   76 1    
    36   17   77 1    
    37   18   19 1    
    38   18   27 1    
    39   18   78 1    
    40   19   20 am   BACKBONE|DICT|INTERRES
    41   19   79 1    
    42   20   21 2    
    43   20   22 1    
    44   22   23 1    
    45   22   24 1    
    46   22   80 1    
    47   23   81 1    
    48   23   82 1    
    49   23   83 1    
    50   24   25 am   BACKBONE|DICT|INTERRES
    51   24   84 1    
    52   25   26 2    
    53   27   28 2    
    54   27   29 am   BACKBONE|DICT|INTERRES
    55   29   30 1    
    56   29   85 1    
    57   30   31 1    
    58   30   32 1    
    59   30   86 1    
    60   31   87 1    
    61   31   88 1    
    62   31   89 1    
    63   32   33 2    
    64   32   34 am   BACKBONE|DICT|INTERRES
    65   34   35 1    
    66   34   90 1    
    67   35   36 1    
    68   35   37 1    
    69   35   91 1    
    70   36   92 1    
    71   36   93 1    
    72   36   94 1    
    73   37   38 2    
    74   37   39 am   BACKBONE|DICT|INTERRES
    75   39   40 1    
    76   39   95 1    
    77   40   41 1    
    78   40   42 1    
    79   40   96 1    
    80   41   97 1    
    81   41   98 1    
    82   41   99 1    
    83   42   43 2    
    84   42   44 am   BACKBONE|DICT|INTERRES
    85   44   45 1    
    86   44  100 1    
    87   45   46 1    
    88   45   47 1    
    89   45  101 1    
    90   46  102 1    
    91   46  103 1    
    92   46  104 1    
    93   47   48 2    
    94   47   49 am   BACKBONE|DICT|INTERRES
    95   49   50 1    
    96   49  105 1    
    97   50   51 1    
    98   50   52 1    
    99   50  106 1    
   100   51  107 1    
   101   51  108 1    
   102   51  109 1    
   103   52   53 2    
   104   52   54 am   BACKBONE|DICT|INTERRES
   105   54   55 1    
   106   54  110 1    
   107   55   56 1    
   108   55   59 1    
   109   55  111 1    
   110   56   57 am   BACKBONE|DICT|INTERRES
   111   56   58 2    
   112   57  112 1    
   113   57  113 1    
   114   59   60 1    
   115   59  114 1    
   116   59  115 1    
   117   60   61 1    
   118   61  116 1    
   119   61  117 1    
@<TRIPOS>SUBSTRUCTURE
     1 UNK         1 GROUP             0       ****    0 ROOT    
