@<TRIPOS>MOLECULE
3R8
117   119    1
SMALL
USER_CHARGES


@<TRIPOS>ATOM
      1 CA         16.5768  -21.6405  -48.1227 C.3       0 UNK        -0.2013 
      2 C          17.6918  -22.4862  -47.5257 C.2       0 UNK         0.4866 
      3 O          18.7776  -21.9689  -47.2605 O.2       0 UNK        -0.5176 
      4 N          17.4366  -23.7844  -47.3191 N.am      1 UNK        -0.4884 
      5 CA         18.3668  -24.7263  -46.6880 C.3       1 UNK         0.0853 
      6 C6         17.9635  -26.1915  -46.9917 C.3       10 UNK        -0.0849 
      7 S7         19.3796  -27.3416  -46.9284 S.3       10 UNK        -0.2776 
      8 C8         18.5843  -28.9237  -47.3731 C.3       10 UNK         0.0316 
      9 C9         18.1827  -29.7079  -46.1324 C.ar      10 UNK        -0.0863 
     10 C10        18.9705  -30.7714  -45.6804 C.ar      10 UNK        -0.1009 
     11 C11        18.6371  -31.4560  -44.5067 C.ar      10 UNK        -0.0712 
     12 C12        17.5120  -31.0624  -43.7745 C.ar      10 UNK        -0.0894 
     13 C13        16.7285  -29.9880  -44.2109 C.ar      10 UNK        -0.0745 
     14 C14        17.0437  -29.3461  -45.4108 C.ar      10 UNK        -0.0972 
     15 C15        15.6098  -29.4355  -43.3421 C.3       10 UNK         0.0209 
     16 S16        16.0555  -27.7867  -42.6890 S.3       10 UNK        -0.2568 
     17 C17        17.4873  -28.1788  -41.6260 C.3       10 UNK        -0.0983 
     18 CA         18.8562  -28.1052  -42.3708 C.3       3 UNK         0.0876 
     19 N          19.1617  -26.7993  -42.9587 N.am      3 UNK        -0.4424 
     20 C          19.4735  -25.6732  -42.3046 C.2       2 UNK         0.4918 
     21 O          19.4588  -25.5640  -41.0776 O.2       2 UNK        -0.4875 
     22 CA         19.9146  -24.4680  -43.1597 C.3       2 UNK         0.0481 
     23 CB         21.4160  -24.1995  -42.9650 C.3       2 UNK        -0.1831 
     24 N          19.6481  -24.6354  -44.5937 N.am      2 UNK        -0.4498 
     25 C          18.4496  -24.4662  -45.1680 C.2       1 UNK         0.5027 
     26 O          17.4325  -24.1465  -44.5468 O.2       1 UNK        -0.4969 
     27 C          20.0567  -28.6405  -41.5627 C.2       3 UNK         0.5005 
     28 O          21.1874  -28.5215  -42.0361 O.2       3 UNK        -0.5279 
     29 N          19.8067  -29.2129  -40.3748 N.am      4 UNK        -0.4463 
     30 CA         20.7730  -29.9125  -39.5179 C.3       4 UNK         0.0283 
     31 CB         20.0412  -30.4404  -38.2734 C.3       4 UNK        -0.1875 
     32 C          22.0153  -29.1045  -39.0993 C.2       4 UNK         0.4949 
     33 O          23.0025  -29.7077  -38.6813 O.2       4 UNK        -0.5039 
     34 N          21.9661  -27.7720  -39.2293 N.am      5 UNK        -0.4663 
     35 CA         23.1169  -26.8816  -39.0687 C.3       5 UNK         0.0242 
     36 CB         22.6250  -25.4264  -39.0418 C.3       5 UNK        -0.1982 
     37 C          24.1950  -27.0736  -40.1549 C.2       5 UNK         0.5017 
     38 O          25.3559  -26.7520  -39.8982 O.2       5 UNK        -0.5012 
     39 N          23.8118  -27.5978  -41.3280 N.am      6 UNK        -0.4439 
     40 CA         24.7181  -27.9819  -42.4052 C.3       6 UNK         0.0297 
     41 CB         24.1070  -27.5699  -43.7547 C.3       6 UNK        -0.2006 
     42 C          24.9349  -29.4996  -42.3537 C.2       6 UNK         0.4892 
     43 O          23.9628  -30.2546  -42.3017 O.2       6 UNK        -0.5089 
     44 N          26.2089  -29.9171  -42.3708 N.am      7 UNK        -0.4243 
     45 CA         26.7019  -31.3017  -42.4759 C.3       7 UNK         0.0196 
     46 CB         26.3690  -31.8690  -43.8728 C.3       7 UNK        -0.2007 
     47 C          26.2592  -32.2757  -41.3602 C.2       7 UNK         0.5020 
     48 O          26.5325  -33.4710  -41.4778 O.2       7 UNK        -0.5147 
     49 N          25.5913  -31.7710  -40.3111 N.am      8 UNK        -0.4734 
     50 CA         24.9575  -32.5188  -39.2168 C.3       8 UNK         0.0238 
     51 CB         26.0213  -33.1985  -38.3270 C.3       8 UNK        -0.1912 
     52 C          23.8673  -33.4964  -39.7077 C.2       8 UNK         0.5038 
     53 O          23.7217  -34.5780  -39.1348 O.2       8 UNK        -0.5046 
     54 N          23.1341  -33.1166  -40.7667 N.am      9 UNK        -0.4200 
     55 CA         22.1360  -33.9706  -41.4360 C.3       9 UNK         0.0839 
     56 C          20.8073  -34.2202  -40.6601 C.2       9 UNK         0.5513 
     57 N          20.5956  -33.6342  -39.4886 N.am      9 UNK        -0.7519 
     58 O          19.9592  -34.9776  -41.1250 O.2       9 UNK        -0.4960 
     59 C59        21.9128  -33.5487  -42.9128 C.3       10 UNK        -0.0876 
     60 S60        20.9812  -31.9929  -43.1391 S.3       10 UNK        -0.2414 
     61 C61        19.5113  -32.6027  -44.0232 C.3       10 UNK         0.0169 
     62 H62        16.9042  -21.1971  -49.0627 H         1 UNK         0.0903 
     63 H63        15.6796  -22.2272  -48.3193 H         1 UNK         0.0903 
     64 H64        16.3113  -20.8341  -47.4397 H         1 UNK         0.0903 
     65 H65        16.5145  -24.1449  -47.5205 H         1 UNK         0.3096 
     66 H66        19.3514  -24.5391  -47.1240 H         1 UNK         0.1121 
     67 H67        17.5519  -26.2602  -48.0004 H         1 UNK         0.0849 
     68 H68        17.1700  -26.5254  -46.3227 H         1 UNK         0.0849 
     69 H69        17.7137  -28.7501  -48.0074 H         1 UNK         0.0865 
     70 H70        19.2829  -29.5068  -47.9753 H         1 UNK         0.0865 
     71 H71        19.8577  -31.0567  -46.2293 H         1 UNK         0.1346 
     72 H72        17.2758  -31.5617  -42.8446 H         1 UNK         0.1412 
     73 H73        16.4330  -28.5192  -45.7418 H         1 UNK         0.1426 
     74 H74        15.3819  -30.1091  -42.5145 H         1 UNK         0.0716 
     75 H75        14.6978  -29.3514  -43.9348 H         1 UNK         0.0716 
     76 H76        17.3160  -29.1749  -41.2148 H         1 UNK         0.0695 
     77 H77        17.4762  -27.4901  -40.7796 H         1 UNK         0.0695 
     78 H78        18.8187  -28.7741  -43.2255 H         1 UNK         0.0983 
     79 H79        19.2358  -26.7901  -43.9650 H         1 UNK         0.3095 
     80 H80        19.3662  -23.5934  -42.8034 H         1 UNK         0.0454 
     81 H81        22.0197  -25.0692  -43.2267 H         1 UNK         0.0851 
     82 H82        21.6345  -23.9513  -41.9264 H         1 UNK         0.0851 
     83 H83        21.7539  -23.3583  -43.5703 H         1 UNK         0.0851 
     84 H84        20.4312  -24.9120  -45.1698 H         1 UNK         0.2976 
     85 H85        18.8488  -29.2301  -40.0567 H         1 UNK         0.3116 
     86 H86        21.1379  -30.7671  -40.0912 H         1 UNK         0.0646 
     87 H87        19.2292  -31.1154  -38.5440 H         1 UNK         0.0847 
     88 H88        20.7191  -30.9980  -37.6254 H         1 UNK         0.0847 
     89 H89        19.6208  -29.6282  -37.6790 H         1 UNK         0.0847 
     90 H90        21.1172  -27.3603  -39.5918 H         1 UNK         0.3040 
     91 H91        23.5850  -27.1043  -38.1071 H         1 UNK         0.1015 
     92 H92        22.1045  -25.1630  -39.9622 H         1 UNK         0.0786 
     93 H93        23.4584  -24.7320  -38.9253 H         1 UNK         0.0786 
     94 H94        21.9416  -25.2540  -38.2102 H         1 UNK         0.0786 
     95 H95        22.8477  -27.9109  -41.4443 H         1 UNK         0.3172 
     96 H96        25.6778  -27.4719  -42.2987 H         1 UNK         0.0595 
     97 H97        23.1366  -28.0409  -43.9199 H         1 UNK         0.0839 
     98 H98        24.7553  -27.8617  -44.5819 H         1 UNK         0.0839 
     99 H99        23.9710  -26.4905  -43.8144 H         1 UNK         0.0839 
    100 H100       26.9310  -29.2092  -42.3667 H         1 UNK         0.2998 
    101 H101       27.7881  -31.2390  -42.3960 H         1 UNK         0.0822 
    102 H102       26.8425  -32.8389  -44.0300 H         1 UNK         0.0787 
    103 H103       25.2952  -32.0069  -44.0057 H         1 UNK         0.0787 
    104 H104       26.7224  -31.2085  -44.6645 H         1 UNK         0.0787 
    105 H105       25.3860  -30.7813  -40.3328 H         1 UNK         0.3055 
    106 H106       24.4429  -31.7869  -38.5954 H         1 UNK         0.1106 
    107 H107       25.5659  -33.6320  -37.4357 H         1 UNK         0.0828 
    108 H108       26.5361  -34.0042  -38.8511 H         1 UNK         0.0828 
    109 H109       26.7716  -32.4839  -37.9893 H         1 UNK         0.0828 
    110 H110       23.3026  -32.2100  -41.1868 H         1 UNK         0.2931 
    111 H111       22.5957  -34.9595  -41.4912 H         1 UNK         0.0412 
    112 H112       19.7374  -33.8185  -38.9941 H         1 UNK         0.3472 
    113 H113       21.3027  -33.0463  -39.0808 H         1 UNK         0.3472 
    114 H114       21.4100  -34.3553  -43.4491 H         1 UNK         0.0970 
    115 H115       22.8770  -33.4352  -43.4110 H         1 UNK         0.0970 
    116 H116       18.9462  -33.2665  -43.3668 H         1 UNK         0.0612 
    117 H117       19.8241  -33.2029  -44.8790 H         1 UNK         0.0612 
@<TRIPOS>BOND
     1    1    2 1    
     2    1   62 1    
     3    1   63 1    
     4    1   64 1    
     5    2    3 2    
     6    2    4 am   BACKBONE|DICT|INTERRES
     7    4    5 1    
     8    4   65 1    
     9    5    6 1    
    10    5   25 1    
    11    5   66 1    
    12    6    7 1    
    13    6   67 1    
    14    6   68 1    
    15    7    8 1    
    16    8    9 1    
    17    8   69 1    
    18    8   70 1    
    19    9   10 ar   
    20    9   14 ar   
    21   10   11 ar   
    22   10   71 1    
    23   11   12 ar   
    24   11   61 1    
    25   12   13 ar   
    26   12   72 1    
    27   13   14 ar   
    28   13   15 1    
    29   14   73 1    
    30   15   16 1    
    31   15   74 1    
    32   15   75 1    
    33   16   17 1    
    34   17   18 1    
    35   17   76 1    
    36   17   77 1    
    37   18   19 1    
    38   18   27 1    
    39   18   78 1    
    40   19   20 am   BACKBONE|DICT|INTERRES
    41   19   79 1    
    42   20   21 2    
    43   20   22 1    
    44   22   23 1    
    45   22   24 1    
    46   22   80 1    
    47   23   81 1    
    48   23   82 1    
    49   23   83 1    
    50   24   25 am   BACKBONE|DICT|INTERRES
    51   24   84 1    
    52   25   26 2    
    53   27   28 2    
    54   27   29 am   BACKBONE|DICT|INTERRES
    55   29   30 1    
    56   29   85 1    
    57   30   31 1    
    58   30   32 1    
    59   30   86 1    
    60   31   87 1    
    61   31   88 1    
    62   31   89 1    
    63   32   33 2    
    64   32   34 am   BACKBONE|DICT|INTERRES
    65   34   35 1    
    66   34   90 1    
    67   35   36 1    
    68   35   37 1    
    69   35   91 1    
    70   36   92 1    
    71   36   93 1    
    72   36   94 1    
    73   37   38 2    
    74   37   39 am   BACKBONE|DICT|INTERRES
    75   39   40 1    
    76   39   95 1    
    77   40   41 1    
    78   40   42 1    
    79   40   96 1    
    80   41   97 1    
    81   41   98 1    
    82   41   99 1    
    83   42   43 2    
    84   42   44 am   BACKBONE|DICT|INTERRES
    85   44   45 1    
    86   44  100 1    
    87   45   46 1    
    88   45   47 1    
    89   45  101 1    
    90   46  102 1    
    91   46  103 1    
    92   46  104 1    
    93   47   48 2    
    94   47   49 am   BACKBONE|DICT|INTERRES
    95   49   50 1    
    96   49  105 1    
    97   50   51 1    
    98   50   52 1    
    99   50  106 1    
   100   51  107 1    
   101   51  108 1    
   102   51  109 1    
   103   52   53 2    
   104   52   54 am   BACKBONE|DICT|INTERRES
   105   54   55 1    
   106   54  110 1    
   107   55   56 1    
   108   55   59 1    
   109   55  111 1    
   110   56   57 am   BACKBONE|DICT|INTERRES
   111   56   58 2    
   112   57  112 1    
   113   57  113 1    
   114   59   60 1    
   115   59  114 1    
   116   59  115 1    
   117   60   61 1    
   118   61  116 1    
   119   61  117 1    
@<TRIPOS>SUBSTRUCTURE
     1 UNK         1 GROUP             0       ****    0 ROOT    
