@<TRIPOS>MOLECULE
3R8
117   119    1
SMALL
USER_CHARGES


@<TRIPOS>ATOM
      1 CA         12.8918  -22.9008  -46.8345 C.3       0 UNK        -0.2013 
      2 C          14.1033  -23.7723  -47.1303 C.2       0 UNK         0.4866 
      3 O          14.5247  -23.8647  -48.2840 O.2       0 UNK        -0.5176 
      4 N          14.6607  -24.4201  -46.1001 N.am      1 UNK        -0.4884 
      5 CA         15.8565  -25.2629  -46.1918 C.3       1 UNK         0.0853 
      6 C6         16.0903  -26.0734  -44.8933 C.3       10 UNK        -0.0849 
      7 S7         14.7887  -27.2979  -44.5331 S.3       10 UNK        -0.2776 
      8 C8         15.7373  -28.8664  -44.5543 C.3       10 UNK         0.0316 
      9 C9         16.9205  -28.9606  -43.5815 C.ar      10 UNK        -0.0863 
     10 C10        17.8726  -29.9657  -43.7870 C.ar      10 UNK        -0.1009 
     11 C11        18.9756  -30.0979  -42.9373 C.ar      10 UNK        -0.0712 
     12 C12        19.1338  -29.2042  -41.8765 C.ar      10 UNK        -0.0894 
     13 C13        18.2009  -28.1873  -41.6602 C.ar      10 UNK        -0.0745 
     14 C14        17.0882  -28.0848  -42.4993 C.ar      10 UNK        -0.0972 
     15 C15        18.3982  -27.1926  -40.5252 C.3       10 UNK         0.0209 
     16 S16        19.9248  -26.2178  -40.7262 S.3       10 UNK        -0.2568 
     17 C17        19.6076  -25.2874  -42.2712 C.3       10 UNK        -0.0983 
     18 CA         20.2435  -25.9141  -43.5417 C.3       3 UNK         0.0876 
     19 N          19.8838  -25.1563  -44.7431 N.am      3 UNK        -0.4424 
     20 C          20.1278  -25.5437  -46.0029 C.2       2 UNK         0.4918 
     21 O          20.7144  -26.5844  -46.3040 O.2       2 UNK        -0.4875 
     22 CA         19.4980  -24.6757  -47.1056 C.3       2 UNK         0.0481 
     23 CB         20.1391  -24.9095  -48.4858 C.3       2 UNK        -0.1831 
     24 N          18.0825  -25.0347  -47.1619 N.am      2 UNK        -0.4498 
     25 C          17.1232  -24.4263  -46.4544 C.2       1 UNK         0.5027 
     26 O          17.2607  -23.3269  -45.9109 O.2       1 UNK        -0.4969 
     27 C          21.7730  -26.0832  -43.4163 C.2       3 UNK         0.5005 
     28 O          22.5156  -25.1070  -43.5515 O.2       3 UNK        -0.5279 
     29 N          22.1955  -27.3188  -43.1315 N.am      4 UNK        -0.4463 
     30 CA         23.5751  -27.7145  -42.8684 C.3       4 UNK         0.0283 
     31 CB         24.2929  -28.0518  -44.1899 C.3       4 UNK        -0.1875 
     32 C          23.5586  -28.8824  -41.8739 C.2       4 UNK         0.4949 
     33 O          24.1732  -29.9188  -42.1256 O.2       4 UNK        -0.5039 
     34 N          22.8184  -28.7091  -40.7669 N.am      5 UNK        -0.4663 
     35 CA         22.5833  -29.7297  -39.7372 C.3       5 UNK         0.0242 
     36 CB         21.6801  -29.1610  -38.6316 C.3       5 UNK        -0.1982 
     37 C          23.8685  -30.3163  -39.1337 C.2       5 UNK         0.5017 
     38 O          23.9517  -31.5314  -38.9622 O.2       5 UNK        -0.5012 
     39 N          24.8694  -29.4585  -38.8966 N.am      6 UNK        -0.4439 
     40 CA         26.1916  -29.8311  -38.3823 C.3       6 UNK         0.0297 
     41 CB         27.0004  -28.5526  -38.1081 C.3       6 UNK        -0.2006 
     42 C          26.9905  -30.7847  -39.2943 C.2       6 UNK         0.4892 
     43 O          27.9009  -31.4519  -38.8014 O.2       6 UNK        -0.5089 
     44 N          26.6465  -30.8336  -40.5884 N.am      7 UNK        -0.4243 
     45 CA         27.2716  -31.6947  -41.5905 C.3       7 UNK         0.0196 
     46 CB         27.5970  -30.8363  -42.8260 C.3       7 UNK        -0.2007 
     47 C          26.3808  -32.8855  -41.9884 C.2       7 UNK         0.5020 
     48 O          26.8376  -33.7170  -42.7746 O.2       7 UNK        -0.5147 
     49 N          25.1382  -32.9586  -41.4883 N.am      8 UNK        -0.4734 
     50 CA         24.1476  -33.9414  -41.9258 C.3       8 UNK         0.0238 
     51 CB         23.5499  -33.5230  -43.2896 C.3       8 UNK        -0.1912 
     52 C          23.0767  -34.1769  -40.8523 C.2       8 UNK         0.5038 
     53 O          23.2046  -35.1182  -40.0691 O.2       8 UNK        -0.5046 
     54 N          22.0171  -33.3597  -40.8890 N.am      9 UNK        -0.4200 
     55 CA         20.7334  -33.5772  -40.1992 C.3       9 UNK         0.0839 
     56 C          20.7490  -33.5362  -38.6433 C.2       9 UNK         0.5513 
     57 N          21.7970  -33.0608  -37.9871 N.am      9 UNK        -0.7519 
     58 O          19.7795  -33.9548  -38.0159 O.2       9 UNK        -0.4960 
     59 C59        19.6223  -32.6521  -40.7652 C.3       10 UNK        -0.0876 
     60 S60        19.4211  -32.8114  -42.5755 S.3       10 UNK        -0.2414 
     61 C61        20.0025  -31.1950  -43.1793 C.3       10 UNK         0.0169 
     62 H62        12.0333  -23.2431  -47.4118 H         1 UNK         0.0903 
     63 H63        12.6209  -22.9231  -45.7791 H         1 UNK         0.0903 
     64 H64        13.0976  -21.8668  -47.1099 H         1 UNK         0.0903 
     65 H65        14.2782  -24.3059  -45.1722 H         1 UNK         0.3096 
     66 H66        15.7173  -25.9568  -47.0242 H         1 UNK         0.1121 
     67 H67        17.0480  -26.5952  -44.9454 H         1 UNK         0.0849 
     68 H68        16.1682  -25.4040  -44.0339 H         1 UNK         0.0849 
     69 H69        15.0492  -29.6845  -44.3376 H         1 UNK         0.0865 
     70 H70        16.0947  -29.0296  -45.5724 H         1 UNK         0.0865 
     71 H71        17.7550  -30.6557  -44.6118 H         1 UNK         0.1346 
     72 H72        19.9888  -29.2896  -41.2228 H         1 UNK         0.1412 
     73 H73        16.3626  -27.3074  -42.3091 H         1 UNK         0.1426 
     74 H74        18.4467  -27.7360  -39.5807 H         1 UNK         0.0716 
     75 H75        17.5491  -26.5121  -40.4441 H         1 UNK         0.0716 
     76 H76        18.5287  -25.1914  -42.4045 H         1 UNK         0.0695 
     77 H77        19.9811  -24.2717  -42.1285 H         1 UNK         0.0695 
     78 H78        19.8050  -26.9055  -43.6737 H         1 UNK         0.0983 
     79 H79        19.3967  -24.2840  -44.5943 H         1 UNK         0.3095 
     80 H80        19.6279  -23.6235  -46.8435 H         1 UNK         0.0454 
     81 H81        20.0334  -25.9429  -48.8183 H         1 UNK         0.0851 
     82 H82        19.6881  -24.2685  -49.2433 H         1 UNK         0.0851 
     83 H83        21.2056  -24.6822  -48.4617 H         1 UNK         0.0851 
     84 H84        17.8844  -25.9448  -47.5546 H         1 UNK         0.2976 
     85 H85        21.5095  -28.0545  -43.0328 H         1 UNK         0.3116 
     86 H86        24.1050  -26.8924  -42.3829 H         1 UNK         0.0646 
     87 H87        25.3320  -28.3302  -44.0106 H         1 UNK         0.0847 
     88 H88        24.2994  -27.1980  -44.8676 H         1 UNK         0.0847 
     89 H89        23.8145  -28.8851  -44.7060 H         1 UNK         0.0847 
     90 H90        22.3573  -27.8186  -40.6353 H         1 UNK         0.3040 
     91 H91        22.0535  -30.5536  -40.2165 H         1 UNK         0.1015 
     92 H92        20.7146  -28.8432  -39.0225 H         1 UNK         0.0786 
     93 H93        22.1371  -28.3034  -38.1364 H         1 UNK         0.0786 
     94 H94        21.4821  -29.9124  -37.8654 H         1 UNK         0.0786 
     95 H95        24.7126  -28.4803  -39.0928 H         1 UNK         0.3172 
     96 H96        26.0388  -30.3484  -37.4328 H         1 UNK         0.0595 
     97 H97        26.4958  -27.9079  -37.3882 H         1 UNK         0.0839 
     98 H98        27.1669  -27.9766  -39.0193 H         1 UNK         0.0839 
     99 H99        27.9802  -28.7920  -37.6918 H         1 UNK         0.0839 
    100 H100       25.8583  -30.2837  -40.9120 H         1 UNK         0.2998 
    101 H101       28.2076  -32.1078  -41.2087 H         1 UNK         0.0822 
    102 H102       28.2478  -30.0006  -42.5684 H         1 UNK         0.0787 
    103 H103       28.1118  -31.4231  -43.5880 H         1 UNK         0.0787 
    104 H104       26.6932  -30.4305  -43.2824 H         1 UNK         0.0787 
    105 H105       24.8375  -32.2911  -40.7866 H         1 UNK         0.3055 
    106 H106       24.6453  -34.9045  -42.0630 H         1 UNK         0.1106 
    107 H107       23.1891  -32.4937  -43.2819 H         1 UNK         0.0828 
    108 H108       24.2933  -33.5997  -44.0831 H         1 UNK         0.0828 
    109 H109       22.7162  -34.1674  -43.5732 H         1 UNK         0.0828 
    110 H110       22.0190  -32.6265  -41.5798 H         1 UNK         0.2931 
    111 H111       20.4427  -34.6003  -40.4461 H         1 UNK         0.0412 
    112 H112       21.7827  -33.0585  -36.9801 H         1 UNK         0.3472 
    113 H113       22.6088  -32.6966  -38.4778 H         1 UNK         0.3472 
    114 H114       19.8175  -31.6141  -40.4966 H         1 UNK         0.0970 
    115 H115       18.6589  -32.8970  -40.3136 H         1 UNK         0.0970 
    116 H116       20.9572  -30.9471  -42.7129 H         1 UNK         0.0612 
    117 H117       20.1998  -31.2733  -44.2495 H         1 UNK         0.0612 
@<TRIPOS>BOND
     1    1    2 1    
     2    1   62 1    
     3    1   63 1    
     4    1   64 1    
     5    2    3 2    
     6    2    4 am   BACKBONE|DICT|INTERRES
     7    4    5 1    
     8    4   65 1    
     9    5    6 1    
    10    5   25 1    
    11    5   66 1    
    12    6    7 1    
    13    6   67 1    
    14    6   68 1    
    15    7    8 1    
    16    8    9 1    
    17    8   69 1    
    18    8   70 1    
    19    9   10 ar   
    20    9   14 ar   
    21   10   11 ar   
    22   10   71 1    
    23   11   12 ar   
    24   11   61 1    
    25   12   13 ar   
    26   12   72 1    
    27   13   14 ar   
    28   13   15 1    
    29   14   73 1    
    30   15   16 1    
    31   15   74 1    
    32   15   75 1    
    33   16   17 1    
    34   17   18 1    
    35   17   76 1    
    36   17   77 1    
    37   18   19 1    
    38   18   27 1    
    39   18   78 1    
    40   19   20 am   BACKBONE|DICT|INTERRES
    41   19   79 1    
    42   20   21 2    
    43   20   22 1    
    44   22   23 1    
    45   22   24 1    
    46   22   80 1    
    47   23   81 1    
    48   23   82 1    
    49   23   83 1    
    50   24   25 am   BACKBONE|DICT|INTERRES
    51   24   84 1    
    52   25   26 2    
    53   27   28 2    
    54   27   29 am   BACKBONE|DICT|INTERRES
    55   29   30 1    
    56   29   85 1    
    57   30   31 1    
    58   30   32 1    
    59   30   86 1    
    60   31   87 1    
    61   31   88 1    
    62   31   89 1    
    63   32   33 2    
    64   32   34 am   BACKBONE|DICT|INTERRES
    65   34   35 1    
    66   34   90 1    
    67   35   36 1    
    68   35   37 1    
    69   35   91 1    
    70   36   92 1    
    71   36   93 1    
    72   36   94 1    
    73   37   38 2    
    74   37   39 am   BACKBONE|DICT|INTERRES
    75   39   40 1    
    76   39   95 1    
    77   40   41 1    
    78   40   42 1    
    79   40   96 1    
    80   41   97 1    
    81   41   98 1    
    82   41   99 1    
    83   42   43 2    
    84   42   44 am   BACKBONE|DICT|INTERRES
    85   44   45 1    
    86   44  100 1    
    87   45   46 1    
    88   45   47 1    
    89   45  101 1    
    90   46  102 1    
    91   46  103 1    
    92   46  104 1    
    93   47   48 2    
    94   47   49 am   BACKBONE|DICT|INTERRES
    95   49   50 1    
    96   49  105 1    
    97   50   51 1    
    98   50   52 1    
    99   50  106 1    
   100   51  107 1    
   101   51  108 1    
   102   51  109 1    
   103   52   53 2    
   104   52   54 am   BACKBONE|DICT|INTERRES
   105   54   55 1    
   106   54  110 1    
   107   55   56 1    
   108   55   59 1    
   109   55  111 1    
   110   56   57 am   BACKBONE|DICT|INTERRES
   111   56   58 2    
   112   57  112 1    
   113   57  113 1    
   114   59   60 1    
   115   59  114 1    
   116   59  115 1    
   117   60   61 1    
   118   61  116 1    
   119   61  117 1    
@<TRIPOS>SUBSTRUCTURE
     1 UNK         1 GROUP             0       ****    0 ROOT    
