@<TRIPOS>MOLECULE
3R8
117   119    1
SMALL
USER_CHARGES


@<TRIPOS>ATOM
      1 CA         20.8314  -28.7017  -42.3740 C.3       0 UNK        -0.2013 
      2 C          19.4967  -28.1096  -41.9640 C.2       0 UNK         0.4866 
      3 O          19.4382  -27.3503  -40.9980 O.2       0 UNK        -0.5176 
      4 N          18.4283  -28.4472  -42.6982 N.am      1 UNK        -0.4884 
      5 CA         17.0470  -28.0170  -42.4342 C.3       1 UNK         0.0853 
      6 C6         16.0343  -28.7361  -43.3568 C.3       10 UNK        -0.0849 
      7 S7         16.1146  -30.5499  -43.1745 S.3       10 UNK        -0.2776 
      8 C8         16.5931  -31.0999  -44.8449 C.3       10 UNK         0.0316 
      9 C9         18.0422  -30.7766  -45.1904 C.ar      10 UNK        -0.0863 
     10 C10        19.0798  -31.5637  -44.6797 C.ar      10 UNK        -0.1009 
     11 C11        20.4089  -31.3181  -45.0401 C.ar      10 UNK        -0.0712 
     12 C12        20.6932  -30.2751  -45.9285 C.ar      10 UNK        -0.0894 
     13 C13        19.6651  -29.4903  -46.4598 C.ar      10 UNK        -0.0745 
     14 C14        18.3429  -29.7390  -46.0784 C.ar      10 UNK        -0.0972 
     15 C15        19.9723  -28.4264  -47.5061 C.3       10 UNK         0.0209 
     16 S16        19.7255  -26.7362  -46.8847 S.3       10 UNK        -0.2568 
     17 C17        21.1881  -26.5285  -45.8175 C.3       10 UNK        -0.0983 
     18 CA         21.2169  -25.1602  -45.0832 C.3       3 UNK         0.0876 
     19 N          20.0389  -24.9813  -44.2375 N.am      3 UNK        -0.4424 
     20 C          18.9868  -24.2051  -44.5258 C.2       2 UNK         0.4918 
     21 O          18.9585  -23.4039  -45.4615 O.2       2 UNK        -0.4875 
     22 CA         17.7322  -24.4341  -43.6672 C.3       2 UNK         0.0481 
     23 CB         16.4585  -23.8116  -44.2756 C.3       2 UNK        -0.1831 
     24 N          17.5680  -25.8756  -43.4870 N.am      2 UNK        -0.4498 
     25 C          16.8732  -26.4864  -42.5220 C.2       1 UNK         0.5027 
     26 O          16.1555  -25.9012  -41.7096 O.2       1 UNK        -0.4969 
     27 C          22.4670  -25.0811  -44.1975 C.2       3 UNK         0.5005 
     28 O          22.4200  -25.4986  -43.0367 O.2       3 UNK        -0.5279 
     29 N          23.5875  -24.6314  -44.7768 N.am      4 UNK        -0.4463 
     30 CA         24.9187  -24.6571  -44.1618 C.3       4 UNK         0.0283 
     31 CB         25.7793  -23.5373  -44.7769 C.3       4 UNK        -0.1875 
     32 C          25.5578  -26.0525  -44.3146 C.2       4 UNK         0.4949 
     33 O          26.6107  -26.1888  -44.9401 O.2       4 UNK        -0.5039 
     34 N          24.8736  -27.0663  -43.7751 N.am      5 UNK        -0.4663 
     35 CA         25.2478  -28.4788  -43.8254 C.3       5 UNK         0.0242 
     36 CB         24.1185  -29.2641  -44.5260 C.3       5 UNK        -0.1982 
     37 C          25.5649  -28.9819  -42.4056 C.2       5 UNK         0.5017 
     38 O          26.0855  -28.2180  -41.5902 O.2       5 UNK        -0.5012 
     39 N          25.2545  -30.2559  -42.1279 N.am      6 UNK        -0.4439 
     40 CA         25.5141  -30.9324  -40.8515 C.3       6 UNK         0.0297 
     41 CB         25.3916  -32.4518  -41.0609 C.3       6 UNK        -0.2006 
     42 C          24.6110  -30.4802  -39.6869 C.2       6 UNK         0.4892 
     43 O          24.8736  -30.8753  -38.5502 O.2       6 UNK        -0.5089 
     44 N          23.5545  -29.7060  -39.9821 N.am      7 UNK        -0.4243 
     45 CA         22.5123  -29.1753  -39.0869 C.3       7 UNK         0.0196 
     46 CB         23.1056  -28.3102  -37.9577 C.3       7 UNK        -0.2007 
     47 C          21.5690  -30.2556  -38.5311 C.2       7 UNK         0.5020 
     48 O          20.3515  -30.1083  -38.6317 O.2       7 UNK        -0.5147 
     49 N          22.1402  -31.3433  -37.9995 N.am      8 UNK        -0.4734 
     50 CA         21.4380  -32.5085  -37.4509 C.3       8 UNK         0.0238 
     51 CB         22.4655  -33.4488  -36.8004 C.3       8 UNK        -0.1912 
     52 C          20.5846  -33.2731  -38.4797 C.2       8 UNK         0.5038 
     53 O          19.6543  -33.9751  -38.0812 O.2       8 UNK        -0.5046 
     54 N          20.9046  -33.1180  -39.7711 N.am      9 UNK        -0.4200 
     55 CA         20.1073  -33.6162  -40.8984 C.3       9 UNK         0.0839 
     56 C          18.7584  -32.8735  -41.1231 C.2       9 UNK         0.5513 
     57 N          18.5330  -31.6972  -40.5482 N.am      9 UNK        -0.7519 
     58 O          17.8922  -33.3945  -41.8199 O.2       9 UNK        -0.4960 
     59 C59        20.9480  -33.7189  -42.1988 C.3       10 UNK        -0.0876 
     60 S60        21.7391  -32.1522  -42.7200 S.3       10 UNK        -0.2414 
     61 C61        21.5350  -32.2123  -44.5313 C.3       10 UNK         0.0169 
     62 H62        21.6219  -27.9570  -42.2922 H         1 UNK         0.0903 
     63 H63        21.0714  -29.5372  -41.7202 H         1 UNK         0.0903 
     64 H64        20.8092  -29.0642  -43.3990 H         1 UNK         0.0903 
     65 H65        18.5342  -29.1121  -43.4542 H         1 UNK         0.3096 
     66 H66        16.8203  -28.2955  -41.4024 H         1 UNK         0.1121 
     67 H67        16.1947  -28.4592  -44.4001 H         1 UNK         0.0849 
     68 H68        15.0152  -28.4269  -43.1159 H         1 UNK         0.0849 
     69 H69        16.4484  -32.1797  -44.9053 H         1 UNK         0.0865 
     70 H70        15.9116  -30.6672  -45.5791 H         1 UNK         0.0865 
     71 H71        18.8483  -32.3837  -44.0164 H         1 UNK         0.1346 
     72 H72        21.7142  -30.0944  -46.2348 H         1 UNK         0.1412 
     73 H73        17.5466  -29.1428  -46.5036 H         1 UNK         0.1426 
     74 H74        19.3177  -28.5787  -48.3654 H         1 UNK         0.0716 
     75 H75        20.9916  -28.5279  -47.8821 H         1 UNK         0.0716 
     76 H76        22.0772  -26.6475  -46.4401 H         1 UNK         0.0695 
     77 H77        21.2044  -27.3506  -45.1000 H         1 UNK         0.0695 
     78 H78        21.2730  -24.3571  -45.8216 H         1 UNK         0.0983 
     79 H79        20.0457  -25.5162  -43.3797 H         1 UNK         0.3095 
     80 H80        17.9198  -23.9754  -42.6945 H         1 UNK         0.0454 
     81 H81        16.5731  -22.7349  -44.4064 H         1 UNK         0.0851 
     82 H82        15.5906  -23.9648  -43.6347 H         1 UNK         0.0851 
     83 H83        16.2326  -24.2385  -45.2534 H         1 UNK         0.0851 
     84 H84        18.1189  -26.4520  -44.1099 H         1 UNK         0.2976 
     85 H85        23.5536  -24.3504  -45.7470 H         1 UNK         0.3116 
     86 H86        24.8277  -24.4547  -43.0923 H         1 UNK         0.0646 
     87 H87        26.7697  -23.5117  -44.3203 H         1 UNK         0.0847 
     88 H88        25.9188  -23.6744  -45.8499 H         1 UNK         0.0847 
     89 H89        25.3276  -22.5578  -44.6194 H         1 UNK         0.0847 
     90 H90        24.0385  -26.8328  -43.2488 H         1 UNK         0.3040 
     91 H91        26.1619  -28.6062  -44.4094 H         1 UNK         0.1015 
     92 H92        24.4158  -30.2926  -44.7332 H         1 UNK         0.0786 
     93 H93        23.8681  -28.8133  -45.4867 H         1 UNK         0.0786 
     94 H94        23.2072  -29.2919  -43.9294 H         1 UNK         0.0786 
     95 H95        24.8251  -30.8134  -42.8527 H         1 UNK         0.3172 
     96 H96        26.5433  -30.7140  -40.5586 H         1 UNK         0.0595 
     97 H97        24.3818  -32.7423  -41.3516 H         1 UNK         0.0839 
     98 H98        25.6328  -32.9943  -40.1455 H         1 UNK         0.0839 
     99 H99        26.0781  -32.8046  -41.8307 H         1 UNK         0.0839 
    100 H100       23.4387  -29.4724  -40.9568 H         1 UNK         0.2998 
    101 H101       21.9004  -28.5117  -39.6990 H         1 UNK         0.0822 
    102 H102       22.3129  -27.8343  -37.3790 H         1 UNK         0.0787 
    103 H103       23.7059  -28.8946  -37.2601 H         1 UNK         0.0787 
    104 H104       23.7358  -27.5161  -38.3584 H         1 UNK         0.0787 
    105 H105       23.1579  -31.3632  -37.9848 H         1 UNK         0.3055 
    106 H106       20.7569  -32.1491  -36.6764 H         1 UNK         0.1106 
    107 H107       23.0134  -32.9472  -36.0025 H         1 UNK         0.0828 
    108 H108       21.9766  -34.3182  -36.3582 H         1 UNK         0.0828 
    109 H109       23.1918  -33.8163  -37.5266 H         1 UNK         0.0828 
    110 H110       21.6748  -32.5116  -40.0078 H         1 UNK         0.2931 
    111 H111       19.8251  -34.6396  -40.6426 H         1 UNK         0.0412 
    112 H112       19.2207  -31.2617  -39.9454 H         1 UNK         0.3472 
    113 H113       17.6529  -31.2390  -40.7212 H         1 UNK         0.3472 
    114 H114       21.7420  -34.4532  -42.0557 H         1 UNK         0.0970 
    115 H115       20.3328  -34.1173  -43.0074 H         1 UNK         0.0970 
    116 H116       22.4833  -31.9146  -44.9802 H         1 UNK         0.0612 
    117 H117       21.3630  -33.2363  -44.8642 H         1 UNK         0.0612 
@<TRIPOS>BOND
     1    1    2 1    
     2    1   62 1    
     3    1   63 1    
     4    1   64 1    
     5    2    3 2    
     6    2    4 am   BACKBONE|DICT|INTERRES
     7    4    5 1    
     8    4   65 1    
     9    5    6 1    
    10    5   25 1    
    11    5   66 1    
    12    6    7 1    
    13    6   67 1    
    14    6   68 1    
    15    7    8 1    
    16    8    9 1    
    17    8   69 1    
    18    8   70 1    
    19    9   10 ar   
    20    9   14 ar   
    21   10   11 ar   
    22   10   71 1    
    23   11   12 ar   
    24   11   61 1    
    25   12   13 ar   
    26   12   72 1    
    27   13   14 ar   
    28   13   15 1    
    29   14   73 1    
    30   15   16 1    
    31   15   74 1    
    32   15   75 1    
    33   16   17 1    
    34   17   18 1    
    35   17   76 1    
    36   17   77 1    
    37   18   19 1    
    38   18   27 1    
    39   18   78 1    
    40   19   20 am   BACKBONE|DICT|INTERRES
    41   19   79 1    
    42   20   21 2    
    43   20   22 1    
    44   22   23 1    
    45   22   24 1    
    46   22   80 1    
    47   23   81 1    
    48   23   82 1    
    49   23   83 1    
    50   24   25 am   BACKBONE|DICT|INTERRES
    51   24   84 1    
    52   25   26 2    
    53   27   28 2    
    54   27   29 am   BACKBONE|DICT|INTERRES
    55   29   30 1    
    56   29   85 1    
    57   30   31 1    
    58   30   32 1    
    59   30   86 1    
    60   31   87 1    
    61   31   88 1    
    62   31   89 1    
    63   32   33 2    
    64   32   34 am   BACKBONE|DICT|INTERRES
    65   34   35 1    
    66   34   90 1    
    67   35   36 1    
    68   35   37 1    
    69   35   91 1    
    70   36   92 1    
    71   36   93 1    
    72   36   94 1    
    73   37   38 2    
    74   37   39 am   BACKBONE|DICT|INTERRES
    75   39   40 1    
    76   39   95 1    
    77   40   41 1    
    78   40   42 1    
    79   40   96 1    
    80   41   97 1    
    81   41   98 1    
    82   41   99 1    
    83   42   43 2    
    84   42   44 am   BACKBONE|DICT|INTERRES
    85   44   45 1    
    86   44  100 1    
    87   45   46 1    
    88   45   47 1    
    89   45  101 1    
    90   46  102 1    
    91   46  103 1    
    92   46  104 1    
    93   47   48 2    
    94   47   49 am   BACKBONE|DICT|INTERRES
    95   49   50 1    
    96   49  105 1    
    97   50   51 1    
    98   50   52 1    
    99   50  106 1    
   100   51  107 1    
   101   51  108 1    
   102   51  109 1    
   103   52   53 2    
   104   52   54 am   BACKBONE|DICT|INTERRES
   105   54   55 1    
   106   54  110 1    
   107   55   56 1    
   108   55   59 1    
   109   55  111 1    
   110   56   57 am   BACKBONE|DICT|INTERRES
   111   56   58 2    
   112   57  112 1    
   113   57  113 1    
   114   59   60 1    
   115   59  114 1    
   116   59  115 1    
   117   60   61 1    
   118   61  116 1    
   119   61  117 1    
@<TRIPOS>SUBSTRUCTURE
     1 UNK         1 GROUP             0       ****    0 ROOT    
