@<TRIPOS>MOLECULE
3R8
117   119    1
SMALL
USER_CHARGES


@<TRIPOS>ATOM
      1 CA         20.0240  -29.5450  -43.0681 C.3       0 UNK        -0.2013 
      2 C          19.7042  -28.0605  -43.0209 C.2       0 UNK         0.4866 
      3 O          20.6314  -27.2557  -42.9469 O.2       0 UNK        -0.5176 
      4 N          18.4109  -27.7031  -43.0911 N.am      1 UNK        -0.4884 
      5 CA         17.8182  -26.3710  -42.8533 C.3       1 UNK         0.0853 
      6 C6         16.3236  -26.3192  -43.2581 C.3       10 UNK        -0.0849 
      7 S7         15.3143  -27.5969  -42.4344 S.3       10 UNK        -0.2776 
      8 C8         14.6637  -28.5368  -43.8544 C.3       10 UNK         0.0316 
      9 C9         15.7155  -29.4487  -44.4706 C.ar      10 UNK        -0.0863 
     10 C10        16.0714  -30.6336  -43.8215 C.ar      10 UNK        -0.1009 
     11 C11        17.0205  -31.4958  -44.3788 C.ar      10 UNK        -0.0712 
     12 C12        17.6059  -31.1697  -45.6067 C.ar      10 UNK        -0.0894 
     13 C13        17.2453  -29.9962  -46.2768 C.ar      10 UNK        -0.0745 
     14 C14        16.3040  -29.1359  -45.7004 C.ar      10 UNK        -0.0972 
     15 C15        17.8246  -29.6893  -47.6521 C.3       10 UNK         0.0209 
     16 S16        18.9120  -28.2316  -47.6504 S.3       10 UNK        -0.2568 
     17 C17        20.4203  -28.8903  -46.8617 C.3       10 UNK        -0.0983 
     18 CA         21.5182  -27.8074  -46.6692 C.3       3 UNK         0.0876 
     19 N          21.0141  -26.6675  -45.8961 N.am      3 UNK        -0.4424 
     20 C          20.7678  -25.4466  -46.3888 C.2       2 UNK         0.4918 
     21 O          21.1392  -25.0615  -47.4983 O.2       2 UNK        -0.4875 
     22 CA         19.8961  -24.5356  -45.5074 C.3       2 UNK         0.0481 
     23 CB         19.1426  -23.4584  -46.3100 C.3       2 UNK        -0.1831 
     24 N          18.9425  -25.3687  -44.7750 N.am      2 UNK        -0.4498 
     25 C          18.5726  -25.1927  -43.5036 C.2       1 UNK         0.5027 
     26 O          18.8295  -24.1864  -42.8407 O.2       1 UNK        -0.4969 
     27 C          22.7867  -28.4083  -46.0300 C.2       3 UNK         0.5005 
     28 O          23.3761  -29.3212  -46.6110 O.2       3 UNK        -0.5279 
     29 N          23.1953  -27.9004  -44.8609 N.am      4 UNK        -0.4463 
     30 CA         24.3863  -28.2968  -44.1196 C.3       4 UNK         0.0283 
     31 CB         24.0570  -29.4961  -43.2118 C.3       4 UNK        -0.1875 
     32 C          24.8598  -27.0941  -43.2966 C.2       4 UNK         0.4949 
     33 O          24.1004  -26.1391  -43.1088 O.2       4 UNK        -0.5039 
     34 N          26.0940  -27.1670  -42.7840 N.am      5 UNK        -0.4663 
     35 CA         26.7241  -26.1439  -41.9396 C.3       5 UNK         0.0242 
     36 CB         28.2533  -26.3159  -42.0117 C.3       5 UNK        -0.1982 
     37 C          26.1902  -26.1763  -40.4918 C.2       5 UNK         0.5017 
     38 O          26.9600  -26.3889  -39.5538 O.2       5 UNK        -0.5012 
     39 N          24.8676  -26.0056  -40.3512 N.am      6 UNK        -0.4439 
     40 CA         24.0684  -26.0534  -39.1178 C.3       6 UNK         0.0297 
     41 CB         24.4704  -24.9158  -38.1548 C.3       6 UNK        -0.2006 
     42 C          24.0478  -27.4325  -38.4218 C.2       6 UNK         0.4892 
     43 O          23.6631  -27.5146  -37.2537 O.2       6 UNK        -0.5089 
     44 N          24.4423  -28.4905  -39.1422 N.am      7 UNK        -0.4243 
     45 CA         24.4036  -29.8777  -38.6822 C.3       7 UNK         0.0196 
     46 CB         25.4346  -30.6963  -39.4766 C.3       7 UNK        -0.2007 
     47 C          22.9972  -30.4734  -38.8499 C.2       7 UNK         0.5020 
     48 O          22.2298  -30.0204  -39.7031 O.2       7 UNK        -0.5147 
     49 N          22.6971  -31.5012  -38.0480 N.am      8 UNK        -0.4734 
     50 CA         21.4522  -32.2685  -38.1227 C.3       8 UNK         0.0238 
     51 CB         21.3027  -33.1072  -36.8423 C.3       8 UNK        -0.1912 
     52 C          21.4129  -33.1751  -39.3656 C.2       8 UNK         0.5038 
     53 O          22.4611  -33.6437  -39.8181 O.2       8 UNK        -0.5046 
     54 N          20.1988  -33.4222  -39.8681 N.am      9 UNK        -0.4200 
     55 CA         19.9117  -34.3171  -40.9985 C.3       9 UNK         0.0839 
     56 C          20.2514  -35.8002  -40.6860 C.2       9 UNK         0.5513 
     57 N          20.7298  -36.5474  -41.6711 N.am      9 UNK        -0.7519 
     58 O          20.0412  -36.2869  -39.5766 O.2       9 UNK        -0.4960 
     59 C59        18.4352  -34.1837  -41.4511 C.3       10 UNK        -0.0876 
     60 S60        18.0325  -32.4876  -41.9908 S.3       10 UNK        -0.2414 
     61 C61        17.3921  -32.7903  -43.6677 C.3       10 UNK         0.0169 
     62 H62        19.2162  -30.1140  -43.5202 H         1 UNK         0.0903 
     63 H63        20.9294  -29.7256  -43.6461 H         1 UNK         0.0903 
     64 H64        20.1889  -29.9241  -42.0594 H         1 UNK         0.0903 
     65 H65        17.7204  -28.4358  -43.1966 H         1 UNK         0.3096 
     66 H66        17.8763  -26.2096  -41.7749 H         1 UNK         0.1121 
     67 H67        15.8937  -25.3497  -42.9974 H         1 UNK         0.0849 
     68 H68        16.2174  -26.4110  -44.3405 H         1 UNK         0.0849 
     69 H69        13.8226  -29.1432  -43.5148 H         1 UNK         0.0865 
     70 H70        14.2551  -27.8498  -44.5973 H         1 UNK         0.0865 
     71 H71        15.6099  -30.8856  -42.8760 H         1 UNK         0.1346 
     72 H72        18.3289  -31.8399  -46.0514 H         1 UNK         0.1412 
     73 H73        16.0191  -28.2324  -46.2225 H         1 UNK         0.1426 
     74 H74        17.0024  -29.5072  -48.3455 H         1 UNK         0.0716 
     75 H75        18.3710  -30.5460  -48.0498 H         1 UNK         0.0716 
     76 H76        20.7941  -29.7071  -47.4821 H         1 UNK         0.0695 
     77 H77        20.1406  -29.3338  -45.9064 H         1 UNK         0.0695 
     78 H78        21.8267  -27.4689  -47.6607 H         1 UNK         0.0983 
     79 H79        20.7335  -26.8625  -44.9404 H         1 UNK         0.3095 
     80 H80        20.5717  -24.0429  -44.8052 H         1 UNK         0.0454 
     81 H81        19.8375  -22.8014  -46.8342 H         1 UNK         0.0851 
     82 H82        18.5355  -22.8307  -45.6578 H         1 UNK         0.0851 
     83 H83        18.4838  -23.9029  -47.0568 H         1 UNK         0.0851 
     84 H84        18.6688  -26.2265  -45.2366 H         1 UNK         0.2976 
     85 H85        22.7076  -27.1110  -44.4526 H         1 UNK         0.3116 
     86 H86        25.1795  -28.5674  -44.8199 H         1 UNK         0.0646 
     87 H87        24.9478  -29.8466  -42.6914 H         1 UNK         0.0847 
     88 H88        23.6726  -30.3379  -43.7877 H         1 UNK         0.0847 
     89 H89        23.3111  -29.2403  -42.4571 H         1 UNK         0.0847 
     90 H90        26.6443  -27.9949  -42.9653 H         1 UNK         0.3040 
     91 H91        26.4838  -25.1580  -42.3447 H         1 UNK         0.1015 
     92 H92        28.7613  -25.5486  -41.4255 H         1 UNK         0.0786 
     93 H93        28.6148  -26.2279  -43.0364 H         1 UNK         0.0786 
     94 H94        28.5708  -27.2853  -41.6252 H         1 UNK         0.0786 
     95 H95        24.3405  -25.8804  -41.2134 H         1 UNK         0.3172 
     96 H96        23.0394  -25.8677  -39.4293 H         1 UNK         0.0595 
     97 H97        25.4669  -25.0693  -37.7395 H         1 UNK         0.0839 
     98 H98        23.7777  -24.8494  -37.3150 H         1 UNK         0.0839 
     99 H99        24.4604  -23.9481  -38.6561 H         1 UNK         0.0839 
    100 H100       24.6997  -28.3382  -40.1049 H         1 UNK         0.2998 
    101 H101       24.6757  -29.9066  -37.6245 H         1 UNK         0.0822 
    102 H102       26.4338  -30.2678  -39.3931 H         1 UNK         0.0787 
    103 H103       25.4897  -31.7204  -39.1049 H         1 UNK         0.0787 
    104 H104       25.1782  -30.7523  -40.5342 H         1 UNK         0.0787 
    105 H105       23.3999  -31.8424  -37.4079 H         1 UNK         0.3055 
    106 H106       20.6200  -31.5625  -38.1790 H         1 UNK         0.1106 
    107 H107       22.1152  -33.8270  -36.7339 H         1 UNK         0.0828 
    108 H108       21.2898  -32.4772  -35.9527 H         1 UNK         0.0828 
    109 H109       20.3692  -33.6718  -36.8505 H         1 UNK         0.0828 
    110 H110       19.3914  -33.0093  -39.4261 H         1 UNK         0.2931 
    111 H111       20.5481  -33.9966  -41.8264 H         1 UNK         0.0412 
    112 H112       20.8972  -36.1592  -42.5867 H         1 UNK         0.3472 
    113 H113       20.9409  -37.5174  -41.4931 H         1 UNK         0.3472 
    114 H114       18.2248  -34.8792  -42.2661 H         1 UNK         0.0970 
    115 H115       17.7572  -34.4589  -40.6409 H         1 UNK         0.0970 
    116 H116       18.1418  -33.3412  -44.2378 H         1 UNK         0.0612 
    117 H117       16.5098  -33.4289  -43.6067 H         1 UNK         0.0612 
@<TRIPOS>BOND
     1    1    2 1    
     2    1   62 1    
     3    1   63 1    
     4    1   64 1    
     5    2    3 2    
     6    2    4 am   BACKBONE|DICT|INTERRES
     7    4    5 1    
     8    4   65 1    
     9    5    6 1    
    10    5   25 1    
    11    5   66 1    
    12    6    7 1    
    13    6   67 1    
    14    6   68 1    
    15    7    8 1    
    16    8    9 1    
    17    8   69 1    
    18    8   70 1    
    19    9   10 ar   
    20    9   14 ar   
    21   10   11 ar   
    22   10   71 1    
    23   11   12 ar   
    24   11   61 1    
    25   12   13 ar   
    26   12   72 1    
    27   13   14 ar   
    28   13   15 1    
    29   14   73 1    
    30   15   16 1    
    31   15   74 1    
    32   15   75 1    
    33   16   17 1    
    34   17   18 1    
    35   17   76 1    
    36   17   77 1    
    37   18   19 1    
    38   18   27 1    
    39   18   78 1    
    40   19   20 am   BACKBONE|DICT|INTERRES
    41   19   79 1    
    42   20   21 2    
    43   20   22 1    
    44   22   23 1    
    45   22   24 1    
    46   22   80 1    
    47   23   81 1    
    48   23   82 1    
    49   23   83 1    
    50   24   25 am   BACKBONE|DICT|INTERRES
    51   24   84 1    
    52   25   26 2    
    53   27   28 2    
    54   27   29 am   BACKBONE|DICT|INTERRES
    55   29   30 1    
    56   29   85 1    
    57   30   31 1    
    58   30   32 1    
    59   30   86 1    
    60   31   87 1    
    61   31   88 1    
    62   31   89 1    
    63   32   33 2    
    64   32   34 am   BACKBONE|DICT|INTERRES
    65   34   35 1    
    66   34   90 1    
    67   35   36 1    
    68   35   37 1    
    69   35   91 1    
    70   36   92 1    
    71   36   93 1    
    72   36   94 1    
    73   37   38 2    
    74   37   39 am   BACKBONE|DICT|INTERRES
    75   39   40 1    
    76   39   95 1    
    77   40   41 1    
    78   40   42 1    
    79   40   96 1    
    80   41   97 1    
    81   41   98 1    
    82   41   99 1    
    83   42   43 2    
    84   42   44 am   BACKBONE|DICT|INTERRES
    85   44   45 1    
    86   44  100 1    
    87   45   46 1    
    88   45   47 1    
    89   45  101 1    
    90   46  102 1    
    91   46  103 1    
    92   46  104 1    
    93   47   48 2    
    94   47   49 am   BACKBONE|DICT|INTERRES
    95   49   50 1    
    96   49  105 1    
    97   50   51 1    
    98   50   52 1    
    99   50  106 1    
   100   51  107 1    
   101   51  108 1    
   102   51  109 1    
   103   52   53 2    
   104   52   54 am   BACKBONE|DICT|INTERRES
   105   54   55 1    
   106   54  110 1    
   107   55   56 1    
   108   55   59 1    
   109   55  111 1    
   110   56   57 am   BACKBONE|DICT|INTERRES
   111   56   58 2    
   112   57  112 1    
   113   57  113 1    
   114   59   60 1    
   115   59  114 1    
   116   59  115 1    
   117   60   61 1    
   118   61  116 1    
   119   61  117 1    
@<TRIPOS>SUBSTRUCTURE
     1 UNK         1 GROUP             0       ****    0 ROOT    
