@<TRIPOS>MOLECULE
3R8
117   119    1
SMALL
USER_CHARGES


@<TRIPOS>ATOM
      1 CA         15.6515  -22.9167  -46.4701 C.3       0 UNK        -0.2013 
      2 C          16.5941  -24.0851  -46.7179 C.2       0 UNK         0.4866 
      3 O          17.3880  -24.0429  -47.6586 O.2       0 UNK        -0.5176 
      4 N          16.5066  -25.1316  -45.8880 N.am      1 UNK        -0.4884 
      5 CA         17.3645  -26.3197  -45.9480 C.3       1 UNK         0.0853 
      6 C6         16.8218  -27.4688  -45.0629 C.3       10 UNK        -0.0849 
      7 S7         15.1938  -28.0824  -45.6004 S.3       10 UNK        -0.2776 
      8 C8         14.5695  -28.8061  -44.0469 C.3       10 UNK         0.0316 
      9 C9         15.5083  -29.8649  -43.4787 C.ar      10 UNK        -0.0863 
     10 C10        15.7079  -31.0676  -44.1627 C.ar      10 UNK        -0.1009 
     11 C11        16.5638  -32.0458  -43.6477 C.ar      10 UNK        -0.0712 
     12 C12        17.2117  -31.8214  -42.4300 C.ar      10 UNK        -0.0894 
     13 C13        17.0252  -30.6213  -41.7380 C.ar      10 UNK        -0.0745 
     14 C14        16.1730  -29.6461  -42.2672 C.ar      10 UNK        -0.0972 
     15 C15        17.7411  -30.3846  -40.4149 C.3       10 UNK         0.0209 
     16 S16        19.5385  -30.1879  -40.6305 S.3       10 UNK        -0.2568 
     17 C17        19.6070  -28.6514  -41.6077 C.3       10 UNK        -0.0983 
     18 CA         21.0705  -28.2083  -41.8972 C.3       3 UNK         0.0876 
     19 N          21.2008  -27.4439  -43.1339 N.am      3 UNK        -0.4424 
     20 C          21.0021  -27.9031  -44.3693 C.2       2 UNK         0.4918 
     21 O          20.6802  -29.0608  -44.6384 O.2       2 UNK        -0.4875 
     22 CA         21.1090  -26.8772  -45.5068 C.3       2 UNK         0.0481 
     23 CB         22.0904  -27.3452  -46.5941 C.3       2 UNK        -0.1831 
     24 N          19.7744  -26.7164  -46.0798 N.am      2 UNK        -0.4498 
     25 C          18.8031  -25.9975  -45.5015 C.2       1 UNK         0.5027 
     26 O          18.9975  -25.1872  -44.5906 O.2       1 UNK        -0.4969 
     27 C          21.6909  -27.3551  -40.7733 C.2       3 UNK         0.5005 
     28 O          22.4390  -26.4172  -41.0715 O.2       3 UNK        -0.5279 
     29 N          21.3717  -27.6768  -39.5107 N.am      4 UNK        -0.4463 
     30 CA         21.7697  -26.9755  -38.2830 C.3       4 UNK         0.0283 
     31 CB         21.0613  -25.6057  -38.1838 C.3       4 UNK        -0.1875 
     32 C          23.2995  -26.8898  -38.1477 C.2       4 UNK         0.4949 
     33 O          23.9187  -27.8749  -37.7490 O.2       4 UNK        -0.5039 
     34 N          23.8880  -25.7495  -38.5346 N.am      5 UNK        -0.4663 
     35 CA         25.3356  -25.5275  -38.6109 C.3       5 UNK         0.0242 
     36 CB         25.6023  -24.0507  -38.9430 C.3       5 UNK        -0.1982 
     37 C          26.0519  -26.4456  -39.6206 C.2       5 UNK         0.5017 
     38 O          27.2347  -26.7308  -39.4321 O.2       5 UNK        -0.5012 
     39 N          25.3278  -26.9164  -40.6484 N.am      6 UNK        -0.4439 
     40 CA         25.8055  -27.9218  -41.6043 C.3       6 UNK         0.0297 
     41 CB         24.9636  -27.8472  -42.8892 C.3       6 UNK        -0.2006 
     42 C          25.7933  -29.3570  -41.0387 C.2       6 UNK         0.4892 
     43 O          26.3732  -30.2430  -41.6680 O.2       6 UNK        -0.5089 
     44 N          25.1353  -29.5665  -39.8859 N.am      7 UNK        -0.4243 
     45 CA         24.9384  -30.8151  -39.1368 C.3       7 UNK         0.0196 
     46 CB         26.2791  -31.4243  -38.6810 C.3       7 UNK        -0.2007 
     47 C          24.0614  -31.8530  -39.8567 C.2       7 UNK         0.5020 
     48 O          23.0661  -32.3015  -39.2877 O.2       7 UNK        -0.5147 
     49 N          24.4445  -32.2219  -41.0810 N.am      8 UNK        -0.4734 
     50 CA         23.7195  -33.1475  -41.9475 C.3       8 UNK         0.0238 
     51 CB         24.7398  -33.8943  -42.8235 C.3       8 UNK        -0.1912 
     52 C          22.7101  -32.3973  -42.8292 C.2       8 UNK         0.5038 
     53 O          22.8862  -31.2047  -43.0879 O.2       8 UNK        -0.5046 
     54 N          21.7028  -33.1372  -43.3085 N.am      9 UNK        -0.4200 
     55 CA         20.7421  -32.7089  -44.3332 C.3       9 UNK         0.0839 
     56 C          21.4617  -32.4902  -45.6943 C.2       9 UNK         0.5513 
     57 N          21.4674  -31.2737  -46.2165 N.am      9 UNK        -0.7519 
     58 O          21.9991  -33.4271  -46.2819 O.2       9 UNK        -0.4960 
     59 C59        19.5945  -33.7498  -44.4408 C.3       10 UNK        -0.0876 
     60 S60        18.2131  -33.2380  -45.5236 S.3       10 UNK        -0.2414 
     61 C61        16.7775  -33.3441  -44.4090 C.3       10 UNK         0.0169 
     62 H62        14.9964  -23.0944  -45.6175 H         1 UNK         0.0903 
     63 H63        16.2226  -22.0093  -46.2754 H         1 UNK         0.0903 
     64 H64        15.0275  -22.7454  -47.3469 H         1 UNK         0.0903 
     65 H65        15.8422  -25.1121  -45.1277 H         1 UNK         0.3096 
     66 H66        17.3943  -26.6601  -46.9859 H         1 UNK         0.1121 
     67 H67        16.7563  -27.1456  -44.0216 H         1 UNK         0.0849 
     68 H68        17.5045  -28.3222  -45.0708 H         1 UNK         0.0849 
     69 H69        14.4015  -28.0065  -43.3236 H         1 UNK         0.0865 
     70 H70        13.5933  -29.2562  -44.2332 H         1 UNK         0.0865 
     71 H71        15.2026  -31.2364  -45.1041 H         1 UNK         0.1346 
     72 H72        17.8723  -32.5736  -42.0222 H         1 UNK         0.1412 
     73 H73        16.0266  -28.7167  -41.7337 H         1 UNK         0.1426 
     74 H74        17.5567  -31.2313  -39.7522 H         1 UNK         0.0716 
     75 H75        17.3423  -29.5057  -39.9060 H         1 UNK         0.0716 
     76 H76        19.0336  -27.8640  -41.1144 H         1 UNK         0.0695 
     77 H77        19.0778  -28.8558  -42.5390 H         1 UNK         0.0695 
     78 H78        21.7003  -29.0932  -42.0073 H         1 UNK         0.0983 
     79 H79        21.4969  -26.4865  -42.9851 H         1 UNK         0.3095 
     80 H80        21.4628  -25.9212  -45.1141 H         1 UNK         0.0454 
     81 H81        22.1747  -26.6095  -47.3939 H         1 UNK         0.0851 
     82 H82        21.7850  -28.2919  -47.0412 H         1 UNK         0.0851 
     83 H83        23.0887  -27.4893  -46.1788 H         1 UNK         0.0851 
     84 H84        19.5223  -27.3824  -46.7963 H         1 UNK         0.2976 
     85 H85        20.7802  -28.4886  -39.3791 H         1 UNK         0.3116 
     86 H86        21.4214  -27.5855  -37.4479 H         1 UNK         0.0646 
     87 H87        21.2754  -24.9590  -39.0351 H         1 UNK         0.0847 
     88 H88        21.3604  -25.0733  -37.2799 H         1 UNK         0.0847 
     89 H89        19.9796  -25.7312  -38.1357 H         1 UNK         0.0847 
     90 H90        23.2976  -25.0153  -38.8991 H         1 UNK         0.3040 
     91 H91        25.7566  -25.7415  -37.6259 H         1 UNK         0.1015 
     92 H92        25.1828  -23.7725  -39.9108 H         1 UNK         0.0786 
     93 H93        26.6734  -23.8463  -38.9810 H         1 UNK         0.0786 
     94 H94        25.1754  -23.3901  -38.1880 H         1 UNK         0.0786 
     95 H95        24.3588  -26.6185  -40.7379 H         1 UNK         0.3172 
     96 H96        26.8382  -27.6829  -41.8670 H         1 UNK         0.0595 
     97 H97        25.3835  -28.4888  -43.6651 H         1 UNK         0.0839 
     98 H98        24.9281  -26.8341  -43.2899 H         1 UNK         0.0839 
     99 H99        23.9410  -28.1818  -42.7212 H         1 UNK         0.0839 
    100 H100       24.7117  -28.7599  -39.4412 H         1 UNK         0.2998 
    101 H101       24.3955  -30.5274  -38.2349 H         1 UNK         0.0822 
    102 H102       26.1128  -32.2977  -38.0492 H         1 UNK         0.0787 
    103 H103       26.8931  -31.7471  -39.5221 H         1 UNK         0.0787 
    104 H104       26.8594  -30.7086  -38.0985 H         1 UNK         0.0787 
    105 H105       25.2269  -31.7179  -41.4924 H         1 UNK         0.3055 
    106 H106       23.1810  -33.8742  -41.3343 H         1 UNK         0.1106 
    107 H107       25.2994  -33.2092  -43.4621 H         1 UNK         0.0828 
    108 H108       25.4569  -34.4451  -42.2145 H         1 UNK         0.0828 
    109 H109       24.2474  -34.6174  -43.4751 H         1 UNK         0.0828 
    110 H110       21.6680  -34.1149  -43.0621 H         1 UNK         0.2931 
    111 H111       20.3097  -31.7628  -43.9992 H         1 UNK         0.0412 
    112 H112       21.9217  -31.1146  -47.1007 H         1 UNK         0.3472 
    113 H113       21.0878  -30.4922  -45.6850 H         1 UNK         0.3472 
    114 H114       19.2040  -33.9615  -43.4452 H         1 UNK         0.0970 
    115 H115       19.9766  -34.7027  -44.8120 H         1 UNK         0.0970 
    116 H116       16.8901  -34.1821  -43.7196 H         1 UNK         0.0612 
    117 H117       15.8935  -33.5678  -45.0081 H         1 UNK         0.0612 
@<TRIPOS>BOND
     1    1    2 1    
     2    1   62 1    
     3    1   63 1    
     4    1   64 1    
     5    2    3 2    
     6    2    4 am   BACKBONE|DICT|INTERRES
     7    4    5 1    
     8    4   65 1    
     9    5    6 1    
    10    5   25 1    
    11    5   66 1    
    12    6    7 1    
    13    6   67 1    
    14    6   68 1    
    15    7    8 1    
    16    8    9 1    
    17    8   69 1    
    18    8   70 1    
    19    9   10 ar   
    20    9   14 ar   
    21   10   11 ar   
    22   10   71 1    
    23   11   12 ar   
    24   11   61 1    
    25   12   13 ar   
    26   12   72 1    
    27   13   14 ar   
    28   13   15 1    
    29   14   73 1    
    30   15   16 1    
    31   15   74 1    
    32   15   75 1    
    33   16   17 1    
    34   17   18 1    
    35   17   76 1    
    36   17   77 1    
    37   18   19 1    
    38   18   27 1    
    39   18   78 1    
    40   19   20 am   BACKBONE|DICT|INTERRES
    41   19   79 1    
    42   20   21 2    
    43   20   22 1    
    44   22   23 1    
    45   22   24 1    
    46   22   80 1    
    47   23   81 1    
    48   23   82 1    
    49   23   83 1    
    50   24   25 am   BACKBONE|DICT|INTERRES
    51   24   84 1    
    52   25   26 2    
    53   27   28 2    
    54   27   29 am   BACKBONE|DICT|INTERRES
    55   29   30 1    
    56   29   85 1    
    57   30   31 1    
    58   30   32 1    
    59   30   86 1    
    60   31   87 1    
    61   31   88 1    
    62   31   89 1    
    63   32   33 2    
    64   32   34 am   BACKBONE|DICT|INTERRES
    65   34   35 1    
    66   34   90 1    
    67   35   36 1    
    68   35   37 1    
    69   35   91 1    
    70   36   92 1    
    71   36   93 1    
    72   36   94 1    
    73   37   38 2    
    74   37   39 am   BACKBONE|DICT|INTERRES
    75   39   40 1    
    76   39   95 1    
    77   40   41 1    
    78   40   42 1    
    79   40   96 1    
    80   41   97 1    
    81   41   98 1    
    82   41   99 1    
    83   42   43 2    
    84   42   44 am   BACKBONE|DICT|INTERRES
    85   44   45 1    
    86   44  100 1    
    87   45   46 1    
    88   45   47 1    
    89   45  101 1    
    90   46  102 1    
    91   46  103 1    
    92   46  104 1    
    93   47   48 2    
    94   47   49 am   BACKBONE|DICT|INTERRES
    95   49   50 1    
    96   49  105 1    
    97   50   51 1    
    98   50   52 1    
    99   50  106 1    
   100   51  107 1    
   101   51  108 1    
   102   51  109 1    
   103   52   53 2    
   104   52   54 am   BACKBONE|DICT|INTERRES
   105   54   55 1    
   106   54  110 1    
   107   55   56 1    
   108   55   59 1    
   109   55  111 1    
   110   56   57 am   BACKBONE|DICT|INTERRES
   111   56   58 2    
   112   57  112 1    
   113   57  113 1    
   114   59   60 1    
   115   59  114 1    
   116   59  115 1    
   117   60   61 1    
   118   61  116 1    
   119   61  117 1    
@<TRIPOS>SUBSTRUCTURE
     1 UNK         1 GROUP             0       ****    0 ROOT    
