@<TRIPOS>MOLECULE
3R8
117   119    1
SMALL
USER_CHARGES


@<TRIPOS>ATOM
      1 CA         15.7603  -25.7404  -42.4425 C.3       0 UNK        -0.2013 
      2 C          16.5163  -25.3733  -43.7104 C.2       0 UNK         0.4866 
      3 O          16.8489  -24.2050  -43.9112 O.2       0 UNK        -0.5176 
      4 N          16.8056  -26.3598  -44.5676 N.am      1 UNK        -0.4884 
      5 CA         17.3861  -26.1879  -45.9079 C.3       1 UNK         0.0853 
      6 C6         16.9350  -27.3019  -46.9038 C.3       10 UNK        -0.0849 
      7 S7         15.2221  -27.8956  -46.6322 S.3       10 UNK        -0.2776 
      8 C8         15.4433  -29.6626  -46.2131 C.3       10 UNK         0.0316 
      9 C9         16.5377  -29.9315  -45.1821 C.ar      10 UNK        -0.0863 
     10 C10        17.7657  -30.4514  -45.6020 C.ar      10 UNK        -0.1009 
     11 C11        18.7726  -30.7414  -44.6803 C.ar      10 UNK        -0.0712 
     12 C12        18.5447  -30.5138  -43.3215 C.ar      10 UNK        -0.0894 
     13 C13        17.3221  -29.9933  -42.8790 C.ar      10 UNK        -0.0745 
     14 C14        16.3209  -29.7068  -43.8177 C.ar      10 UNK        -0.0972 
     15 C15        17.0451  -29.7922  -41.3891 C.3       10 UNK         0.0209 
     16 S16        18.4802  -29.2011  -40.4210 S.3       10 UNK        -0.2568 
     17 C17        18.7175  -27.5225  -41.0876 C.3       10 UNK        -0.0983 
     18 CA         20.1218  -27.3017  -41.7041 C.3       3 UNK         0.0876 
     19 N          20.0803  -26.2512  -42.7253 N.am      3 UNK        -0.4424 
     20 C          21.0917  -25.8559  -43.5117 C.2       2 UNK         0.4918 
     21 O          22.2441  -26.2781  -43.4080 O.2       2 UNK        -0.4875 
     22 CA         20.7342  -24.8017  -44.5809 C.3       2 UNK         0.0481 
     23 CB         21.7826  -24.7054  -45.7091 C.3       2 UNK        -0.1831 
     24 N          19.3746  -25.0017  -45.1061 N.am      2 UNK        -0.4498 
     25 C          18.9230  -26.0584  -45.8009 C.2       1 UNK         0.5027 
     26 O          19.6556  -26.9336  -46.2642 O.2       1 UNK        -0.4969 
     27 C          21.1889  -27.0416  -40.6207 C.2       3 UNK         0.5005 
     28 O          21.8953  -27.9690  -40.2274 O.2       3 UNK        -0.5279 
     29 N          21.3260  -25.7749  -40.2005 N.am      4 UNK        -0.4463 
     30 CA         22.3231  -25.3252  -39.2245 C.3       4 UNK         0.0283 
     31 CB         22.0066  -23.8823  -38.7999 C.3       4 UNK        -0.1875 
     32 C          23.7737  -25.4297  -39.7299 C.2       4 UNK         0.4949 
     33 O          24.6741  -25.6511  -38.9204 O.2       4 UNK        -0.5039 
     34 N          23.9766  -25.2747  -41.0461 N.am      5 UNK        -0.4663 
     35 CA         25.2768  -25.4412  -41.6989 C.3       5 UNK         0.0242 
     36 CB         25.3091  -24.6363  -43.0085 C.3       5 UNK        -0.1982 
     37 C          25.5886  -26.9228  -41.9579 C.2       5 UNK         0.5017 
     38 O          26.7327  -27.3387  -41.7727 O.2       5 UNK        -0.5012 
     39 N          24.5674  -27.6888  -42.3698 N.am      6 UNK        -0.4439 
     40 CA         24.6454  -29.1323  -42.6055 C.3       6 UNK         0.0297 
     41 CB         23.3614  -29.6091  -43.3059 C.3       6 UNK        -0.2006 
     42 C          24.8836  -29.9446  -41.3209 C.2       6 UNK         0.4892 
     43 O          25.6062  -30.9399  -41.3673 O.2       6 UNK        -0.5089 
     44 N          24.2523  -29.5235  -40.2144 N.am      7 UNK        -0.4243 
     45 CA         24.2075  -30.1343  -38.8776 C.3       7 UNK         0.0196 
     46 CB         25.6121  -30.3431  -38.2787 C.3       7 UNK        -0.2007 
     47 C          23.3638  -31.4202  -38.8222 C.2       7 UNK         0.5020 
     48 O          22.5572  -31.5722  -37.9045 O.2       7 UNK        -0.5147 
     49 N          23.5299  -32.3022  -39.8107 N.am      8 UNK        -0.4734 
     50 CA         22.7007  -33.4740  -40.0654 C.3       8 UNK         0.0238 
     51 CB         23.2570  -34.6920  -39.3080 C.3       8 UNK        -0.1912 
     52 C          22.6949  -33.7109  -41.5786 C.2       8 UNK         0.5038 
     53 O          23.7436  -33.5675  -42.2117 O.2       8 UNK        -0.5046 
     54 N          21.5290  -34.0659  -42.1301 N.am      9 UNK        -0.4200 
     55 CA         21.3411  -34.3231  -43.5685 C.3       9 UNK         0.0839 
     56 C          21.6975  -35.7727  -44.0155 C.2       9 UNK         0.5513 
     57 N          22.0355  -36.6838  -43.1105 N.am      9 UNK        -0.7519 
     58 O          21.6785  -36.0765  -45.2052 O.2       9 UNK        -0.4960 
     59 C59        19.9243  -33.8832  -44.0364 C.3       10 UNK        -0.0876 
     60 S60        19.9642  -33.0477  -45.6586 S.3       10 UNK        -0.2414 
     61 C61        20.1028  -31.3004  -45.1627 C.3       10 UNK         0.0169 
     62 H62        15.5571  -26.8092  -42.3824 H         1 UNK         0.0903 
     63 H63        16.3322  -25.4494  -41.5619 H         1 UNK         0.0903 
     64 H64        14.8061  -25.2150  -42.4143 H         1 UNK         0.0903 
     65 H65        16.5296  -27.3090  -44.3562 H         1 UNK         0.3096 
     66 H66        17.0185  -25.2417  -46.3125 H         1 UNK         0.1121 
     67 H67        17.6059  -28.1580  -46.8900 H         1 UNK         0.0849 
     68 H68        16.9998  -26.9197  -47.9238 H         1 UNK         0.0849 
     69 H69        14.4954  -30.0551  -45.8420 H         1 UNK         0.0865 
     70 H70        15.6498  -30.2120  -47.1331 H         1 UNK         0.0865 
     71 H71        17.9418  -30.6386  -46.6527 H         1 UNK         0.1346 
     72 H72        19.3193  -30.7544  -42.6069 H         1 UNK         0.1412 
     73 H73        15.3627  -29.3285  -43.4871 H         1 UNK         0.1426 
     74 H74        16.7194  -30.7459  -40.9721 H         1 UNK         0.0716 
     75 H75        16.2179  -29.0958  -41.2429 H         1 UNK         0.0716 
     76 H76        18.4977  -26.7911  -40.3074 H         1 UNK         0.0695 
     77 H77        17.9591  -27.3725  -41.8542 H         1 UNK         0.0695 
     78 H78        20.4135  -28.2134  -42.2295 H         1 UNK         0.0983 
     79 H79        19.1791  -25.8315  -42.8914 H         1 UNK         0.3095 
     80 H80        20.7198  -23.8403  -44.0660 H         1 UNK         0.0454 
     81 H81        21.9457  -25.6653  -46.1997 H         1 UNK         0.0851 
     82 H82        22.7460  -24.3795  -45.3162 H         1 UNK         0.0851 
     83 H83        21.4838  -23.9846  -46.4697 H         1 UNK         0.0851 
     84 H84        18.6661  -24.3651  -44.7504 H         1 UNK         0.2976 
     85 H85        20.7101  -25.0720  -40.5831 H         1 UNK         0.3116 
     86 H86        22.2378  -25.9652  -38.3434 H         1 UNK         0.0646 
     87 H87        22.7191  -23.5316  -38.0518 H         1 UNK         0.0847 
     88 H88        22.0547  -23.1916  -39.6427 H         1 UNK         0.0847 
     89 H89        21.0133  -23.8061  -38.3572 H         1 UNK         0.0847 
     90 H90        23.1776  -25.1402  -41.6503 H         1 UNK         0.3040 
     91 H91        26.0564  -25.0464  -41.0428 H         1 UNK         0.1015 
     92 H92        26.2892  -24.7072  -43.4822 H         1 UNK         0.0786 
     93 H93        25.1120  -23.5792  -42.8299 H         1 UNK         0.0786 
     94 H94        24.5754  -24.9981  -43.7287 H         1 UNK         0.0786 
     95 H95        23.6771  -27.2378  -42.5630 H         1 UNK         0.3172 
     96 H96        25.4872  -29.3151  -43.2766 H         1 UNK         0.0595 
     97 H97        22.4807  -29.4572  -42.6816 H         1 UNK         0.0839 
     98 H98        23.4165  -30.6745  -43.5355 H         1 UNK         0.0839 
     99 H99        23.2001  -29.0815  -44.2463 H         1 UNK         0.0839 
    100 H100       23.5944  -28.7544  -40.3273 H         1 UNK         0.2998 
    101 H101       23.6949  -29.4016  -38.2518 H         1 UNK         0.0822 
    102 H102       25.5437  -30.6654  -37.2390 H         1 UNK         0.0787 
    103 H103       26.1790  -31.1050  -38.8140 H         1 UNK         0.0787 
    104 H104       26.1903  -29.4191  -38.2957 H         1 UNK         0.0787 
    105 H105       24.2202  -32.0972  -40.5308 H         1 UNK         0.3055 
    106 H106       21.6797  -33.2729  -39.7324 H         1 UNK         0.1106 
    107 H107       23.2645  -34.5197  -38.2316 H         1 UNK         0.0828 
    108 H108       22.6480  -35.5781  -39.4897 H         1 UNK         0.0828 
    109 H109       24.2770  -34.9256  -39.6161 H         1 UNK         0.0828 
    110 H110       20.7196  -34.2013  -41.5418 H         1 UNK         0.2931 
    111 H111       22.0629  -33.6900  -44.0888 H         1 UNK         0.0412 
    112 H112       22.0648  -36.4494  -42.1316 H         1 UNK         0.3472 
    113 H113       22.2691  -37.6167  -43.4134 H         1 UNK         0.3472 
    114 H114       19.2396  -34.7316  -44.0936 H         1 UNK         0.0970 
    115 H115       19.4683  -33.2031  -43.3168 H         1 UNK         0.0970 
    116 H116       20.4456  -30.7176  -46.0189 H         1 UNK         0.0612 
    117 H117       20.8727  -31.1978  -44.3962 H         1 UNK         0.0612 
@<TRIPOS>BOND
     1    1    2 1    
     2    1   62 1    
     3    1   63 1    
     4    1   64 1    
     5    2    3 2    
     6    2    4 am   BACKBONE|DICT|INTERRES
     7    4    5 1    
     8    4   65 1    
     9    5    6 1    
    10    5   25 1    
    11    5   66 1    
    12    6    7 1    
    13    6   67 1    
    14    6   68 1    
    15    7    8 1    
    16    8    9 1    
    17    8   69 1    
    18    8   70 1    
    19    9   10 ar   
    20    9   14 ar   
    21   10   11 ar   
    22   10   71 1    
    23   11   12 ar   
    24   11   61 1    
    25   12   13 ar   
    26   12   72 1    
    27   13   14 ar   
    28   13   15 1    
    29   14   73 1    
    30   15   16 1    
    31   15   74 1    
    32   15   75 1    
    33   16   17 1    
    34   17   18 1    
    35   17   76 1    
    36   17   77 1    
    37   18   19 1    
    38   18   27 1    
    39   18   78 1    
    40   19   20 am   BACKBONE|DICT|INTERRES
    41   19   79 1    
    42   20   21 2    
    43   20   22 1    
    44   22   23 1    
    45   22   24 1    
    46   22   80 1    
    47   23   81 1    
    48   23   82 1    
    49   23   83 1    
    50   24   25 am   BACKBONE|DICT|INTERRES
    51   24   84 1    
    52   25   26 2    
    53   27   28 2    
    54   27   29 am   BACKBONE|DICT|INTERRES
    55   29   30 1    
    56   29   85 1    
    57   30   31 1    
    58   30   32 1    
    59   30   86 1    
    60   31   87 1    
    61   31   88 1    
    62   31   89 1    
    63   32   33 2    
    64   32   34 am   BACKBONE|DICT|INTERRES
    65   34   35 1    
    66   34   90 1    
    67   35   36 1    
    68   35   37 1    
    69   35   91 1    
    70   36   92 1    
    71   36   93 1    
    72   36   94 1    
    73   37   38 2    
    74   37   39 am   BACKBONE|DICT|INTERRES
    75   39   40 1    
    76   39   95 1    
    77   40   41 1    
    78   40   42 1    
    79   40   96 1    
    80   41   97 1    
    81   41   98 1    
    82   41   99 1    
    83   42   43 2    
    84   42   44 am   BACKBONE|DICT|INTERRES
    85   44   45 1    
    86   44  100 1    
    87   45   46 1    
    88   45   47 1    
    89   45  101 1    
    90   46  102 1    
    91   46  103 1    
    92   46  104 1    
    93   47   48 2    
    94   47   49 am   BACKBONE|DICT|INTERRES
    95   49   50 1    
    96   49  105 1    
    97   50   51 1    
    98   50   52 1    
    99   50  106 1    
   100   51  107 1    
   101   51  108 1    
   102   51  109 1    
   103   52   53 2    
   104   52   54 am   BACKBONE|DICT|INTERRES
   105   54   55 1    
   106   54  110 1    
   107   55   56 1    
   108   55   59 1    
   109   55  111 1    
   110   56   57 am   BACKBONE|DICT|INTERRES
   111   56   58 2    
   112   57  112 1    
   113   57  113 1    
   114   59   60 1    
   115   59  114 1    
   116   59  115 1    
   117   60   61 1    
   118   61  116 1    
   119   61  117 1    
@<TRIPOS>SUBSTRUCTURE
     1 UNK         1 GROUP             0       ****    0 ROOT    
