@<TRIPOS>MOLECULE
3R8
117   119    1
SMALL
USER_CHARGES


@<TRIPOS>ATOM
      1 CA         16.3230  -21.7850  -41.8452 C.3       0 UNK        -0.2013 
      2 C          16.5060  -22.8511  -42.9151 C.2       0 UNK         0.4866 
      3 O          15.8013  -22.8328  -43.9251 O.2       0 UNK        -0.5176 
      4 N          17.4391  -23.7860  -42.6981 N.am      1 UNK        -0.4884 
      5 CA         17.7838  -24.8572  -43.6382 C.3       1 UNK         0.0853 
      6 C6         18.6437  -25.9579  -42.9636 C.3       10 UNK        -0.0849 
      7 S7         17.7678  -26.8451  -41.6308 S.3       10 UNK        -0.2776 
      8 C8         16.6848  -27.9975  -42.5437 C.3       10 UNK         0.0316 
      9 C9         17.4600  -29.0632  -43.3082 C.ar      10 UNK        -0.0863 
     10 C10        17.8350  -30.2550  -42.6789 C.ar      10 UNK        -0.1009 
     11 C11        18.5272  -31.2440  -43.3862 C.ar      10 UNK        -0.0712 
     12 C12        18.8457  -31.0303  -44.7305 C.ar      10 UNK        -0.0894 
     13 C13        18.5056  -29.8314  -45.3615 C.ar      10 UNK        -0.0745 
     14 C14        17.7867  -28.8649  -44.6533 C.ar      10 UNK        -0.0972 
     15 C15        18.9439  -29.5641  -46.7956 C.3       10 UNK         0.0209 
     16 S16        20.7555  -29.6710  -47.0261 S.3       10 UNK        -0.2568 
     17 C17        21.4418  -28.6419  -45.6781 C.3       10 UNK        -0.0983 
     18 CA         21.7422  -27.1896  -46.1212 C.3       3 UNK         0.0876 
     19 N          20.5092  -26.4837  -46.4716 N.am      3 UNK        -0.4424 
     20 C          20.4217  -25.3790  -47.2227 C.2       2 UNK         0.4918 
     21 O          21.3648  -24.8915  -47.8465 O.2       2 UNK        -0.4875 
     22 CA         19.0396  -24.6980  -47.2726 C.3       2 UNK         0.0481 
     23 CB         18.2342  -25.2082  -48.4782 C.3       2 UNK        -0.1831 
     24 N          18.2688  -24.9164  -46.0419 N.am      2 UNK        -0.4498 
     25 C          18.5215  -24.3031  -44.8750 C.2       1 UNK         0.5027 
     26 O          19.3294  -23.3797  -44.7450 O.2       1 UNK        -0.4969 
     27 C          22.4878  -26.4229  -45.0066 C.2       3 UNK         0.5005 
     28 O          21.8860  -25.5870  -44.3276 O.2       3 UNK        -0.5279 
     29 N          23.7811  -26.7331  -44.8266 N.am      4 UNK        -0.4463 
     30 CA         24.6859  -26.0758  -43.8728 C.3       4 UNK         0.0283 
     31 CB         26.0944  -26.6794  -44.0000 C.3       4 UNK        -0.1875 
     32 C          24.2151  -26.1171  -42.4067 C.2       4 UNK         0.4949 
     33 O          24.3490  -25.1143  -41.7046 O.2       4 UNK        -0.5039 
     34 N          23.6583  -27.2573  -41.9832 N.am      5 UNK        -0.4663 
     35 CA         23.0488  -27.4713  -40.6739 C.3       5 UNK         0.0242 
     36 CB         24.1287  -27.5607  -39.5755 C.3       5 UNK        -0.1982 
     37 C          22.2466  -28.7729  -40.7237 C.2       5 UNK         0.5017 
     38 O          22.6719  -29.7139  -41.3967 O.2       5 UNK        -0.5012 
     39 N          21.1497  -28.8356  -39.9572 N.am      6 UNK        -0.4439 
     40 CA         20.3561  -30.0551  -39.7610 C.3       6 UNK         0.0297 
     41 CB         19.0249  -29.7020  -39.0795 C.3       6 UNK        -0.2006 
     42 C          21.1026  -31.1302  -38.9493 C.2       6 UNK         0.4892 
     43 O          20.8457  -32.3185  -39.1337 O.2       6 UNK        -0.5089 
     44 N          22.0304  -30.6968  -38.0834 N.am      7 UNK        -0.4243 
     45 CA         22.8987  -31.5568  -37.2754 C.3       7 UNK         0.0196 
     46 CB         23.5961  -30.6979  -36.2077 C.3       7 UNK        -0.2007 
     47 C          23.9402  -32.3370  -38.0992 C.2       7 UNK         0.5020 
     48 O          24.4488  -33.3478  -37.6147 O.2       7 UNK        -0.5147 
     49 N          24.2470  -31.8653  -39.3163 N.am      8 UNK        -0.4734 
     50 CA         25.1697  -32.5227  -40.2457 C.3       8 UNK         0.0238 
     51 CB         25.7181  -31.4762  -41.2306 C.3       8 UNK        -0.1912 
     52 C          24.5241  -33.6947  -41.0082 C.2       8 UNK         0.5038 
     53 O          25.2543  -34.5076  -41.5773 O.2       8 UNK        -0.5046 
     54 N          23.1863  -33.7519  -41.0316 N.am      9 UNK        -0.4200 
     55 CA         22.3947  -34.7803  -41.7191 C.3       9 UNK         0.0839 
     56 C          22.5022  -36.1701  -41.0368 C.2       9 UNK         0.5513 
     57 N          22.4507  -37.2445  -41.8121 N.am      9 UNK        -0.7519 
     58 O          22.5870  -36.2855  -39.8159 O.2       9 UNK        -0.4960 
     59 C59        20.9126  -34.3510  -41.8644 C.3       10 UNK        -0.0876 
     60 S60        20.7444  -32.7612  -42.7397 S.3       10 UNK        -0.2414 
     61 C61        18.9394  -32.5417  -42.7056 C.3       10 UNK         0.0169 
     62 H62        15.3018  -21.8060  -41.4652 H         1 UNK         0.0903 
     63 H63        17.0006  -21.9305  -41.0040 H         1 UNK         0.0903 
     64 H64        16.5106  -20.7969  -42.2647 H         1 UNK         0.0903 
     65 H65        17.9956  -23.7504  -41.8561 H         1 UNK         0.3096 
     66 H66        16.8485  -25.3040  -43.9813 H         1 UNK         0.1121 
     67 H67        19.5440  -25.5149  -42.5323 H         1 UNK         0.0849 
     68 H68        19.0115  -26.6846  -43.6870 H         1 UNK         0.0849 
     69 H69        16.0160  -28.4802  -41.8293 H         1 UNK         0.0865 
     70 H70        16.0372  -27.4381  -43.2197 H         1 UNK         0.0865 
     71 H71        17.5849  -30.4121  -41.6388 H         1 UNK         0.1346 
     72 H72        19.3969  -31.7840  -45.2764 H         1 UNK         0.1412 
     73 H73        17.4945  -27.9475  -45.1431 H         1 UNK         0.1426 
     74 H74        18.6060  -28.5828  -47.1304 H         1 UNK         0.0716 
     75 H75        18.4640  -30.2902  -47.4529 H         1 UNK         0.0716 
     76 H76        20.7863  -28.6551  -44.8063 H         1 UNK         0.0695 
     77 H77        22.3594  -29.1370  -45.3548 H         1 UNK         0.0695 
     78 H78        22.3889  -27.2135  -47.0014 H         1 UNK         0.0983 
     79 H79        19.6863  -26.7825  -45.9771 H         1 UNK         0.3095 
     80 H80        19.1986  -23.6250  -47.3998 H         1 UNK         0.0454 
     81 H81        18.7754  -25.0326  -49.4090 H         1 UNK         0.0851 
     82 H82        18.0380  -26.2792  -48.4146 H         1 UNK         0.0851 
     83 H83        17.2763  -24.6947  -48.5621 H         1 UNK         0.0851 
     84 H84        17.5412  -25.6149  -46.0852 H         1 UNK         0.2976 
     85 H85        24.1946  -27.4399  -45.4184 H         1 UNK         0.3116 
     86 H86        24.7435  -25.0244  -44.1621 H         1 UNK         0.0646 
     87 H87        26.7901  -26.1928  -43.3146 H         1 UNK         0.0847 
     88 H88        26.4941  -26.5515  -45.0061 H         1 UNK         0.0847 
     89 H89        26.1015  -27.7449  -43.7667 H         1 UNK         0.0847 
     90 H90        23.5759  -28.0424  -42.6173 H         1 UNK         0.3040 
     91 H91        22.3716  -26.6403  -40.4637 H         1 UNK         0.1015 
     92 H92        24.6939  -26.6330  -39.4889 H         1 UNK         0.0786 
     93 H93        24.8383  -28.3649  -39.7750 H         1 UNK         0.0786 
     94 H94        23.6829  -27.7522  -38.5989 H         1 UNK         0.0786 
     95 H95        20.8586  -28.0158  -39.4432 H         1 UNK         0.3172 
     96 H96        20.1365  -30.4759  -40.7440 H         1 UNK         0.0595 
     97 H97        18.4502  -28.9915  -39.6724 H         1 UNK         0.0839 
     98 H98        19.1766  -29.2690  -38.0900 H         1 UNK         0.0839 
     99 H99        18.4051  -30.5910  -38.9545 H         1 UNK         0.0839 
    100 H100       22.1612  -29.7012  -37.9857 H         1 UNK         0.2998 
    101 H101       22.2684  -32.2916  -36.7694 H         1 UNK         0.0822 
    102 H102       24.2327  -29.9339  -36.6560 H         1 UNK         0.0787 
    103 H103       22.8721  -30.1984  -35.5635 H         1 UNK         0.0787 
    104 H104       24.2284  -31.3120  -35.5647 H         1 UNK         0.0787 
    105 H105       23.7684  -31.0429  -39.6585 H         1 UNK         0.3055 
    106 H106       26.0106  -32.9294  -39.6789 H         1 UNK         0.1106 
    107 H107       24.9304  -31.0613  -41.8604 H         1 UNK         0.0828 
    108 H108       26.2013  -30.6505  -40.7081 H         1 UNK         0.0828 
    109 H109       26.4626  -31.9187  -41.8938 H         1 UNK         0.0828 
    110 H110       22.6577  -33.0625  -40.5155 H         1 UNK         0.2931 
    111 H111       22.8089  -34.8752  -42.7254 H         1 UNK         0.0412 
    112 H112       22.5027  -38.1583  -41.3886 H         1 UNK         0.3472 
    113 H113       22.3725  -37.1615  -42.8143 H         1 UNK         0.3472 
    114 H114       20.4368  -34.2697  -40.8854 H         1 UNK         0.0970 
    115 H115       20.3501  -35.1052  -42.4181 H         1 UNK         0.0970 
    116 H116       18.4613  -33.3812  -43.2120 H         1 UNK         0.0612 
    117 H117       18.6000  -32.5609  -41.6686 H         1 UNK         0.0612 
@<TRIPOS>BOND
     1    1    2 1    
     2    1   62 1    
     3    1   63 1    
     4    1   64 1    
     5    2    3 2    
     6    2    4 am   BACKBONE|DICT|INTERRES
     7    4    5 1    
     8    4   65 1    
     9    5    6 1    
    10    5   25 1    
    11    5   66 1    
    12    6    7 1    
    13    6   67 1    
    14    6   68 1    
    15    7    8 1    
    16    8    9 1    
    17    8   69 1    
    18    8   70 1    
    19    9   10 ar   
    20    9   14 ar   
    21   10   11 ar   
    22   10   71 1    
    23   11   12 ar   
    24   11   61 1    
    25   12   13 ar   
    26   12   72 1    
    27   13   14 ar   
    28   13   15 1    
    29   14   73 1    
    30   15   16 1    
    31   15   74 1    
    32   15   75 1    
    33   16   17 1    
    34   17   18 1    
    35   17   76 1    
    36   17   77 1    
    37   18   19 1    
    38   18   27 1    
    39   18   78 1    
    40   19   20 am   BACKBONE|DICT|INTERRES
    41   19   79 1    
    42   20   21 2    
    43   20   22 1    
    44   22   23 1    
    45   22   24 1    
    46   22   80 1    
    47   23   81 1    
    48   23   82 1    
    49   23   83 1    
    50   24   25 am   BACKBONE|DICT|INTERRES
    51   24   84 1    
    52   25   26 2    
    53   27   28 2    
    54   27   29 am   BACKBONE|DICT|INTERRES
    55   29   30 1    
    56   29   85 1    
    57   30   31 1    
    58   30   32 1    
    59   30   86 1    
    60   31   87 1    
    61   31   88 1    
    62   31   89 1    
    63   32   33 2    
    64   32   34 am   BACKBONE|DICT|INTERRES
    65   34   35 1    
    66   34   90 1    
    67   35   36 1    
    68   35   37 1    
    69   35   91 1    
    70   36   92 1    
    71   36   93 1    
    72   36   94 1    
    73   37   38 2    
    74   37   39 am   BACKBONE|DICT|INTERRES
    75   39   40 1    
    76   39   95 1    
    77   40   41 1    
    78   40   42 1    
    79   40   96 1    
    80   41   97 1    
    81   41   98 1    
    82   41   99 1    
    83   42   43 2    
    84   42   44 am   BACKBONE|DICT|INTERRES
    85   44   45 1    
    86   44  100 1    
    87   45   46 1    
    88   45   47 1    
    89   45  101 1    
    90   46  102 1    
    91   46  103 1    
    92   46  104 1    
    93   47   48 2    
    94   47   49 am   BACKBONE|DICT|INTERRES
    95   49   50 1    
    96   49  105 1    
    97   50   51 1    
    98   50   52 1    
    99   50  106 1    
   100   51  107 1    
   101   51  108 1    
   102   51  109 1    
   103   52   53 2    
   104   52   54 am   BACKBONE|DICT|INTERRES
   105   54   55 1    
   106   54  110 1    
   107   55   56 1    
   108   55   59 1    
   109   55  111 1    
   110   56   57 am   BACKBONE|DICT|INTERRES
   111   56   58 2    
   112   57  112 1    
   113   57  113 1    
   114   59   60 1    
   115   59  114 1    
   116   59  115 1    
   117   60   61 1    
   118   61  116 1    
   119   61  117 1    
@<TRIPOS>SUBSTRUCTURE
     1 UNK         1 GROUP             0       ****    0 ROOT    
