@<TRIPOS>MOLECULE
3R8
117   119    1
SMALL
USER_CHARGES


@<TRIPOS>ATOM
      1 CA         24.3857  -25.7221  -44.8351 C.3       0 UNK        -0.2013 
      2 C          23.0240  -25.9064  -45.4890 C.2       0 UNK         0.4866 
      3 O          22.7182  -25.2163  -46.4616 O.2       0 UNK        -0.5176 
      4 N          22.2125  -26.8328  -44.9607 N.am      1 UNK        -0.4884 
      5 CA         20.8323  -27.1147  -45.3718 C.3       1 UNK         0.0853 
      6 C6         20.7161  -27.6210  -46.8400 C.3       10 UNK        -0.0849 
      7 S7         19.1355  -28.4414  -47.2673 S.3       10 UNK        -0.2776 
      8 C8         19.3760  -30.1599  -46.7133 C.3       10 UNK         0.0316 
      9 C9         18.8876  -30.3722  -45.2860 C.ar      10 UNK        -0.0863 
     10 C10        19.7982  -30.6340  -44.2591 C.ar      10 UNK        -0.1009 
     11 C11        19.3501  -30.8641  -42.9548 C.ar      10 UNK        -0.0712 
     12 C12        17.9796  -30.8346  -42.6806 C.ar      10 UNK        -0.0894 
     13 C13        17.0568  -30.5550  -43.6939 C.ar      10 UNK        -0.0745 
     14 C14        17.5182  -30.3366  -44.9970 C.ar      10 UNK        -0.0972 
     15 C15        15.5656  -30.4876  -43.3784 C.3       10 UNK         0.0209 
     16 S16        14.8666  -28.8164  -43.6159 S.3       10 UNK        -0.2568 
     17 C17        15.5048  -27.8821  -42.1770 C.3       10 UNK        -0.0983 
     18 CA         16.9677  -27.4077  -42.3691 C.3       3 UNK         0.0876 
     19 N          17.2160  -26.7270  -43.6410 N.am      3 UNK        -0.4424 
     20 C          16.9510  -25.4581  -43.9800 C.2       2 UNK         0.4918 
     21 O          16.2895  -24.6803  -43.2916 O.2       2 UNK        -0.4875 
     22 CA         17.5906  -24.9807  -45.3059 C.3       2 UNK         0.0481 
     23 CB         17.9220  -23.4740  -45.2909 C.3       2 UNK        -0.1831 
     24 N          18.7727  -25.7780  -45.6838 N.am      2 UNK        -0.4498 
     25 C          19.8932  -25.9548  -44.9646 C.2       1 UNK         0.5027 
     26 O          20.1381  -25.3222  -43.9351 O.2       1 UNK        -0.4969 
     27 C          17.5904  -26.6887  -41.1516 C.2       3 UNK         0.5005 
     28 O          17.0263  -26.7117  -40.0558 O.2       3 UNK        -0.5279 
     29 N          18.7709  -26.0973  -41.3722 N.am      4 UNK        -0.4463 
     30 CA         19.6681  -25.5294  -40.3737 C.3       4 UNK         0.0283 
     31 CB         19.7783  -24.0140  -40.6261 C.3       4 UNK        -0.1875 
     32 C          21.0352  -26.2273  -40.4922 C.2       4 UNK         0.4949 
     33 O          21.1850  -27.1780  -41.2661 O.2       4 UNK        -0.5039 
     34 N          22.0091  -25.7630  -39.6976 N.am      5 UNK        -0.4663 
     35 CA         23.4193  -26.1861  -39.6225 C.3       5 UNK         0.0242 
     36 CB         24.1266  -26.0300  -40.9842 C.3       5 UNK        -0.1982 
     37 C          23.6613  -27.5939  -39.0462 C.2       5 UNK         0.5017 
     38 O          24.6987  -27.8033  -38.4172 O.2       5 UNK        -0.5012 
     39 N          22.7297  -28.5299  -39.2735 N.am      6 UNK        -0.4439 
     40 CA         22.6804  -29.9318  -38.8266 C.3       6 UNK         0.0297 
     41 CB         22.6972  -30.0393  -37.2898 C.3       6 UNK        -0.2006 
     42 C          23.7434  -30.8511  -39.4563 C.2       6 UNK         0.4892 
     43 O          23.4187  -31.9826  -39.8098 O.2       6 UNK        -0.5089 
     44 N          24.9742  -30.3525  -39.6309 N.am      7 UNK        -0.4243 
     45 CA         26.1088  -31.0470  -40.2533 C.3       7 UNK         0.0196 
     46 CB         27.3666  -30.1767  -40.0997 C.3       7 UNK        -0.2007 
     47 C          25.8902  -31.4194  -41.7331 C.2       7 UNK         0.5020 
     48 O          26.5862  -32.2948  -42.2468 O.2       7 UNK        -0.5147 
     49 N          24.9237  -30.7621  -42.3869 N.am      8 UNK        -0.4734 
     50 CA         24.4780  -31.0430  -43.7529 C.3       8 UNK         0.0238 
     51 CB         23.7438  -29.8025  -44.2899 C.3       8 UNK        -0.1912 
     52 C          23.5952  -32.3020  -43.8810 C.2       8 UNK         0.5038 
     53 O          23.2527  -32.6649  -45.0071 O.2       8 UNK        -0.5046 
     54 N          23.2243  -32.9336  -42.7604 N.am      9 UNK        -0.4200 
     55 CA         22.3862  -34.1366  -42.7049 C.3       9 UNK         0.0839 
     56 C          22.8387  -35.1077  -41.5776 C.2       9 UNK         0.5513 
     57 N          22.0636  -36.1446  -41.2871 N.am      9 UNK        -0.7519 
     58 O          23.9109  -34.9665  -40.9928 O.2       9 UNK        -0.4960 
     59 C59        20.8703  -33.7874  -42.7170 C.3       10 UNK        -0.0876 
     60 S60        20.2931  -32.8549  -41.2529 S.3       10 UNK        -0.2414 
     61 C61        20.3457  -31.1300  -41.8357 C.3       10 UNK         0.0169 
     62 H62        24.5717  -26.4610  -44.0570 H         1 UNK         0.0903 
     63 H63        25.1754  -25.8130  -45.5805 H         1 UNK         0.0903 
     64 H64        24.4536  -24.7317  -44.3856 H         1 UNK         0.0903 
     65 H65        22.5016  -27.3009  -44.1140 H         1 UNK         0.3096 
     66 H66        20.5262  -27.9409  -44.7298 H         1 UNK         0.1121 
     67 H67        21.5249  -28.3226  -47.0499 H         1 UNK         0.0849 
     68 H68        20.8651  -26.7946  -47.5370 H         1 UNK         0.0849 
     69 H69        18.8133  -30.8196  -47.3756 H         1 UNK         0.0865 
     70 H70        20.4225  -30.4490  -46.8223 H         1 UNK         0.0865 
     71 H71        20.8561  -30.6718  -44.4778 H         1 UNK         0.1346 
     72 H72        17.6359  -31.0126  -41.6706 H         1 UNK         0.1412 
     73 H73        16.8088  -30.1298  -45.7872 H         1 UNK         0.1426 
     74 H74        15.3627  -30.8217  -42.3597 H         1 UNK         0.0716 
     75 H75        15.0389  -31.1808  -44.0357 H         1 UNK         0.0716 
     76 H76        15.4141  -28.5081  -41.2875 H         1 UNK         0.0695 
     77 H77        14.8532  -27.0219  -42.0156 H         1 UNK         0.0695 
     78 H78        17.5809  -28.3000  -42.4304 H         1 UNK         0.0983 
     79 H79        17.7128  -27.2819  -44.3214 H         1 UNK         0.3095 
     80 H80        16.8454  -25.1508  -46.0841 H         1 UNK         0.0454 
     81 H81        18.6014  -23.2153  -44.4782 H         1 UNK         0.0851 
     82 H82        17.0191  -22.8768  -45.1592 H         1 UNK         0.0851 
     83 H83        18.3833  -23.1596  -46.2269 H         1 UNK         0.0851 
     84 H84        18.6572  -26.3703  -46.4990 H         1 UNK         0.2976 
     85 H85        19.1715  -26.1325  -42.3042 H         1 UNK         0.3116 
     86 H86        19.2844  -25.7052  -39.3669 H         1 UNK         0.0646 
     87 H87        18.7949  -23.5433  -40.6294 H         1 UNK         0.0847 
     88 H88        20.3657  -23.5186  -39.8529 H         1 UNK         0.0847 
     89 H89        20.2505  -23.7993  -41.5860 H         1 UNK         0.0847 
     90 H90        21.7654  -25.0152  -39.0620 H         1 UNK         0.3040 
     91 H91        23.8955  -25.4917  -38.9279 H         1 UNK         0.1015 
     92 H92        23.7430  -26.7309  -41.7254 H         1 UNK         0.0786 
     93 H93        25.1975  -26.2157  -40.8900 H         1 UNK         0.0786 
     94 H94        24.0066  -25.0221  -41.3814 H         1 UNK         0.0786 
     95 H95        21.9753  -28.2414  -39.8922 H         1 UNK         0.3172 
     96 H96        21.7129  -30.3070  -39.1624 H         1 UNK         0.0595 
     97 H97        23.6436  -29.7039  -36.8648 H         1 UNK         0.0839 
     98 H98        22.5503  -31.0727  -36.9726 H         1 UNK         0.0839 
     99 H99        21.8993  -29.4470  -36.8421 H         1 UNK         0.0839 
    100 H100       25.1427  -29.4157  -39.2729 H         1 UNK         0.2998 
    101 H101       26.2636  -31.9799  -39.7073 H         1 UNK         0.0822 
    102 H102       28.2408  -30.6727  -40.5241 H         1 UNK         0.0787 
    103 H103       27.2564  -29.2173  -40.6071 H         1 UNK         0.0787 
    104 H104       27.5862  -29.9782  -39.0505 H         1 UNK         0.0787 
    105 H105       24.4113  -30.0589  -41.8757 H         1 UNK         0.3055 
    106 H106       25.3590  -31.2148  -44.3757 H         1 UNK         0.1106 
    107 H107       23.3829  -29.9636  -45.3070 H         1 UNK         0.0828 
    108 H108       22.8829  -29.5446  -43.6730 H         1 UNK         0.0828 
    109 H109       24.4090  -28.9401  -44.3218 H         1 UNK         0.0828 
    110 H110       23.5528  -32.6067  -41.8577 H         1 UNK         0.2931 
    111 H111       22.5850  -34.7056  -43.6150 H         1 UNK         0.0412 
    112 H112       21.1866  -36.2929  -41.7603 H         1 UNK         0.3472 
    113 H113       22.3592  -36.7878  -40.5691 H         1 UNK         0.3472 
    114 H114       20.6347  -33.2299  -43.6231 H         1 UNK         0.0970 
    115 H115       20.2719  -34.6959  -42.7923 H         1 UNK         0.0970 
    116 H116       20.1166  -30.4704  -40.9979 H         1 UNK         0.0612 
    117 H117       21.3613  -30.8826  -42.1452 H         1 UNK         0.0612 
@<TRIPOS>BOND
     1    1    2 1    
     2    1   62 1    
     3    1   63 1    
     4    1   64 1    
     5    2    3 2    
     6    2    4 am   BACKBONE|DICT|INTERRES
     7    4    5 1    
     8    4   65 1    
     9    5    6 1    
    10    5   25 1    
    11    5   66 1    
    12    6    7 1    
    13    6   67 1    
    14    6   68 1    
    15    7    8 1    
    16    8    9 1    
    17    8   69 1    
    18    8   70 1    
    19    9   10 ar   
    20    9   14 ar   
    21   10   11 ar   
    22   10   71 1    
    23   11   12 ar   
    24   11   61 1    
    25   12   13 ar   
    26   12   72 1    
    27   13   14 ar   
    28   13   15 1    
    29   14   73 1    
    30   15   16 1    
    31   15   74 1    
    32   15   75 1    
    33   16   17 1    
    34   17   18 1    
    35   17   76 1    
    36   17   77 1    
    37   18   19 1    
    38   18   27 1    
    39   18   78 1    
    40   19   20 am   BACKBONE|DICT|INTERRES
    41   19   79 1    
    42   20   21 2    
    43   20   22 1    
    44   22   23 1    
    45   22   24 1    
    46   22   80 1    
    47   23   81 1    
    48   23   82 1    
    49   23   83 1    
    50   24   25 am   BACKBONE|DICT|INTERRES
    51   24   84 1    
    52   25   26 2    
    53   27   28 2    
    54   27   29 am   BACKBONE|DICT|INTERRES
    55   29   30 1    
    56   29   85 1    
    57   30   31 1    
    58   30   32 1    
    59   30   86 1    
    60   31   87 1    
    61   31   88 1    
    62   31   89 1    
    63   32   33 2    
    64   32   34 am   BACKBONE|DICT|INTERRES
    65   34   35 1    
    66   34   90 1    
    67   35   36 1    
    68   35   37 1    
    69   35   91 1    
    70   36   92 1    
    71   36   93 1    
    72   36   94 1    
    73   37   38 2    
    74   37   39 am   BACKBONE|DICT|INTERRES
    75   39   40 1    
    76   39   95 1    
    77   40   41 1    
    78   40   42 1    
    79   40   96 1    
    80   41   97 1    
    81   41   98 1    
    82   41   99 1    
    83   42   43 2    
    84   42   44 am   BACKBONE|DICT|INTERRES
    85   44   45 1    
    86   44  100 1    
    87   45   46 1    
    88   45   47 1    
    89   45  101 1    
    90   46  102 1    
    91   46  103 1    
    92   46  104 1    
    93   47   48 2    
    94   47   49 am   BACKBONE|DICT|INTERRES
    95   49   50 1    
    96   49  105 1    
    97   50   51 1    
    98   50   52 1    
    99   50  106 1    
   100   51  107 1    
   101   51  108 1    
   102   51  109 1    
   103   52   53 2    
   104   52   54 am   BACKBONE|DICT|INTERRES
   105   54   55 1    
   106   54  110 1    
   107   55   56 1    
   108   55   59 1    
   109   55  111 1    
   110   56   57 am   BACKBONE|DICT|INTERRES
   111   56   58 2    
   112   57  112 1    
   113   57  113 1    
   114   59   60 1    
   115   59  114 1    
   116   59  115 1    
   117   60   61 1    
   118   61  116 1    
   119   61  117 1    
@<TRIPOS>SUBSTRUCTURE
     1 UNK         1 GROUP             0       ****    0 ROOT    
