@<TRIPOS>MOLECULE
3R8
117   119    1
SMALL
USER_CHARGES


@<TRIPOS>ATOM
      1 CA         14.5851  -24.1490  -47.0353 C.3       0 UNK        -0.2013 
      2 C          15.5209  -25.1848  -46.4299 C.2       0 UNK         0.4866 
      3 O          16.0480  -24.9653  -45.3394 O.2       0 UNK        -0.5176 
      4 N          15.7251  -26.3099  -47.1296 N.am      1 UNK        -0.4884 
      5 CA         16.6174  -27.4147  -46.7539 C.3       1 UNK         0.0853 
      6 C6         16.1504  -28.1431  -45.4614 C.3       10 UNK        -0.0849 
      7 S7         16.6032  -29.9118  -45.4494 S.3       10 UNK        -0.2776 
      8 C8         15.8786  -30.4605  -43.8695 C.3       10 UNK         0.0316 
      9 C9         16.7137  -29.9784  -42.6946 C.ar      10 UNK        -0.0863 
     10 C10        17.8014  -30.7321  -42.2480 C.ar      10 UNK        -0.1009 
     11 C11        18.6280  -30.2514  -41.2273 C.ar      10 UNK        -0.0712 
     12 C12        18.3379  -29.0206  -40.6294 C.ar      10 UNK        -0.0894 
     13 C13        17.2471  -28.2622  -41.0665 C.ar      10 UNK        -0.0745 
     14 C14        16.4267  -28.7576  -42.0822 C.ar      10 UNK        -0.0972 
     15 C15        16.9622  -26.8869  -40.4861 C.3       10 UNK         0.0209 
     16 S16        17.3602  -25.5839  -41.6975 S.3       10 UNK        -0.2568 
     17 C17        19.0928  -25.1948  -41.2905 C.3       10 UNK        -0.0983 
     18 CA         20.1409  -26.1398  -41.9314 C.3       3 UNK         0.0876 
     19 N          19.9875  -26.2692  -43.3902 N.am      3 UNK        -0.4424 
     20 C          20.7356  -27.0481  -44.1877 C.2       2 UNK         0.4918 
     21 O          21.7117  -27.6892  -43.7966 O.2       2 UNK        -0.4875 
     22 CA         20.3262  -27.1063  -45.6663 C.3       2 UNK         0.0481 
     23 CB         21.1560  -28.1132  -46.4881 C.3       2 UNK        -0.1831 
     24 N          18.9021  -27.4179  -45.7891 N.am      2 UNK        -0.4498 
     25 C          18.0987  -26.9595  -46.7579 C.2       1 UNK         0.5027 
     26 O          18.4888  -26.2122  -47.6594 O.2       1 UNK        -0.4969 
     27 C          21.5504  -25.7167  -41.4669 C.2       3 UNK         0.5005 
     28 O          21.9485  -26.0784  -40.3592 O.2       3 UNK        -0.5279 
     29 N          22.2887  -24.9884  -42.3186 N.am      4 UNK        -0.4463 
     30 CA         23.6644  -24.5327  -42.0896 C.3       4 UNK         0.0283 
     31 CB         24.1105  -23.6667  -43.2787 C.3       4 UNK        -0.1875 
     32 C          24.6836  -25.6621  -41.8391 C.2       4 UNK         0.4949 
     33 O          25.7190  -25.4040  -41.2252 O.2       4 UNK        -0.5039 
     34 N          24.3783  -26.8867  -42.2931 N.am      5 UNK        -0.4663 
     35 CA         25.1711  -28.0875  -42.0179 C.3       5 UNK         0.0242 
     36 CB         24.7894  -29.1773  -43.0300 C.3       5 UNK        -0.1982 
     37 C          25.0179  -28.6083  -40.5749 C.2       5 UNK         0.5017 
     38 O          25.8797  -29.3639  -40.1264 O.2       5 UNK        -0.5012 
     39 N          23.9417  -28.2087  -39.8782 N.am      6 UNK        -0.4439 
     40 CA         23.5447  -28.5445  -38.5023 C.3       6 UNK         0.0297 
     41 CB         24.6082  -28.1005  -37.4793 C.3       6 UNK        -0.2006 
     42 C          23.1314  -30.0113  -38.2738 C.2       6 UNK         0.4892 
     43 O          22.1310  -30.2467  -37.5949 O.2       6 UNK        -0.5089 
     44 N          23.8831  -30.9641  -38.8312 N.am      7 UNK        -0.4243 
     45 CA         23.6190  -32.3988  -38.7914 C.3       7 UNK         0.0196 
     46 CB         24.2852  -33.0194  -37.5514 C.3       7 UNK        -0.2007 
     47 C          24.1540  -33.0261  -40.0823 C.2       7 UNK         0.5020 
     48 O          25.1085  -32.5022  -40.6605 O.2       7 UNK        -0.5147 
     49 N          23.5272  -34.1337  -40.5091 N.am      8 UNK        -0.4734 
     50 CA         23.7778  -34.8511  -41.7727 C.3       8 UNK         0.0238 
     51 CB         25.1573  -35.5444  -41.7468 C.3       8 UNK        -0.1912 
     52 C          23.5782  -33.9517  -43.0127 C.2       8 UNK         0.5038 
     53 O          24.3464  -34.0340  -43.9732 O.2       8 UNK        -0.5046 
     54 N          22.5635  -33.0828  -42.9292 N.am      9 UNK        -0.4200 
     55 CA         22.2299  -32.0263  -43.8904 C.3       9 UNK         0.0839 
     56 C          21.9008  -32.5634  -45.3091 C.2       9 UNK         0.5513 
     57 N          22.3433  -31.8743  -46.3519 N.am      9 UNK        -0.7519 
     58 O          21.2103  -33.5681  -45.4678 O.2       9 UNK        -0.4960 
     59 C59        21.0688  -31.1448  -43.3620 C.3       10 UNK        -0.0876 
     60 S60        21.3478  -30.4887  -41.6754 S.3       10 UNK        -0.2414 
     61 C61        19.8535  -31.0427  -40.7930 C.3       10 UNK         0.0169 
     62 H62        13.7503  -23.9588  -46.3612 H         1 UNK         0.0903 
     63 H63        14.1797  -24.4740  -47.9933 H         1 UNK         0.0903 
     64 H64        15.1165  -23.2108  -47.1927 H         1 UNK         0.0903 
     65 H65        15.2851  -26.4076  -48.0347 H         1 UNK         0.3096 
     66 H66        16.5392  -28.1234  -47.5804 H         1 UNK         0.1121 
     67 H67        16.5196  -27.6372  -44.5687 H         1 UNK         0.0849 
     68 H68        15.0622  -28.1006  -45.3895 H         1 UNK         0.0849 
     69 H69        14.8502  -30.1051  -43.7863 H         1 UNK         0.0865 
     70 H70        15.8250  -31.5502  -43.8630 H         1 UNK         0.0865 
     71 H71        18.0165  -31.6808  -42.7186 H         1 UNK         0.1346 
     72 H72        18.9823  -28.6408  -39.8482 H         1 UNK         0.1412 
     73 H73        15.5893  -28.1656  -42.4261 H         1 UNK         0.1426 
     74 H74        17.5095  -26.7267  -39.5560 H         1 UNK         0.0716 
     75 H75        15.9032  -26.8192  -40.2328 H         1 UNK         0.0716 
     76 H76        19.2721  -24.1670  -41.6123 H         1 UNK         0.0695 
     77 H77        19.1957  -25.1866  -40.2034 H         1 UNK         0.0695 
     78 H78        19.9921  -27.1404  -41.5279 H         1 UNK         0.0983 
     79 H79        19.1971  -25.7840  -43.7912 H         1 UNK         0.3095 
     80 H80        20.5161  -26.1076  -46.0648 H         1 UNK         0.0454 
     81 H81        20.9883  -29.1377  -46.1563 H         1 UNK         0.0851 
     82 H82        20.9055  -28.0613  -47.5475 H         1 UNK         0.0851 
     83 H83        22.2239  -27.9091  -46.4007 H         1 UNK         0.0851 
     84 H84        18.5155  -28.0382  -45.0887 H         1 UNK         0.2976 
     85 H85        21.8750  -24.7458  -43.2071 H         1 UNK         0.3116 
     86 H86        23.6537  -23.9067  -41.1950 H         1 UNK         0.0646 
     87 H87        25.1213  -23.2853  -43.1266 H         1 UNK         0.0847 
     88 H88        23.4589  -22.8027  -43.4102 H         1 UNK         0.0847 
     89 H89        24.1141  -24.2326  -44.2112 H         1 UNK         0.0847 
     90 H90        23.5055  -27.0226  -42.7928 H         1 UNK         0.3040 
     91 H91        26.2273  -27.8472  -42.1599 H         1 UNK         0.1015 
     92 H92        25.0317  -28.8757  -44.0490 H         1 UNK         0.0786 
     93 H93        23.7227  -29.3915  -42.9909 H         1 UNK         0.0786 
     94 H94        25.3193  -30.1100  -42.8293 H         1 UNK         0.0786 
     95 H95        23.3023  -27.5691  -40.3412 H         1 UNK         0.3172 
     96 H96        22.6524  -27.9444  -38.3163 H         1 UNK         0.0595 
     97 H97        24.2503  -28.2489  -36.4596 H         1 UNK         0.0839 
     98 H98        24.8456  -27.0424  -37.5889 H         1 UNK         0.0839 
     99 H99        25.5353  -28.6654  -37.5801 H         1 UNK         0.0839 
    100 H100       24.6785  -30.6859  -39.4036 H         1 UNK         0.2998 
    101 H101       22.5401  -32.5644  -38.7494 H         1 UNK         0.0822 
    102 H102       25.3652  -32.8666  -37.5582 H         1 UNK         0.0787 
    103 H103       23.8916  -32.5863  -36.6316 H         1 UNK         0.0787 
    104 H104       24.1064  -34.0944  -37.5062 H         1 UNK         0.0787 
    105 H105       22.7681  -34.4966  -39.9475 H         1 UNK         0.3055 
    106 H106       23.0198  -35.6330  -41.8456 H         1 UNK         0.1106 
    107 H107       25.9745  -34.8225  -41.7383 H         1 UNK         0.0828 
    108 H108       25.2646  -36.1828  -40.8700 H         1 UNK         0.0828 
    109 H109       25.2934  -36.1768  -42.6250 H         1 UNK         0.0828 
    110 H110       22.0038  -33.0918  -42.0911 H         1 UNK         0.2931 
    111 H111       23.1197  -31.4011  -43.9723 H         1 UNK         0.0412 
    112 H112       22.1262  -32.1996  -47.2811 H         1 UNK         0.3472 
    113 H113       22.9121  -31.0513  -46.2298 H         1 UNK         0.3472 
    114 H114       20.1443  -31.7197  -43.3823 H         1 UNK         0.0970 
    115 H115       20.9061  -30.2936  -44.0239 H         1 UNK         0.0970 
    116 H116       19.7030  -32.1112  -40.9543 H         1 UNK         0.0612 
    117 H117       20.0140  -30.9145  -39.7213 H         1 UNK         0.0612 
@<TRIPOS>BOND
     1    1    2 1    
     2    1   62 1    
     3    1   63 1    
     4    1   64 1    
     5    2    3 2    
     6    2    4 am   BACKBONE|DICT|INTERRES
     7    4    5 1    
     8    4   65 1    
     9    5    6 1    
    10    5   25 1    
    11    5   66 1    
    12    6    7 1    
    13    6   67 1    
    14    6   68 1    
    15    7    8 1    
    16    8    9 1    
    17    8   69 1    
    18    8   70 1    
    19    9   10 ar   
    20    9   14 ar   
    21   10   11 ar   
    22   10   71 1    
    23   11   12 ar   
    24   11   61 1    
    25   12   13 ar   
    26   12   72 1    
    27   13   14 ar   
    28   13   15 1    
    29   14   73 1    
    30   15   16 1    
    31   15   74 1    
    32   15   75 1    
    33   16   17 1    
    34   17   18 1    
    35   17   76 1    
    36   17   77 1    
    37   18   19 1    
    38   18   27 1    
    39   18   78 1    
    40   19   20 am   BACKBONE|DICT|INTERRES
    41   19   79 1    
    42   20   21 2    
    43   20   22 1    
    44   22   23 1    
    45   22   24 1    
    46   22   80 1    
    47   23   81 1    
    48   23   82 1    
    49   23   83 1    
    50   24   25 am   BACKBONE|DICT|INTERRES
    51   24   84 1    
    52   25   26 2    
    53   27   28 2    
    54   27   29 am   BACKBONE|DICT|INTERRES
    55   29   30 1    
    56   29   85 1    
    57   30   31 1    
    58   30   32 1    
    59   30   86 1    
    60   31   87 1    
    61   31   88 1    
    62   31   89 1    
    63   32   33 2    
    64   32   34 am   BACKBONE|DICT|INTERRES
    65   34   35 1    
    66   34   90 1    
    67   35   36 1    
    68   35   37 1    
    69   35   91 1    
    70   36   92 1    
    71   36   93 1    
    72   36   94 1    
    73   37   38 2    
    74   37   39 am   BACKBONE|DICT|INTERRES
    75   39   40 1    
    76   39   95 1    
    77   40   41 1    
    78   40   42 1    
    79   40   96 1    
    80   41   97 1    
    81   41   98 1    
    82   41   99 1    
    83   42   43 2    
    84   42   44 am   BACKBONE|DICT|INTERRES
    85   44   45 1    
    86   44  100 1    
    87   45   46 1    
    88   45   47 1    
    89   45  101 1    
    90   46  102 1    
    91   46  103 1    
    92   46  104 1    
    93   47   48 2    
    94   47   49 am   BACKBONE|DICT|INTERRES
    95   49   50 1    
    96   49  105 1    
    97   50   51 1    
    98   50   52 1    
    99   50  106 1    
   100   51  107 1    
   101   51  108 1    
   102   51  109 1    
   103   52   53 2    
   104   52   54 am   BACKBONE|DICT|INTERRES
   105   54   55 1    
   106   54  110 1    
   107   55   56 1    
   108   55   59 1    
   109   55  111 1    
   110   56   57 am   BACKBONE|DICT|INTERRES
   111   56   58 2    
   112   57  112 1    
   113   57  113 1    
   114   59   60 1    
   115   59  114 1    
   116   59  115 1    
   117   60   61 1    
   118   61  116 1    
   119   61  117 1    
@<TRIPOS>SUBSTRUCTURE
     1 UNK         1 GROUP             0       ****    0 ROOT    
