@<TRIPOS>MOLECULE
3R8
117   119    1
SMALL
USER_CHARGES


@<TRIPOS>ATOM
      1 CA         16.5120  -27.4891  -48.8904 C.3       0 UNK        -0.2013 
      2 C          17.3990  -27.6029  -47.6595 C.2       0 UNK         0.4866 
      3 O          16.9697  -27.2301  -46.5675 O.2       0 UNK        -0.5176 
      4 N          18.6234  -28.1211  -47.8361 N.am      1 UNK        -0.4884 
      5 CA         19.6554  -28.3117  -46.8040 C.3       1 UNK         0.0853 
      6 C6         19.2281  -29.2917  -45.6703 C.3       10 UNK        -0.0849 
      7 S7         18.5744  -30.9007  -46.2447 S.3       10 UNK        -0.2776 
      8 C8         16.8796  -30.9118  -45.5573 C.3       10 UNK         0.0316 
      9 C9         16.8419  -30.5494  -44.0763 C.ar      10 UNK        -0.0863 
     10 C10        17.5244  -31.3267  -43.1359 C.ar      10 UNK        -0.1009 
     11 C11        17.5821  -30.9302  -41.7964 C.ar      10 UNK        -0.0712 
     12 C12        16.9043  -29.7776  -41.3882 C.ar      10 UNK        -0.0894 
     13 C13        16.1923  -29.0104  -42.3131 C.ar      10 UNK        -0.0745 
     14 C14        16.1670  -29.3990  -43.6554 C.ar      10 UNK        -0.0972 
     15 C15        15.4575  -27.7553  -41.8710 C.3       10 UNK         0.0209 
     16 S16        16.4575  -26.2622  -42.1544 S.3       10 UNK        -0.2568 
     17 C17        17.5744  -26.2499  -40.7076 C.3       10 UNK        -0.0983 
     18 CA         19.0212  -26.7190  -41.0159 C.3       3 UNK         0.0876 
     19 N          19.5528  -26.0985  -42.2384 N.am      3 UNK        -0.4424 
     20 C          20.7784  -26.2670  -42.7486 C.2       2 UNK         0.4918 
     21 O          21.6952  -26.8513  -42.1718 O.2       2 UNK        -0.4875 
     22 CA         20.9734  -25.7967  -44.1911 C.3       2 UNK         0.0481 
     23 CB         22.4002  -25.2904  -44.4735 C.3       2 UNK        -0.1831 
     24 N          20.6575  -26.9602  -45.0085 N.am      2 UNK        -0.4498 
     25 C          20.1622  -26.9527  -46.2508 C.2       1 UNK         0.5027 
     26 O          20.0957  -25.9352  -46.9462 O.2       1 UNK        -0.4969 
     27 C          19.9089  -26.5254  -39.7672 C.2       3 UNK         0.5005 
     28 O          20.0562  -27.4531  -38.9707 O.2       3 UNK        -0.5279 
     29 N          20.4916  -25.3260  -39.6310 N.am      4 UNK        -0.4463 
     30 CA         21.3607  -24.9387  -38.5182 C.3       4 UNK         0.0283 
     31 CB         21.4238  -23.4039  -38.4476 C.3       4 UNK        -0.1875 
     32 C          22.7822  -25.5263  -38.5942 C.2       4 UNK         0.4949 
     33 O          23.4697  -25.5375  -37.5728 O.2       4 UNK        -0.5039 
     34 N          23.2180  -25.9797  -39.7796 N.am      5 UNK        -0.4663 
     35 CA         24.5661  -26.5151  -39.9985 C.3       5 UNK         0.0242 
     36 CB         24.9356  -26.3884  -41.4855 C.3       5 UNK        -0.1982 
     37 C          24.7197  -27.9712  -39.5316 C.2       5 UNK         0.5017 
     38 O          25.8468  -28.3949  -39.2735 O.2       5 UNK        -0.5012 
     39 N          23.6030  -28.7125  -39.4568 N.am      6 UNK        -0.4439 
     40 CA         23.4453  -30.1183  -39.0474 C.3       6 UNK         0.0297 
     41 CB         23.8925  -30.3353  -37.5893 C.3       6 UNK        -0.2006 
     42 C          24.1026  -31.1481  -39.9871 C.2       6 UNK         0.4892 
     43 O          23.4646  -32.1413  -40.3319 O.2       6 UNK        -0.5089 
     44 N          25.3447  -30.8951  -40.4166 N.am      7 UNK        -0.4243 
     45 CA         26.0796  -31.7030  -41.3955 C.3       7 UNK         0.0196 
     46 CB         27.5471  -31.2478  -41.4246 C.3       7 UNK        -0.2007 
     47 C          25.4670  -31.6371  -42.8061 C.2       7 UNK         0.5020 
     48 O          25.5999  -32.5898  -43.5742 O.2       7 UNK        -0.5147 
     49 N          24.7863  -30.5242  -43.1128 N.am      8 UNK        -0.4734 
     50 CA         24.0888  -30.2824  -44.3777 C.3       8 UNK         0.0238 
     51 CB         23.7903  -28.7816  -44.5004 C.3       8 UNK        -0.1912 
     52 C          22.7952  -31.0995  -44.5499 C.2       8 UNK         0.5038 
     53 O          22.2692  -31.1311  -45.6622 O.2       8 UNK        -0.5046 
     54 N          22.3021  -31.7309  -43.4738 N.am      9 UNK        -0.4200 
     55 CA         21.1256  -32.6150  -43.4881 C.3       9 UNK         0.0839 
     56 C          21.3143  -33.9291  -44.3035 C.2       9 UNK         0.5513 
     57 N          22.5333  -34.3438  -44.6311 N.am      9 UNK        -0.7519 
     58 O          20.3329  -34.5870  -44.6383 O.2       9 UNK        -0.4960 
     59 C59        20.6318  -32.9492  -42.0555 C.3       10 UNK        -0.0876 
     60 S60        20.1857  -31.4842  -41.0568 S.3       10 UNK        -0.2414 
     61 C61        18.3988  -31.7261  -40.7920 C.3       10 UNK         0.0169 
     62 H62        16.2403  -26.4478  -49.0613 H         1 UNK         0.0903 
     63 H63        17.0061  -27.8624  -49.7872 H         1 UNK         0.0903 
     64 H64        15.5959  -28.0612  -48.7456 H         1 UNK         0.0903 
     65 H65        18.9081  -28.3838  -48.7694 H         1 UNK         0.3096 
     66 H66        20.5112  -28.7576  -47.3138 H         1 UNK         0.1121 
     67 H67        18.5002  -28.8001  -45.0258 H         1 UNK         0.0849 
     68 H68        20.0767  -29.5327  -45.0289 H         1 UNK         0.0849 
     69 H69        16.2654  -30.2226  -46.1390 H         1 UNK         0.0865 
     70 H70        16.4450  -31.9025  -45.6962 H         1 UNK         0.0865 
     71 H71        18.0508  -32.2141  -43.4578 H         1 UNK         0.1346 
     72 H72        16.9430  -29.4681  -40.3527 H         1 UNK         0.1412 
     73 H73        15.6447  -28.7851  -44.3774 H         1 UNK         0.1426 
     74 H74        15.1662  -27.8212  -40.8217 H         1 UNK         0.0716 
     75 H75        14.5282  -27.6631  -42.4352 H         1 UNK         0.0716 
     76 H76        17.5817  -25.2254  -40.3299 H         1 UNK         0.0695 
     77 H77        17.1418  -26.8565  -39.9099 H         1 UNK         0.0695 
     78 H78        18.9930  -27.7927  -41.2130 H         1 UNK         0.0983 
     79 H79        18.8575  -25.6345  -42.8063 H         1 UNK         0.3095 
     80 H80        20.2641  -24.9932  -44.4010 H         1 UNK         0.0454 
     81 H81        23.1545  -26.0521  -44.2830 H         1 UNK         0.0851 
     82 H82        22.5075  -24.9684  -45.5092 H         1 UNK         0.0851 
     83 H83        22.6386  -24.4346  -43.8412 H         1 UNK         0.0851 
     84 H84        20.6852  -27.8370  -44.5067 H         1 UNK         0.2976 
     85 H85        20.3228  -24.6303  -40.3437 H         1 UNK         0.3116 
     86 H86        20.9107  -25.3008  -37.5911 H         1 UNK         0.0646 
     87 H87        22.0334  -23.0762  -37.6042 H         1 UNK         0.0847 
     88 H88        20.4327  -22.9702  -38.3139 H         1 UNK         0.0847 
     89 H89        21.8613  -22.9749  -39.3500 H         1 UNK         0.0847 
     90 H90        22.5858  -25.9964  -40.5735 H         1 UNK         0.3040 
     91 H91        25.2771  -25.9151  -39.4254 H         1 UNK         0.1015 
     92 H92        24.8446  -25.3590  -41.8326 H         1 UNK         0.0786 
     93 H93        24.3016  -27.0115  -42.1144 H         1 UNK         0.0786 
     94 H94        25.9671  -26.6985  -41.6583 H         1 UNK         0.0786 
     95 H95        22.7429  -28.2494  -39.7210 H         1 UNK         0.3172 
     96 H96        22.3712  -30.3076  -39.0859 H         1 UNK         0.0595 
     97 H97        23.3681  -29.6627  -36.9106 H         1 UNK         0.0839 
     98 H98        24.9631  -30.1747  -37.4595 H         1 UNK         0.0839 
     99 H99        23.6775  -31.3546  -37.2655 H         1 UNK         0.0839 
    100 H100       25.7950  -30.0527  -40.0649 H         1 UNK         0.2998 
    101 H101       26.0460  -32.7448  -41.0696 H         1 UNK         0.0822 
    102 H102       28.0161  -31.3596  -40.4468 H         1 UNK         0.0787 
    103 H103       28.1270  -31.8433  -42.1314 H         1 UNK         0.0787 
    104 H104       27.6398  -30.2028  -41.7236 H         1 UNK         0.0787 
    105 H105       24.7276  -29.7990  -42.4135 H         1 UNK         0.3055 
    106 H106       24.7562  -30.5677  -45.1942 H         1 UNK         0.1106 
    107 H107       23.3201  -28.5505  -45.4574 H         1 UNK         0.0828 
    108 H108       23.1123  -28.4492  -43.7152 H         1 UNK         0.0828 
    109 H109       24.7014  -28.1863  -44.4384 H         1 UNK         0.0828 
    110 H110       22.7909  -31.6591  -42.5921 H         1 UNK         0.2931 
    111 H111       20.3303  -32.0619  -43.9892 H         1 UNK         0.0412 
    112 H112       22.6398  -35.1959  -45.1589 H         1 UNK         0.3472 
    113 H113       23.3475  -33.8149  -44.3563 H         1 UNK         0.3472 
    114 H114       19.7769  -33.6255  -42.1015 H         1 UNK         0.0970 
    115 H115       21.4052  -33.4966  -41.5135 H         1 UNK         0.0970 
    116 H116       18.1297  -32.7816  -40.8402 H         1 UNK         0.0612 
    117 H117       18.1624  -31.4056  -39.7762 H         1 UNK         0.0612 
@<TRIPOS>BOND
     1    1    2 1    
     2    1   62 1    
     3    1   63 1    
     4    1   64 1    
     5    2    3 2    
     6    2    4 am   BACKBONE|DICT|INTERRES
     7    4    5 1    
     8    4   65 1    
     9    5    6 1    
    10    5   25 1    
    11    5   66 1    
    12    6    7 1    
    13    6   67 1    
    14    6   68 1    
    15    7    8 1    
    16    8    9 1    
    17    8   69 1    
    18    8   70 1    
    19    9   10 ar   
    20    9   14 ar   
    21   10   11 ar   
    22   10   71 1    
    23   11   12 ar   
    24   11   61 1    
    25   12   13 ar   
    26   12   72 1    
    27   13   14 ar   
    28   13   15 1    
    29   14   73 1    
    30   15   16 1    
    31   15   74 1    
    32   15   75 1    
    33   16   17 1    
    34   17   18 1    
    35   17   76 1    
    36   17   77 1    
    37   18   19 1    
    38   18   27 1    
    39   18   78 1    
    40   19   20 am   BACKBONE|DICT|INTERRES
    41   19   79 1    
    42   20   21 2    
    43   20   22 1    
    44   22   23 1    
    45   22   24 1    
    46   22   80 1    
    47   23   81 1    
    48   23   82 1    
    49   23   83 1    
    50   24   25 am   BACKBONE|DICT|INTERRES
    51   24   84 1    
    52   25   26 2    
    53   27   28 2    
    54   27   29 am   BACKBONE|DICT|INTERRES
    55   29   30 1    
    56   29   85 1    
    57   30   31 1    
    58   30   32 1    
    59   30   86 1    
    60   31   87 1    
    61   31   88 1    
    62   31   89 1    
    63   32   33 2    
    64   32   34 am   BACKBONE|DICT|INTERRES
    65   34   35 1    
    66   34   90 1    
    67   35   36 1    
    68   35   37 1    
    69   35   91 1    
    70   36   92 1    
    71   36   93 1    
    72   36   94 1    
    73   37   38 2    
    74   37   39 am   BACKBONE|DICT|INTERRES
    75   39   40 1    
    76   39   95 1    
    77   40   41 1    
    78   40   42 1    
    79   40   96 1    
    80   41   97 1    
    81   41   98 1    
    82   41   99 1    
    83   42   43 2    
    84   42   44 am   BACKBONE|DICT|INTERRES
    85   44   45 1    
    86   44  100 1    
    87   45   46 1    
    88   45   47 1    
    89   45  101 1    
    90   46  102 1    
    91   46  103 1    
    92   46  104 1    
    93   47   48 2    
    94   47   49 am   BACKBONE|DICT|INTERRES
    95   49   50 1    
    96   49  105 1    
    97   50   51 1    
    98   50   52 1    
    99   50  106 1    
   100   51  107 1    
   101   51  108 1    
   102   51  109 1    
   103   52   53 2    
   104   52   54 am   BACKBONE|DICT|INTERRES
   105   54   55 1    
   106   54  110 1    
   107   55   56 1    
   108   55   59 1    
   109   55  111 1    
   110   56   57 am   BACKBONE|DICT|INTERRES
   111   56   58 2    
   112   57  112 1    
   113   57  113 1    
   114   59   60 1    
   115   59  114 1    
   116   59  115 1    
   117   60   61 1    
   118   61  116 1    
   119   61  117 1    
@<TRIPOS>SUBSTRUCTURE
     1 UNK         1 GROUP             0       ****    0 ROOT    
