@<TRIPOS>MOLECULE
3R8
117   119    1
SMALL
USER_CHARGES


@<TRIPOS>ATOM
      1 CA         17.7210  -32.6726  -47.0847 C.3       0 UNK        -0.2013 
      2 C          17.4723  -31.1766  -46.9670 C.2       0 UNK         0.4866 
      3 O          17.3086  -30.5029  -47.9846 O.2       0 UNK        -0.5176 
      4 N          17.4410  -30.6608  -45.7318 N.am      1 UNK        -0.4884 
      5 CA         17.2976  -29.2464  -45.3795 C.3       1 UNK         0.0853 
      6 C6         15.9147  -28.6570  -45.7899 C.3       10 UNK        -0.0849 
      7 S7         15.4665  -27.0575  -45.0193 S.3       10 UNK        -0.2776 
      8 C8         14.9005  -27.5283  -43.3529 C.3       10 UNK         0.0316 
      9 C9         16.0533  -27.5924  -42.3593 C.ar      10 UNK        -0.0863 
     10 C10        16.4622  -28.8176  -41.8275 C.ar      10 UNK        -0.1009 
     11 C11        17.5156  -28.8811  -40.9109 C.ar      10 UNK        -0.0712 
     12 C12        18.1489  -27.6981  -40.5094 C.ar      10 UNK        -0.0894 
     13 C13        17.7541  -26.4639  -41.0361 C.ar      10 UNK        -0.0745 
     14 C14        16.6992  -26.4198  -41.9545 C.ar      10 UNK        -0.0972 
     15 C15        18.4371  -25.1760  -40.5847 C.3       10 UNK         0.0209 
     16 S16        19.1277  -24.2151  -41.9742 S.3       10 UNK        -0.2568 
     17 C17        20.7979  -24.9274  -42.1841 C.3       10 UNK        -0.0983 
     18 CA         20.8149  -26.3008  -42.9072 C.3       3 UNK         0.0876 
     19 N          20.0158  -26.3310  -44.1354 N.am      3 UNK        -0.4424 
     20 C          20.3002  -25.7786  -45.3237 C.2       2 UNK         0.4918 
     21 O          21.2578  -25.0302  -45.5219 O.2       2 UNK        -0.4875 
     22 CA         19.3725  -26.1482  -46.5032 C.3       2 UNK         0.0481 
     23 CB         20.1828  -26.5563  -47.7507 C.3       2 UNK        -0.1831 
     24 N          18.3613  -27.1711  -46.1881 N.am      2 UNK        -0.4498 
     25 C          18.5498  -28.4419  -45.7997 C.2       1 UNK         0.5027 
     26 O          19.6665  -28.9527  -45.6685 O.2       1 UNK        -0.4969 
     27 C          22.2444  -26.8546  -43.1316 C.2       3 UNK         0.5005 
     28 O          23.1962  -26.3498  -42.5321 O.2       3 UNK        -0.5279 
     29 N          22.3764  -27.8660  -44.0111 N.am      4 UNK        -0.4463 
     30 CA         23.6502  -28.4398  -44.4597 C.3       4 UNK         0.0283 
     31 CB         23.3987  -29.5531  -45.4890 C.3       4 UNK        -0.1875 
     32 C          24.5102  -28.9538  -43.2945 C.2       4 UNK         0.4949 
     33 O          24.0409  -29.7739  -42.5007 O.2       4 UNK        -0.5039 
     34 N          25.7306  -28.4093  -43.1954 N.am      5 UNK        -0.4663 
     35 CA         26.7285  -28.6129  -42.1343 C.3       5 UNK         0.0242 
     36 CB         27.2050  -30.0812  -42.1100 C.3       5 UNK        -0.1982 
     37 C          26.2894  -28.1329  -40.7334 C.2       5 UNK         0.5017 
     38 O          27.0034  -28.4002  -39.7664 O.2       5 UNK        -0.5012 
     39 N          25.1325  -27.4548  -40.6377 N.am      6 UNK        -0.4439 
     40 CA         24.4538  -26.9952  -39.4192 C.3       6 UNK         0.0297 
     41 CB         25.2435  -25.8419  -38.7651 C.3       6 UNK        -0.2006 
     42 C          24.1199  -28.1252  -38.4207 C.2       6 UNK         0.4892 
     43 O          23.9821  -27.8522  -37.2266 O.2       6 UNK        -0.5089 
     44 N          24.0001  -29.3673  -38.9120 N.am      7 UNK        -0.4243 
     45 CA         23.8127  -30.5665  -38.0927 C.3       7 UNK         0.0196 
     46 CB         25.1014  -30.9044  -37.3140 C.3       7 UNK        -0.2007 
     47 C          23.3694  -31.7801  -38.9169 C.2       7 UNK         0.5020 
     48 O          22.5720  -32.5716  -38.4139 O.2       7 UNK        -0.5147 
     49 N          23.9010  -31.9366  -40.1399 N.am      8 UNK        -0.4734 
     50 CA         23.5692  -33.0562  -41.0264 C.3       8 UNK         0.0238 
     51 CB         24.6477  -33.2160  -42.1140 C.3       8 UNK        -0.1912 
     52 C          22.1665  -32.8871  -41.6265 C.2       8 UNK         0.5038 
     53 O          21.2933  -33.7083  -41.3462 O.2       8 UNK        -0.5046 
     54 N          22.0000  -31.8040  -42.4000 N.am      9 UNK        -0.4200 
     55 CA         20.7556  -31.2650  -42.9777 C.3       9 UNK         0.0839 
     56 C          19.7021  -32.2681  -43.5368 C.2       9 UNK         0.5513 
     57 N          20.1241  -33.3712  -44.1414 N.am      9 UNK        -0.7519 
     58 O          18.4981  -32.0295  -43.4748 O.2       9 UNK        -0.4960 
     59 C59        20.1834  -30.0978  -42.1335 C.3       10 UNK        -0.0876 
     60 S60        19.7616  -30.4930  -40.4015 S.3       10 UNK        -0.2414 
     61 C61        17.9559  -30.2395  -40.3706 C.3       10 UNK         0.0169 
     62 H62        17.6804  -33.1676  -46.1146 H         1 UNK         0.0903 
     63 H63        16.9696  -33.1303  -47.7277 H         1 UNK         0.0903 
     64 H64        18.7026  -32.8561  -47.5207 H         1 UNK         0.0903 
     65 H65        17.6562  -31.2677  -44.9423 H         1 UNK         0.3096 
     66 H66        17.3364  -29.2440  -44.2930 H         1 UNK         0.1121 
     67 H67        15.1276  -29.3722  -45.5460 H         1 UNK         0.0849 
     68 H68        15.8642  -28.5343  -46.8732 H         1 UNK         0.0849 
     69 H69        14.1813  -26.7845  -43.0066 H         1 UNK         0.0865 
     70 H70        14.3579  -28.4741  -43.3951 H         1 UNK         0.0865 
     71 H71        15.9641  -29.7276  -42.1344 H         1 UNK         0.1346 
     72 H72        18.9554  -27.7429  -39.7902 H         1 UNK         0.1412 
     73 H73        16.3813  -25.4679  -42.3585 H         1 UNK         0.1426 
     74 H74        19.2220  -25.3778  -39.8542 H         1 UNK         0.0716 
     75 H75        17.6977  -24.5584  -40.0733 H         1 UNK         0.0716 
     76 H76        21.2683  -25.0048  -41.2021 H         1 UNK         0.0695 
     77 H77        21.3909  -24.2036  -42.7461 H         1 UNK         0.0695 
     78 H78        20.3408  -27.0135  -42.2337 H         1 UNK         0.0983 
     79 H79        19.1752  -26.8854  -44.0854 H         1 UNK         0.3095 
     80 H80        18.8171  -25.2418  -46.7477 H         1 UNK         0.0454 
     81 H81        20.8182  -27.4212  -47.5576 H         1 UNK         0.0851 
     82 H82        20.8334  -25.7449  -48.0791 H         1 UNK         0.0851 
     83 H83        19.5279  -26.8016  -48.5866 H         1 UNK         0.0851 
     84 H84        17.4020  -26.8423  -46.1944 H         1 UNK         0.2976 
     85 H85        21.5441  -28.2095  -44.4739 H         1 UNK         0.3116 
     86 H86        24.1866  -27.6358  -44.9680 H         1 UNK         0.0646 
     87 H87        22.7316  -29.2226  -46.2856 H         1 UNK         0.0847 
     88 H88        24.3345  -29.8592  -45.9584 H         1 UNK         0.0847 
     89 H89        22.9679  -30.4445  -45.0364 H         1 UNK         0.0847 
     90 H90        25.9907  -27.7241  -43.8926 H         1 UNK         0.3040 
     91 H91        27.5855  -27.9929  -42.4024 H         1 UNK         0.1015 
     92 H92        26.4267  -30.7561  -41.7559 H         1 UNK         0.0786 
     93 H93        28.0626  -30.2039  -41.4472 H         1 UNK         0.0786 
     94 H94        27.5143  -30.4155  -43.1002 H         1 UNK         0.0786 
     95 H95        24.6242  -27.2582  -41.4966 H         1 UNK         0.3172 
     96 H96        23.4936  -26.5927  -39.7448 H         1 UNK         0.0595 
     97 H97        26.1954  -26.1844  -38.3580 H         1 UNK         0.0839 
     98 H98        24.6808  -25.3955  -37.9443 H         1 UNK         0.0839 
     99 H99        25.4506  -25.0471  -39.4816 H         1 UNK         0.0839 
    100 H100       24.0481  -29.4938  -39.9139 H         1 UNK         0.2998 
    101 H101       23.0151  -30.3631  -37.3744 H         1 UNK         0.0822 
    102 H102       24.9877  -31.8307  -36.7490 H         1 UNK         0.0787 
    103 H103       25.9527  -31.0308  -37.9842 H         1 UNK         0.0787 
    104 H104       25.3557  -30.1240  -36.5970 H         1 UNK         0.0787 
    105 H105       24.5540  -31.2562  -40.4982 H         1 UNK         0.3055 
    106 H106       23.5629  -33.9742  -40.4334 H         1 UNK         0.1106 
    107 H107       24.4154  -34.0575  -42.7680 H         1 UNK         0.0828 
    108 H108       24.7396  -32.3325  -42.7454 H         1 UNK         0.0828 
    109 H109       25.6252  -33.4127  -41.6735 H         1 UNK         0.0828 
    110 H110       22.8060  -31.1938  -42.5059 H         1 UNK         0.2931 
    111 H111       21.0919  -30.7819  -43.8932 H         1 UNK         0.0412 
    112 H112       19.4507  -34.0274  -44.5020 H         1 UNK         0.3472 
    113 H113       21.1079  -33.5827  -44.1872 H         1 UNK         0.3472 
    114 H114       20.9393  -29.3168  -42.0778 H         1 UNK         0.0970 
    115 H115       19.3380  -29.6429  -42.6494 H         1 UNK         0.0970 
    116 H116       17.4933  -31.0480  -40.9389 H         1 UNK         0.0612 
    117 H117       17.6043  -30.3414  -39.3434 H         1 UNK         0.0612 
@<TRIPOS>BOND
     1    1    2 1    
     2    1   62 1    
     3    1   63 1    
     4    1   64 1    
     5    2    3 2    
     6    2    4 am   BACKBONE|DICT|INTERRES
     7    4    5 1    
     8    4   65 1    
     9    5    6 1    
    10    5   25 1    
    11    5   66 1    
    12    6    7 1    
    13    6   67 1    
    14    6   68 1    
    15    7    8 1    
    16    8    9 1    
    17    8   69 1    
    18    8   70 1    
    19    9   10 ar   
    20    9   14 ar   
    21   10   11 ar   
    22   10   71 1    
    23   11   12 ar   
    24   11   61 1    
    25   12   13 ar   
    26   12   72 1    
    27   13   14 ar   
    28   13   15 1    
    29   14   73 1    
    30   15   16 1    
    31   15   74 1    
    32   15   75 1    
    33   16   17 1    
    34   17   18 1    
    35   17   76 1    
    36   17   77 1    
    37   18   19 1    
    38   18   27 1    
    39   18   78 1    
    40   19   20 am   BACKBONE|DICT|INTERRES
    41   19   79 1    
    42   20   21 2    
    43   20   22 1    
    44   22   23 1    
    45   22   24 1    
    46   22   80 1    
    47   23   81 1    
    48   23   82 1    
    49   23   83 1    
    50   24   25 am   BACKBONE|DICT|INTERRES
    51   24   84 1    
    52   25   26 2    
    53   27   28 2    
    54   27   29 am   BACKBONE|DICT|INTERRES
    55   29   30 1    
    56   29   85 1    
    57   30   31 1    
    58   30   32 1    
    59   30   86 1    
    60   31   87 1    
    61   31   88 1    
    62   31   89 1    
    63   32   33 2    
    64   32   34 am   BACKBONE|DICT|INTERRES
    65   34   35 1    
    66   34   90 1    
    67   35   36 1    
    68   35   37 1    
    69   35   91 1    
    70   36   92 1    
    71   36   93 1    
    72   36   94 1    
    73   37   38 2    
    74   37   39 am   BACKBONE|DICT|INTERRES
    75   39   40 1    
    76   39   95 1    
    77   40   41 1    
    78   40   42 1    
    79   40   96 1    
    80   41   97 1    
    81   41   98 1    
    82   41   99 1    
    83   42   43 2    
    84   42   44 am   BACKBONE|DICT|INTERRES
    85   44   45 1    
    86   44  100 1    
    87   45   46 1    
    88   45   47 1    
    89   45  101 1    
    90   46  102 1    
    91   46  103 1    
    92   46  104 1    
    93   47   48 2    
    94   47   49 am   BACKBONE|DICT|INTERRES
    95   49   50 1    
    96   49  105 1    
    97   50   51 1    
    98   50   52 1    
    99   50  106 1    
   100   51  107 1    
   101   51  108 1    
   102   51  109 1    
   103   52   53 2    
   104   52   54 am   BACKBONE|DICT|INTERRES
   105   54   55 1    
   106   54  110 1    
   107   55   56 1    
   108   55   59 1    
   109   55  111 1    
   110   56   57 am   BACKBONE|DICT|INTERRES
   111   56   58 2    
   112   57  112 1    
   113   57  113 1    
   114   59   60 1    
   115   59  114 1    
   116   59  115 1    
   117   60   61 1    
   118   61  116 1    
   119   61  117 1    
@<TRIPOS>SUBSTRUCTURE
     1 UNK         1 GROUP             0       ****    0 ROOT    
