@<TRIPOS>MOLECULE
3R8
117   119    1
SMALL
USER_CHARGES


@<TRIPOS>ATOM
      1 CA         21.7851  -21.5861  -45.6384 C.3       0 UNK        -0.2013 
      2 C          21.4950  -22.6567  -44.5974 C.2       0 UNK         0.4866 
      3 O          21.2447  -22.3318  -43.4368 O.2       0 UNK        -0.5176 
      4 N          21.5255  -23.9329  -45.0020 N.am      1 UNK        -0.4884 
      5 CA         21.2583  -25.0905  -44.1386 C.3       1 UNK         0.0853 
      6 C6         21.8872  -26.3873  -44.7099 C.3       10 UNK        -0.0849 
      7 S7         21.3378  -26.8226  -46.3993 S.3       10 UNK        -0.2776 
      8 C8         21.7790  -28.5900  -46.4940 C.3       10 UNK         0.0316 
      9 C9         20.7939  -29.4761  -45.7422 C.ar      10 UNK        -0.0863 
     10 C10        21.0632  -29.8741  -44.4306 C.ar      10 UNK        -0.1009 
     11 C11        20.1636  -30.6765  -43.7237 C.ar      10 UNK        -0.0712 
     12 C12        18.9879  -31.1014  -44.3545 C.ar      10 UNK        -0.0894 
     13 C13        18.6996  -30.7038  -45.6651 C.ar      10 UNK        -0.0745 
     14 C14        19.6112  -29.8989  -46.3562 C.ar      10 UNK        -0.0972 
     15 C15        17.3793  -31.0966  -46.3154 C.3       10 UNK         0.0209 
     16 S16        16.1882  -29.7118  -46.3295 S.3       10 UNK        -0.2568 
     17 C17        15.8245  -29.4993  -44.5545 C.3       10 UNK        -0.0983 
     18 CA         16.8061  -28.5427  -43.8135 C.3       3 UNK         0.0876 
     19 N          16.5713  -27.1181  -44.0350 N.am      3 UNK        -0.4424 
     20 C          17.1875  -26.3986  -44.9772 C.2       2 UNK         0.4918 
     21 O          17.6688  -26.8655  -46.0088 O.2       2 UNK        -0.4875 
     22 CA         17.4254  -24.9065  -44.6766 C.3       2 UNK         0.0481 
     23 CB         16.7248  -24.3758  -43.4036 C.3       2 UNK        -0.1831 
     24 N          18.8736  -24.6684  -44.6172 N.am      2 UNK        -0.4498 
     25 C          19.7596  -25.2819  -43.8107 C.2       1 UNK         0.5027 
     26 O          19.4388  -25.9996  -42.8576 O.2       1 UNK        -0.4969 
     27 C          16.8133  -28.7501  -42.2889 C.2       3 UNK         0.5005 
     28 O          15.9648  -29.4743  -41.7638 O.2       3 UNK        -0.5279 
     29 N          17.7264  -28.0596  -41.5898 N.am      4 UNK        -0.4463 
     30 CA         17.8135  -28.0911  -40.1264 C.3       4 UNK         0.0283 
     31 CB         16.8604  -27.0448  -39.5198 C.3       4 UNK        -0.1875 
     32 C          19.2392  -27.8920  -39.5971 C.2       4 UNK         0.4949 
     33 O          19.5913  -28.5180  -38.5968 O.2       4 UNK        -0.5039 
     34 N          20.0244  -27.0231  -40.2434 N.am      5 UNK        -0.4663 
     35 CA         21.3991  -26.7033  -39.8562 C.3       5 UNK         0.0242 
     36 CB         21.5819  -25.1765  -39.9500 C.3       5 UNK        -0.1982 
     37 C          22.4085  -27.4609  -40.7356 C.2       5 UNK         0.5017 
     38 O          22.0085  -28.1816  -41.6503 O.2       5 UNK        -0.5012 
     39 N          23.7005  -27.2587  -40.4398 N.am      6 UNK        -0.4439 
     40 CA         24.8861  -27.8695  -41.0572 C.3       6 UNK         0.0297 
     41 CB         24.8825  -27.7213  -42.5953 C.3       6 UNK        -0.2006 
     42 C          25.1165  -29.3286  -40.6217 C.2       6 UNK         0.4892 
     43 O          24.2252  -29.9820  -40.0741 O.2       6 UNK        -0.5089 
     44 N          26.3438  -29.8070  -40.8705 N.am      7 UNK        -0.4243 
     45 CA         26.8483  -31.1236  -40.4623 C.3       7 UNK         0.0196 
     46 CB         28.3633  -31.1793  -40.7188 C.3       7 UNK        -0.2007 
     47 C          26.1495  -32.3212  -41.1302 C.2       7 UNK         0.5020 
     48 O          26.2461  -33.4324  -40.6091 O.2       7 UNK        -0.5147 
     49 N          25.4443  -32.0848  -42.2459 N.am      8 UNK        -0.4734 
     50 CA         24.6829  -33.0839  -43.0065 C.3       8 UNK         0.0238 
     51 CB         24.0772  -32.4109  -44.2493 C.3       8 UNK        -0.1912 
     52 C          23.5824  -33.8016  -42.2006 C.2       8 UNK         0.5038 
     53 O          23.2421  -34.9359  -42.5397 O.2       8 UNK        -0.5046 
     54 N          23.0694  -33.1409  -41.1556 N.am      9 UNK        -0.4200 
     55 CA         22.0838  -33.6786  -40.2052 C.3       9 UNK         0.0839 
     56 C          22.6932  -33.9420  -38.7972 C.2       9 UNK         0.5513 
     57 N          24.0102  -33.9226  -38.6219 N.am      9 UNK        -0.7519 
     58 O          21.9608  -34.1900  -37.8428 O.2       9 UNK        -0.4960 
     59 C59        20.8097  -32.7934  -40.1420 C.3       10 UNK        -0.0876 
     60 S60        19.9714  -32.6834  -41.7601 S.3       10 UNK        -0.2414 
     61 C61        20.4590  -31.0032  -42.2630 C.3       10 UNK         0.0169 
     62 H62        21.9910  -22.0150  -46.6190 H         1 UNK         0.0903 
     63 H63        20.9321  -20.9148  -45.7341 H         1 UNK         0.0903 
     64 H64        22.6507  -20.9962  -45.3382 H         1 UNK         0.0903 
     65 H65        21.7369  -24.1541  -45.9660 H         1 UNK         0.3096 
     66 H66        21.7509  -24.9010  -43.1840 H         1 UNK         0.1121 
     67 H67        22.9732  -26.2877  -44.7278 H         1 UNK         0.0849 
     68 H68        21.6816  -27.2200  -44.0389 H         1 UNK         0.0849 
     69 H69        21.8041  -28.8876  -47.5433 H         1 UNK         0.0865 
     70 H70        22.7926  -28.7352  -46.1166 H         1 UNK         0.0865 
     71 H71        21.9685  -29.5362  -43.9456 H         1 UNK         0.1346 
     72 H72        18.2729  -31.7032  -43.8108 H         1 UNK         0.1412 
     73 H73        19.3833  -29.5749  -47.3627 H         1 UNK         0.1426 
     74 H74        16.9358  -31.9553  -45.8089 H         1 UNK         0.0716 
     75 H75        17.5641  -31.4118  -47.3433 H         1 UNK         0.0716 
     76 H76        15.8389  -30.4967  -44.1111 H         1 UNK         0.0695 
     77 H77        14.7990  -29.1420  -44.4488 H         1 UNK         0.0695 
     78 H78        17.8248  -28.7546  -44.1338 H         1 UNK         0.0983 
     79 H79        16.1925  -26.6271  -43.2378 H         1 UNK         0.3095 
     80 H80        17.0435  -24.3462  -45.5312 H         1 UNK         0.0454 
     81 H81        15.6428  -24.4961  -43.4705 H         1 UNK         0.0851 
     82 H82        16.9157  -23.3105  -43.2749 H         1 UNK         0.0851 
     83 H83        17.0621  -24.8754  -42.4951 H         1 UNK         0.0851 
     84 H84        19.2568  -24.1272  -45.3789 H         1 UNK         0.2976 
     85 H85        18.3991  -27.4790  -42.0846 H         1 UNK         0.3116 
     86 H86        17.5014  -29.0778  -39.7762 H         1 UNK         0.0646 
     87 H87        15.8226  -27.2528  -39.7803 H         1 UNK         0.0847 
     88 H88        17.0980  -26.0375  -39.8638 H         1 UNK         0.0847 
     89 H89        16.9241  -27.0420  -38.4308 H         1 UNK         0.0847 
     90 H90        19.7077  -26.5957  -41.1087 H         1 UNK         0.3040 
     91 H91        21.5806  -27.0054  -38.8222 H         1 UNK         0.1015 
     92 H92        22.5883  -24.8682  -39.6655 H         1 UNK         0.0786 
     93 H93        20.8928  -24.6610  -39.2806 H         1 UNK         0.0786 
     94 H94        21.3970  -24.8047  -40.9562 H         1 UNK         0.0786 
     95 H95        23.9028  -26.6670  -39.6461 H         1 UNK         0.3172 
     96 H96        25.7308  -27.2936  -40.6758 H         1 UNK         0.0595 
     97 H97        24.1428  -28.3667  -43.0697 H         1 UNK         0.0839 
     98 H98        25.8520  -27.9835  -43.0196 H         1 UNK         0.0839 
     99 H99        24.6722  -26.6941  -42.8926 H         1 UNK         0.0839 
    100 H100       27.0097  -29.2004  -41.3277 H         1 UNK         0.2998 
    101 H101       26.6806  -31.2200  -39.3874 H         1 UNK         0.0822 
    102 H102       28.8892  -30.3978  -40.1699 H         1 UNK         0.0787 
    103 H103       28.7804  -32.1342  -40.3950 H         1 UNK         0.0787 
    104 H104       28.5979  -31.0644  -41.7779 H         1 UNK         0.0787 
    105 H105       25.4230  -31.1374  -42.5935 H         1 UNK         0.3055 
    106 H106       25.3873  -33.8506  -43.3364 H         1 UNK         0.1106 
    107 H107       24.8494  -31.9859  -44.8906 H         1 UNK         0.0828 
    108 H108       23.5187  -33.1297  -44.8508 H         1 UNK         0.0828 
    109 H109       23.3869  -31.6125  -43.9767 H         1 UNK         0.0828 
    110 H110       23.4352  -32.2235  -40.9377 H         1 UNK         0.2931 
    111 H111       21.7618  -34.6647  -40.5442 H         1 UNK         0.0412 
    112 H112       24.6430  -33.7693  -39.3985 H         1 UNK         0.3472 
    113 H113       24.3829  -34.1037  -37.7032 H         1 UNK         0.3472 
    114 H114       20.0894  -33.2093  -39.4353 H         1 UNK         0.0970 
    115 H115       21.0506  -31.7945  -39.7724 H         1 UNK         0.0970 
    116 H116       19.9444  -30.2786  -41.6307 H         1 UNK         0.0612 
    117 H117       21.5257  -30.8825  -42.0675 H         1 UNK         0.0612 
@<TRIPOS>BOND
     1    1    2 1    
     2    1   62 1    
     3    1   63 1    
     4    1   64 1    
     5    2    3 2    
     6    2    4 am   BACKBONE|DICT|INTERRES
     7    4    5 1    
     8    4   65 1    
     9    5    6 1    
    10    5   25 1    
    11    5   66 1    
    12    6    7 1    
    13    6   67 1    
    14    6   68 1    
    15    7    8 1    
    16    8    9 1    
    17    8   69 1    
    18    8   70 1    
    19    9   10 ar   
    20    9   14 ar   
    21   10   11 ar   
    22   10   71 1    
    23   11   12 ar   
    24   11   61 1    
    25   12   13 ar   
    26   12   72 1    
    27   13   14 ar   
    28   13   15 1    
    29   14   73 1    
    30   15   16 1    
    31   15   74 1    
    32   15   75 1    
    33   16   17 1    
    34   17   18 1    
    35   17   76 1    
    36   17   77 1    
    37   18   19 1    
    38   18   27 1    
    39   18   78 1    
    40   19   20 am   BACKBONE|DICT|INTERRES
    41   19   79 1    
    42   20   21 2    
    43   20   22 1    
    44   22   23 1    
    45   22   24 1    
    46   22   80 1    
    47   23   81 1    
    48   23   82 1    
    49   23   83 1    
    50   24   25 am   BACKBONE|DICT|INTERRES
    51   24   84 1    
    52   25   26 2    
    53   27   28 2    
    54   27   29 am   BACKBONE|DICT|INTERRES
    55   29   30 1    
    56   29   85 1    
    57   30   31 1    
    58   30   32 1    
    59   30   86 1    
    60   31   87 1    
    61   31   88 1    
    62   31   89 1    
    63   32   33 2    
    64   32   34 am   BACKBONE|DICT|INTERRES
    65   34   35 1    
    66   34   90 1    
    67   35   36 1    
    68   35   37 1    
    69   35   91 1    
    70   36   92 1    
    71   36   93 1    
    72   36   94 1    
    73   37   38 2    
    74   37   39 am   BACKBONE|DICT|INTERRES
    75   39   40 1    
    76   39   95 1    
    77   40   41 1    
    78   40   42 1    
    79   40   96 1    
    80   41   97 1    
    81   41   98 1    
    82   41   99 1    
    83   42   43 2    
    84   42   44 am   BACKBONE|DICT|INTERRES
    85   44   45 1    
    86   44  100 1    
    87   45   46 1    
    88   45   47 1    
    89   45  101 1    
    90   46  102 1    
    91   46  103 1    
    92   46  104 1    
    93   47   48 2    
    94   47   49 am   BACKBONE|DICT|INTERRES
    95   49   50 1    
    96   49  105 1    
    97   50   51 1    
    98   50   52 1    
    99   50  106 1    
   100   51  107 1    
   101   51  108 1    
   102   51  109 1    
   103   52   53 2    
   104   52   54 am   BACKBONE|DICT|INTERRES
   105   54   55 1    
   106   54  110 1    
   107   55   56 1    
   108   55   59 1    
   109   55  111 1    
   110   56   57 am   BACKBONE|DICT|INTERRES
   111   56   58 2    
   112   57  112 1    
   113   57  113 1    
   114   59   60 1    
   115   59  114 1    
   116   59  115 1    
   117   60   61 1    
   118   61  116 1    
   119   61  117 1    
@<TRIPOS>SUBSTRUCTURE
     1 UNK         1 GROUP             0       ****    0 ROOT    
