@<TRIPOS>MOLECULE
3R8
117   119    1
SMALL
USER_CHARGES


@<TRIPOS>ATOM
      1 CA         17.7643  -21.5582  -42.7058 C.3       0 UNK        -0.2013 
      2 C          17.4160  -22.8581  -43.4152 C.2       0 UNK         0.4866 
      3 O          16.4958  -22.8811  -44.2327 O.2       0 UNK        -0.5176 
      4 N          18.1426  -23.9410  -43.1070 N.am      1 UNK        -0.4884 
      5 CA         17.9458  -25.2752  -43.6896 C.3       1 UNK         0.0853 
      6 C6         18.7065  -26.3668  -42.8882 C.3       10 UNK        -0.0849 
      7 S7         17.7522  -26.9567  -41.4534 S.3       10 UNK        -0.2776 
      8 C8         16.5965  -28.1369  -42.2308 C.3       10 UNK         0.0316 
      9 C9         17.2707  -29.4257  -42.6861 C.ar      10 UNK        -0.0863 
     10 C10        17.3482  -30.5224  -41.8216 C.ar      10 UNK        -0.1009 
     11 C11        17.8923  -31.7341  -42.2588 C.ar      10 UNK        -0.0712 
     12 C12        18.3947  -31.8273  -43.5602 C.ar      10 UNK        -0.0894 
     13 C13        18.3735  -30.7280  -44.4216 C.ar      10 UNK        -0.0745 
     14 C14        17.7716  -29.5409  -43.9876 C.ar      10 UNK        -0.0972 
     15 C15        18.9675  -30.8805  -45.8222 C.3       10 UNK         0.0209 
     16 S16        19.6281  -29.3463  -46.5593 S.3       10 UNK        -0.2568 
     17 C17        21.0925  -28.9897  -45.5267 C.3       10 UNK        -0.0983 
     18 CA         21.9291  -27.8157  -46.1127 C.3       3 UNK         0.0876 
     19 N          21.1677  -26.5659  -46.1378 N.am      3 UNK        -0.4424 
     20 C          20.6856  -25.9274  -47.2088 C.2       2 UNK         0.4918 
     21 O          20.7924  -26.3405  -48.3648 O.2       2 UNK        -0.4875 
     22 CA         19.9741  -24.5842  -46.9227 C.3       2 UNK         0.0481 
     23 CB         18.9958  -24.1728  -48.0434 C.3       2 UNK        -0.1831 
     24 N          19.3201  -24.5514  -45.6036 N.am      2 UNK        -0.4498 
     25 C          18.3276  -25.3535  -45.1816 C.2       1 UNK         0.5027 
     26 O          17.7409  -26.1630  -45.9000 O.2       1 UNK        -0.4969 
     27 C          23.2215  -27.5395  -45.3126 C.2       3 UNK         0.5005 
     28 O          23.4226  -26.4066  -44.8613 O.2       3 UNK        -0.5279 
     29 N          24.0886  -28.5550  -45.1631 N.am      4 UNK        -0.4463 
     30 CA         25.4118  -28.4588  -44.5206 C.3       4 UNK         0.0283 
     31 CB         26.0803  -29.8437  -44.5029 C.3       4 UNK        -0.1875 
     32 C          25.3926  -27.8525  -43.1039 C.2       4 UNK         0.4949 
     33 O          26.2243  -26.9985  -42.7961 O.2       4 UNK        -0.5039 
     34 N          24.4113  -28.2760  -42.3027 N.am      5 UNK        -0.4663 
     35 CA         24.0168  -27.7236  -41.0105 C.3       5 UNK         0.0242 
     36 CB         25.1076  -27.9291  -39.9390 C.3       5 UNK        -0.1982 
     37 C          22.7220  -28.4319  -40.6045 C.2       5 UNK         0.5017 
     38 O          22.4962  -29.5650  -41.0385 O.2       5 UNK        -0.5012 
     39 N          21.9209  -27.7890  -39.7463 N.am      6 UNK        -0.4439 
     40 CA         20.6598  -28.3344  -39.2266 C.3       6 UNK         0.0297 
     41 CB         19.9184  -27.2403  -38.4416 C.3       6 UNK        -0.2006 
     42 C          20.8359  -29.5933  -38.3552 C.2       6 UNK         0.4892 
     43 O          19.9206  -30.4127  -38.2897 O.2       6 UNK        -0.5089 
     44 N          22.0015  -29.7212  -37.7057 N.am      7 UNK        -0.4243 
     45 CA         22.3904  -30.8961  -36.9237 C.3       7 UNK         0.0196 
     46 CB         23.3355  -30.4538  -35.7942 C.3       7 UNK        -0.2007 
     47 C          23.0609  -31.9845  -37.7810 C.2       7 UNK         0.5020 
     48 O          23.0173  -33.1541  -37.3991 O.2       7 UNK        -0.5147 
     49 N          23.6926  -31.5924  -38.8971 N.am      8 UNK        -0.4734 
     50 CA         24.4086  -32.5006  -39.7979 C.3       8 UNK         0.0238 
     51 CB         25.5334  -31.7419  -40.5222 C.3       8 UNK        -0.1912 
     52 C          23.4723  -33.1607  -40.8176 C.2       8 UNK         0.5038 
     53 O          23.6406  -34.3461  -41.1048 O.2       8 UNK        -0.5046 
     54 N          22.5225  -32.3793  -41.3497 N.am      9 UNK        -0.4200 
     55 CA         21.5294  -32.7758  -42.3606 C.3       9 UNK         0.0839 
     56 C          22.1162  -33.1190  -43.7638 C.2       9 UNK         0.5513 
     57 N          23.3626  -32.7736  -44.0639 N.am      9 UNK        -0.7519 
     58 O          21.4205  -33.6717  -44.6116 O.2       9 UNK        -0.4960 
     59 C59        20.5342  -33.8503  -41.8323 C.3       10 UNK        -0.0876 
     60 S60        19.4848  -33.1963  -40.4899 S.3       10 UNK        -0.2414 
     61 C61        17.8932  -32.9527  -41.3429 C.3       10 UNK         0.0169 
     62 H62        18.0440  -20.7969  -43.4335 H         1 UNK         0.0903 
     63 H63        16.9030  -21.1943  -42.1461 H         1 UNK         0.0903 
     64 H64        18.5931  -21.6820  -42.0089 H         1 UNK         0.0903 
     65 H65        18.8663  -23.8675  -42.4057 H         1 UNK         0.3096 
     66 H66        16.8753  -25.4889  -43.6545 H         1 UNK         0.1121 
     67 H67        19.6644  -25.9856  -42.5303 H         1 UNK         0.0849 
     68 H68        18.9693  -27.2286  -43.5001 H         1 UNK         0.0849 
     69 H69        15.8109  -28.3727  -41.5112 H         1 UNK         0.0865 
     70 H70        16.0902  -27.6620  -43.0722 H         1 UNK         0.0865 
     71 H71        16.9566  -30.4422  -40.8165 H         1 UNK         0.1346 
     72 H72        18.8075  -32.7619  -43.9111 H         1 UNK         0.1412 
     73 H73        17.6928  -28.7016  -44.6647 H         1 UNK         0.1426 
     74 H74        18.1901  -31.2692  -46.4808 H         1 UNK         0.0716 
     75 H75        19.7652  -31.6252  -45.8141 H         1 UNK         0.0716 
     76 H76        21.6863  -29.9031  -45.4648 H         1 UNK         0.0695 
     77 H77        20.7619  -28.7649  -44.5109 H         1 UNK         0.0695 
     78 H78        22.2410  -28.0749  -47.1269 H         1 UNK         0.0983 
     79 H79        21.1345  -26.0859  -45.2506 H         1 UNK         0.3095 
     80 H80        20.7617  -23.8304  -46.8856 H         1 UNK         0.0454 
     81 H81        19.5202  -24.0426  -48.9907 H         1 UNK         0.0851 
     82 H82        18.5038  -23.2278  -47.8142 H         1 UNK         0.0851 
     83 H83        18.2222  -24.9241  -48.2042 H         1 UNK         0.0851 
     84 H84        19.7137  -23.9063  -44.9324 H         1 UNK         0.2976 
     85 H85        23.8565  -29.4497  -45.5706 H         1 UNK         0.3116 
     86 H86        26.0196  -27.8000  -45.1442 H         1 UNK         0.0646 
     87 H87        27.0714  -29.7919  -44.0498 H         1 UNK         0.0847 
     88 H88        25.5000  -30.5672  -43.9302 H         1 UNK         0.0847 
     89 H89        26.2094  -30.2376  -45.5111 H         1 UNK         0.0847 
     90 H90        23.7740  -28.9859  -42.6427 H         1 UNK         0.3040 
     91 H91        23.8154  -26.6579  -41.1383 H         1 UNK         0.1015 
     92 H92        24.7853  -27.5422  -38.9716 H         1 UNK         0.0786 
     93 H93        26.0281  -27.4049  -40.1942 H         1 UNK         0.0786 
     94 H94        25.3538  -28.9805  -39.8021 H         1 UNK         0.0786 
     95 H95        22.1800  -26.8650  -39.4299 H         1 UNK         0.3172 
     96 H96        20.0438  -28.6174  -40.0835 H         1 UNK         0.0595 
     97 H97        19.7212  -26.3677  -39.0646 H         1 UNK         0.0839 
     98 H98        20.4838  -26.9119  -37.5687 H         1 UNK         0.0839 
     99 H99        18.9528  -27.6045  -38.0875 H         1 UNK         0.0839 
    100 H100       22.6772  -28.9757  -37.7830 H         1 UNK         0.2998 
    101 H101       21.5011  -31.3369  -36.4674 H         1 UNK         0.0822 
    102 H102       23.6254  -31.3031  -35.1737 H         1 UNK         0.0787 
    103 H103       24.2515  -30.0068  -36.1829 H         1 UNK         0.0787 
    104 H104       22.8569  -29.7251  -35.1394 H         1 UNK         0.0787 
    105 H105       23.6288  -30.6250  -39.1753 H         1 UNK         0.3055 
    106 H106       24.8684  -33.2973  -39.2079 H         1 UNK         0.1106 
    107 H107       26.2376  -31.3055  -39.8139 H         1 UNK         0.0828 
    108 H108       26.1025  -32.4141  -41.1659 H         1 UNK         0.0828 
    109 H109       25.1461  -30.9416  -41.1533 H         1 UNK         0.0828 
    110 H110       22.4853  -31.3995  -41.0793 H         1 UNK         0.2931 
    111 H111       20.9599  -31.8642  -42.5414 H         1 UNK         0.0412 
    112 H112       23.7288  -32.9992  -44.9752 H         1 UNK         0.3472 
    113 H113       23.9490  -32.3379  -43.3728 H         1 UNK         0.3472 
    114 H114       19.8924  -34.2347  -42.6246 H         1 UNK         0.0970 
    115 H115       21.0696  -34.7239  -41.4595 H         1 UNK         0.0970 
    116 H116       17.1145  -32.8454  -40.5863 H         1 UNK         0.0612 
    117 H117       17.6365  -33.8493  -41.9091 H         1 UNK         0.0612 
@<TRIPOS>BOND
     1    1    2 1    
     2    1   62 1    
     3    1   63 1    
     4    1   64 1    
     5    2    3 2    
     6    2    4 am   BACKBONE|DICT|INTERRES
     7    4    5 1    
     8    4   65 1    
     9    5    6 1    
    10    5   25 1    
    11    5   66 1    
    12    6    7 1    
    13    6   67 1    
    14    6   68 1    
    15    7    8 1    
    16    8    9 1    
    17    8   69 1    
    18    8   70 1    
    19    9   10 ar   
    20    9   14 ar   
    21   10   11 ar   
    22   10   71 1    
    23   11   12 ar   
    24   11   61 1    
    25   12   13 ar   
    26   12   72 1    
    27   13   14 ar   
    28   13   15 1    
    29   14   73 1    
    30   15   16 1    
    31   15   74 1    
    32   15   75 1    
    33   16   17 1    
    34   17   18 1    
    35   17   76 1    
    36   17   77 1    
    37   18   19 1    
    38   18   27 1    
    39   18   78 1    
    40   19   20 am   BACKBONE|DICT|INTERRES
    41   19   79 1    
    42   20   21 2    
    43   20   22 1    
    44   22   23 1    
    45   22   24 1    
    46   22   80 1    
    47   23   81 1    
    48   23   82 1    
    49   23   83 1    
    50   24   25 am   BACKBONE|DICT|INTERRES
    51   24   84 1    
    52   25   26 2    
    53   27   28 2    
    54   27   29 am   BACKBONE|DICT|INTERRES
    55   29   30 1    
    56   29   85 1    
    57   30   31 1    
    58   30   32 1    
    59   30   86 1    
    60   31   87 1    
    61   31   88 1    
    62   31   89 1    
    63   32   33 2    
    64   32   34 am   BACKBONE|DICT|INTERRES
    65   34   35 1    
    66   34   90 1    
    67   35   36 1    
    68   35   37 1    
    69   35   91 1    
    70   36   92 1    
    71   36   93 1    
    72   36   94 1    
    73   37   38 2    
    74   37   39 am   BACKBONE|DICT|INTERRES
    75   39   40 1    
    76   39   95 1    
    77   40   41 1    
    78   40   42 1    
    79   40   96 1    
    80   41   97 1    
    81   41   98 1    
    82   41   99 1    
    83   42   43 2    
    84   42   44 am   BACKBONE|DICT|INTERRES
    85   44   45 1    
    86   44  100 1    
    87   45   46 1    
    88   45   47 1    
    89   45  101 1    
    90   46  102 1    
    91   46  103 1    
    92   46  104 1    
    93   47   48 2    
    94   47   49 am   BACKBONE|DICT|INTERRES
    95   49   50 1    
    96   49  105 1    
    97   50   51 1    
    98   50   52 1    
    99   50  106 1    
   100   51  107 1    
   101   51  108 1    
   102   51  109 1    
   103   52   53 2    
   104   52   54 am   BACKBONE|DICT|INTERRES
   105   54   55 1    
   106   54  110 1    
   107   55   56 1    
   108   55   59 1    
   109   55  111 1    
   110   56   57 am   BACKBONE|DICT|INTERRES
   111   56   58 2    
   112   57  112 1    
   113   57  113 1    
   114   59   60 1    
   115   59  114 1    
   116   59  115 1    
   117   60   61 1    
   118   61  116 1    
   119   61  117 1    
@<TRIPOS>SUBSTRUCTURE
     1 UNK         1 GROUP             0       ****    0 ROOT    
