@<TRIPOS>MOLECULE
3R8
117   119    1
SMALL
USER_CHARGES


@<TRIPOS>ATOM
      1 CA         13.4962  -25.0026  -48.7903 C.3       0 UNK        -0.2013 
      2 C          14.7151  -25.8033  -48.3565 C.2       0 UNK         0.4866 
      3 O          15.6990  -25.8698  -49.0945 O.2       0 UNK        -0.5176 
      4 N          14.6546  -26.4192  -47.1700 N.am      1 UNK        -0.4884 
      5 CA         15.7571  -27.1655  -46.5556 C.3       1 UNK         0.0853 
      6 C6         15.2415  -28.1630  -45.4832 C.3       10 UNK        -0.0849 
      7 S7         14.2876  -27.3872  -44.1288 S.3       10 UNK        -0.2776 
      8 C8         14.0379  -28.7958  -43.0013 C.3       10 UNK         0.0316 
      9 C9         15.3342  -29.2403  -42.3372 C.ar      10 UNK        -0.0863 
     10 C10        15.9603  -30.4254  -42.7338 C.ar      10 UNK        -0.1009 
     11 C11        17.1470  -30.8411  -42.1224 C.ar      10 UNK        -0.0712 
     12 C12        17.7027  -30.0683  -41.0979 C.ar      10 UNK        -0.0894 
     13 C13        17.0820  -28.8852  -40.6876 C.ar      10 UNK        -0.0745 
     14 C14        15.8985  -28.4765  -41.3110 C.ar      10 UNK        -0.0972 
     15 C15        17.6697  -28.0560  -39.5557 C.3       10 UNK         0.0209 
     16 S16        18.5929  -26.6206  -40.1849 S.3       10 UNK        -0.2568 
     17 C17        20.2607  -27.3091  -40.4721 C.3       10 UNK        -0.0983 
     18 CA         20.5093  -27.8141  -41.9177 C.3       3 UNK         0.0876 
     19 N          20.0354  -26.8709  -42.9358 N.am      3 UNK        -0.4424 
     20 C          19.7882  -27.2079  -44.2054 C.2       2 UNK         0.4918 
     21 O          20.0178  -28.3192  -44.6852 O.2       2 UNK        -0.4875 
     22 CA         19.1547  -26.1322  -45.0895 C.3       2 UNK         0.0481 
     23 CB         20.1683  -25.5691  -46.0991 C.3       2 UNK        -0.1831 
     24 N          18.0451  -26.7652  -45.7926 N.am      2 UNK        -0.4498 
     25 C          16.8406  -26.2202  -45.9891 C.2       1 UNK         0.5027 
     26 O          16.5658  -25.0482  -45.7130 O.2       1 UNK        -0.4969 
     27 C          21.9983  -28.1716  -42.0936 C.2       3 UNK         0.5005 
     28 O          22.3854  -29.2981  -41.7814 O.2       3 UNK        -0.5279 
     29 N          22.7920  -27.1979  -42.5697 N.am      4 UNK        -0.4463 
     30 CA         24.2604  -27.1587  -42.6259 C.3       4 UNK         0.0283 
     31 CB         24.8440  -28.3750  -43.3752 C.3       4 UNK        -0.1875 
     32 C          24.8946  -26.9957  -41.2312 C.2       4 UNK         0.4949 
     33 O          24.2822  -27.3322  -40.2163 O.2       4 UNK        -0.5039 
     34 N          26.1339  -26.4866  -41.2001 N.am      5 UNK        -0.4663 
     35 CA         26.8846  -26.1909  -39.9697 C.3       5 UNK         0.0242 
     36 CB         28.1898  -25.4647  -40.3334 C.3       5 UNK        -0.1982 
     37 C          27.1811  -27.4252  -39.0974 C.2       5 UNK         0.5017 
     38 O          27.2689  -27.2986  -37.8760 O.2       5 UNK        -0.5012 
     39 N          27.3063  -28.5922  -39.7413 N.am      6 UNK        -0.4439 
     40 CA         27.4985  -29.8942  -39.1004 C.3       6 UNK         0.0297 
     41 CB         28.3121  -30.7880  -40.0539 C.3       6 UNK        -0.2006 
     42 C          26.1772  -30.5872  -38.7085 C.2       6 UNK         0.4892 
     43 O          26.2375  -31.6857  -38.1551 O.2       6 UNK        -0.5089 
     44 N          25.0216  -29.9784  -39.0318 N.am      7 UNK        -0.4243 
     45 CA         23.6637  -30.5370  -38.9224 C.3       7 UNK         0.0196 
     46 CB         23.2725  -30.7791  -37.4490 C.3       7 UNK        -0.2007 
     47 C          23.4547  -31.7806  -39.8159 C.2       7 UNK         0.5020 
     48 O          22.6698  -32.6669  -39.4750 O.2       7 UNK        -0.5147 
     49 N          24.1815  -31.8296  -40.9402 N.am      8 UNK        -0.4734 
     50 CA         24.2321  -32.9570  -41.8732 C.3       8 UNK         0.0238 
     51 CB         25.6148  -32.9648  -42.5487 C.3       8 UNK        -0.1912 
     52 C          23.1151  -32.9462  -42.9320 C.2       8 UNK         0.5038 
     53 O          22.9951  -33.9254  -43.6695 O.2       8 UNK        -0.5046 
     54 N          22.3371  -31.8580  -43.0121 N.am      9 UNK        -0.4200 
     55 CA         21.2945  -31.6152  -44.0229 C.3       9 UNK         0.0839 
     56 C          21.8466  -31.2904  -45.4464 C.2       9 UNK         0.5513 
     57 N          23.1158  -30.9257  -45.5910 N.am      9 UNK        -0.7519 
     58 O          21.1235  -31.3619  -46.4368 O.2       9 UNK        -0.4960 
     59 C59        20.1801  -32.7059  -44.0192 C.3       10 UNK        -0.0876 
     60 S60        18.5158  -31.9882  -44.2325 S.3       10 UNK        -0.2414 
     61 C61        17.8163  -32.1350  -42.5571 C.3       10 UNK         0.0169 
     62 H62        13.1065  -25.3915  -49.7307 H         1 UNK         0.0903 
     63 H63        12.6973  -25.0427  -48.0499 H         1 UNK         0.0903 
     64 H64        13.7678  -23.9579  -48.9395 H         1 UNK         0.0903 
     65 H65        13.8408  -26.3013  -46.5824 H         1 UNK         0.3096 
     66 H66        16.2331  -27.7525  -47.3451 H         1 UNK         0.1121 
     67 H67        16.0760  -28.7226  -45.0568 H         1 UNK         0.0849 
     68 H68        14.6036  -28.9091  -45.9599 H         1 UNK         0.0849 
     69 H69        13.3217  -28.5068  -42.2306 H         1 UNK         0.0865 
     70 H70        13.5767  -29.6201  -43.5478 H         1 UNK         0.0865 
     71 H71        15.5302  -31.0257  -43.5242 H         1 UNK         0.1346 
     72 H72        18.6161  -30.3894  -40.6159 H         1 UNK         0.1412 
     73 H73        15.4163  -27.5598  -40.9985 H         1 UNK         0.1426 
     74 H74        16.8602  -27.6951  -38.9195 H         1 UNK         0.0716 
     75 H75        18.3072  -28.6646  -38.9125 H         1 UNK         0.0716 
     76 H76        20.4499  -28.1100  -39.7547 H         1 UNK         0.0695 
     77 H77        20.9697  -26.5171  -40.2213 H         1 UNK         0.0695 
     78 H78        19.9487  -28.7414  -42.0487 H         1 UNK         0.0983 
     79 H79        19.7815  -25.9503  -42.6068 H         1 UNK         0.3095 
     80 H80        18.7900  -25.3211  -44.4553 H         1 UNK         0.0454 
     81 H81        19.7115  -24.8122  -46.7367 H         1 UNK         0.0851 
     82 H82        20.5726  -26.3503  -46.7442 H         1 UNK         0.0851 
     83 H83        21.0092  -25.0992  -45.5877 H         1 UNK         0.0851 
     84 H84        18.1933  -27.7454  -45.9989 H         1 UNK         0.2976 
     85 H85        22.3392  -26.3212  -42.7854 H         1 UNK         0.3116 
     86 H86        24.5066  -26.2635  -43.1992 H         1 UNK         0.0646 
     87 H87        24.3554  -28.5139  -44.3394 H         1 UNK         0.0847 
     88 H88        25.9080  -28.2399  -43.5713 H         1 UNK         0.0847 
     89 H89        24.7389  -29.2993  -42.8080 H         1 UNK         0.0847 
     90 H90        26.5780  -26.2324  -42.0717 H         1 UNK         0.3040 
     91 H91        26.2742  -25.5148  -39.3664 H         1 UNK         0.1015 
     92 H92        28.8334  -26.0800  -40.9635 H         1 UNK         0.0786 
     93 H93        28.7582  -25.2107  -39.4374 H         1 UNK         0.0786 
     94 H94        27.9920  -24.5323  -40.8626 H         1 UNK         0.0786 
     95 H95        27.2288  -28.5833  -40.7480 H         1 UNK         0.3172 
     96 H96        28.0783  -29.7623  -38.1844 H         1 UNK         0.0595 
     97 H97        27.7812  -30.9737  -40.9883 H         1 UNK         0.0839 
     98 H98        28.5217  -31.7582  -39.6013 H         1 UNK         0.0839 
     99 H99        29.2736  -30.3358  -40.2979 H         1 UNK         0.0839 
    100 H100       25.0613  -29.0539  -39.4496 H         1 UNK         0.2998 
    101 H101       22.9926  -29.7692  -39.3081 H         1 UNK         0.0822 
    102 H102       22.2170  -31.0404  -37.3646 H         1 UNK         0.0787 
    103 H103       23.8436  -31.5945  -37.0044 H         1 UNK         0.0787 
    104 H104       23.4334  -29.8864  -36.8447 H         1 UNK         0.0787 
    105 H105       24.7720  -31.0389  -41.1477 H         1 UNK         0.3055 
    106 H106       24.1238  -33.8861  -41.3086 H         1 UNK         0.1106 
    107 H107       26.4140  -33.0548  -41.8127 H         1 UNK         0.0828 
    108 H108       25.7134  -33.8101  -43.2315 H         1 UNK         0.0828 
    109 H109       25.7896  -32.0573  -43.1277 H         1 UNK         0.0828 
    110 H110       22.5098  -31.0775  -42.3823 H         1 UNK         0.2931 
    111 H111       20.8424  -30.6818  -43.6887 H         1 UNK         0.0412 
    112 H112       23.4661  -30.7162  -46.5125 H         1 UNK         0.3472 
    113 H113       23.7218  -30.8631  -44.7906 H         1 UNK         0.3472 
    114 H114       20.2014  -33.2795  -43.0923 H         1 UNK         0.0970 
    115 H115       20.3504  -33.4445  -44.8048 H         1 UNK         0.0970 
    116 H116       17.0863  -32.9456  -42.5473 H         1 UNK         0.0612 
    117 H117       18.5888  -32.4110  -41.8384 H         1 UNK         0.0612 
@<TRIPOS>BOND
     1    1    2 1    
     2    1   62 1    
     3    1   63 1    
     4    1   64 1    
     5    2    3 2    
     6    2    4 am   BACKBONE|DICT|INTERRES
     7    4    5 1    
     8    4   65 1    
     9    5    6 1    
    10    5   25 1    
    11    5   66 1    
    12    6    7 1    
    13    6   67 1    
    14    6   68 1    
    15    7    8 1    
    16    8    9 1    
    17    8   69 1    
    18    8   70 1    
    19    9   10 ar   
    20    9   14 ar   
    21   10   11 ar   
    22   10   71 1    
    23   11   12 ar   
    24   11   61 1    
    25   12   13 ar   
    26   12   72 1    
    27   13   14 ar   
    28   13   15 1    
    29   14   73 1    
    30   15   16 1    
    31   15   74 1    
    32   15   75 1    
    33   16   17 1    
    34   17   18 1    
    35   17   76 1    
    36   17   77 1    
    37   18   19 1    
    38   18   27 1    
    39   18   78 1    
    40   19   20 am   BACKBONE|DICT|INTERRES
    41   19   79 1    
    42   20   21 2    
    43   20   22 1    
    44   22   23 1    
    45   22   24 1    
    46   22   80 1    
    47   23   81 1    
    48   23   82 1    
    49   23   83 1    
    50   24   25 am   BACKBONE|DICT|INTERRES
    51   24   84 1    
    52   25   26 2    
    53   27   28 2    
    54   27   29 am   BACKBONE|DICT|INTERRES
    55   29   30 1    
    56   29   85 1    
    57   30   31 1    
    58   30   32 1    
    59   30   86 1    
    60   31   87 1    
    61   31   88 1    
    62   31   89 1    
    63   32   33 2    
    64   32   34 am   BACKBONE|DICT|INTERRES
    65   34   35 1    
    66   34   90 1    
    67   35   36 1    
    68   35   37 1    
    69   35   91 1    
    70   36   92 1    
    71   36   93 1    
    72   36   94 1    
    73   37   38 2    
    74   37   39 am   BACKBONE|DICT|INTERRES
    75   39   40 1    
    76   39   95 1    
    77   40   41 1    
    78   40   42 1    
    79   40   96 1    
    80   41   97 1    
    81   41   98 1    
    82   41   99 1    
    83   42   43 2    
    84   42   44 am   BACKBONE|DICT|INTERRES
    85   44   45 1    
    86   44  100 1    
    87   45   46 1    
    88   45   47 1    
    89   45  101 1    
    90   46  102 1    
    91   46  103 1    
    92   46  104 1    
    93   47   48 2    
    94   47   49 am   BACKBONE|DICT|INTERRES
    95   49   50 1    
    96   49  105 1    
    97   50   51 1    
    98   50   52 1    
    99   50  106 1    
   100   51  107 1    
   101   51  108 1    
   102   51  109 1    
   103   52   53 2    
   104   52   54 am   BACKBONE|DICT|INTERRES
   105   54   55 1    
   106   54  110 1    
   107   55   56 1    
   108   55   59 1    
   109   55  111 1    
   110   56   57 am   BACKBONE|DICT|INTERRES
   111   56   58 2    
   112   57  112 1    
   113   57  113 1    
   114   59   60 1    
   115   59  114 1    
   116   59  115 1    
   117   60   61 1    
   118   61  116 1    
   119   61  117 1    
@<TRIPOS>SUBSTRUCTURE
     1 UNK         1 GROUP             0       ****    0 ROOT    
