@<TRIPOS>MOLECULE
3R8
117   119    1
SMALL
USER_CHARGES


@<TRIPOS>ATOM
      1 CA         19.2361  -22.4344  -40.5865 C.3       0 UNK        -0.2013 
      2 C          18.4094  -22.9633  -41.7490 C.2       0 UNK         0.4866 
      3 O          17.9441  -22.1798  -42.5776 O.2       0 UNK        -0.5176 
      4 N          18.2147  -24.2862  -41.8098 N.am      1 UNK        -0.4884 
      5 CA         17.5207  -24.9951  -42.8901 C.3       1 UNK         0.0853 
      6 C6         17.0847  -26.4298  -42.4700 C.3       10 UNK        -0.0849 
      7 S7         18.1983  -27.3312  -41.3243 S.3       10 UNK        -0.2776 
      8 C8         19.5523  -27.9273  -42.3816 C.3       10 UNK         0.0316 
      9 C9         19.1380  -29.0607  -43.3083 C.ar      10 UNK        -0.0863 
     10 C10        19.4214  -30.3885  -42.9781 C.ar      10 UNK        -0.1009 
     11 C11        19.1238  -31.4269  -43.8706 C.ar      10 UNK        -0.0712 
     12 C12        18.5273  -31.1233  -45.0992 C.ar      10 UNK        -0.0894 
     13 C13        18.2457  -29.7983  -45.4416 C.ar      10 UNK        -0.0745 
     14 C14        18.5412  -28.7778  -44.5361 C.ar      10 UNK        -0.0972 
     15 C15        17.6983  -29.4494  -46.8178 C.3       10 UNK         0.0209 
     16 S16        18.9821  -29.4241  -48.1250 S.3       10 UNK        -0.2568 
     17 C17        20.5134  -28.8445  -47.3005 C.3       10 UNK        -0.0983 
     18 CA         20.7447  -27.3107  -47.3357 C.3       3 UNK         0.0876 
     19 N          19.5620  -26.5440  -46.9202 N.am      3 UNK        -0.4424 
     20 C          19.3616  -25.2503  -47.2001 C.2       2 UNK         0.4918 
     21 O          20.1592  -24.5576  -47.8322 O.2       2 UNK        -0.4875 
     22 CA         18.0526  -24.6134  -46.6970 C.3       2 UNK         0.0481 
     23 CB         16.9196  -24.8834  -47.7007 C.3       2 UNK        -0.1831 
     24 N          17.5976  -24.9783  -45.3451 N.am      2 UNK        -0.4498 
     25 C          18.3218  -24.9505  -44.2143 C.2       1 UNK         0.5027 
     26 O          19.5530  -24.8851  -44.1891 O.2       1 UNK        -0.4969 
     27 C          22.0099  -26.9610  -46.5160 C.2       3 UNK         0.5005 
     28 O          23.1052  -27.3513  -46.9215 O.2       3 UNK        -0.5279 
     29 N          21.8430  -26.2749  -45.3719 N.am      4 UNK        -0.4463 
     30 CA         22.8694  -25.8566  -44.4069 C.3       4 UNK         0.0283 
     31 CB         23.9056  -24.9177  -45.0592 C.3       4 UNK        -0.1875 
     32 C          23.5384  -27.0045  -43.6234 C.2       4 UNK         0.4949 
     33 O          24.4829  -26.7471  -42.8756 O.2       4 UNK        -0.5039 
     34 N          23.0242  -28.2379  -43.7363 N.am      5 UNK        -0.4663 
     35 CA         23.4965  -29.4305  -43.0191 C.3       5 UNK         0.0242 
     36 CB         23.1123  -30.6833  -43.8274 C.3       5 UNK        -0.1982 
     37 C          22.9789  -29.4725  -41.5656 C.2       5 UNK         0.5017 
     38 O          22.3864  -30.4652  -41.1390 O.2       5 UNK        -0.5012 
     39 N          23.1899  -28.3674  -40.8383 N.am      6 UNK        -0.4439 
     40 CA         22.6614  -28.0908  -39.4988 C.3       6 UNK         0.0297 
     41 CB         22.9508  -26.6243  -39.1412 C.3       6 UNK        -0.2006 
     42 C          23.1714  -29.0298  -38.3917 C.2       6 UNK         0.4892 
     43 O          22.5294  -29.1205  -37.3442 O.2       6 UNK        -0.5089 
     44 N          24.2839  -29.7356  -38.6369 N.am      7 UNK        -0.4243 
     45 CA         24.8594  -30.7629  -37.7638 C.3       7 UNK         0.0196 
     46 CB         26.3409  -30.9568  -38.1381 C.3       7 UNK        -0.2007 
     47 C          24.0572  -32.0813  -37.8128 C.2       7 UNK         0.5020 
     48 O          24.6162  -33.1342  -38.1249 O.2       7 UNK        -0.5147 
     49 N          22.7497  -31.9892  -37.5294 N.am      8 UNK        -0.4734 
     50 CA         21.7538  -33.0684  -37.4687 C.3       8 UNK         0.0238 
     51 CB         21.9815  -33.9189  -36.2008 C.3       8 UNK        -0.1912 
     52 C          21.6713  -33.9277  -38.7482 C.2       8 UNK         0.5038 
     53 O          21.4231  -35.1316  -38.6537 O.2       8 UNK        -0.5046 
     54 N          21.8995  -33.3034  -39.9132 N.am      9 UNK        -0.4200 
     55 CA         21.9950  -33.9512  -41.2327 C.3       9 UNK         0.0839 
     56 C          23.2219  -34.9002  -41.4015 C.2       9 UNK         0.5513 
     57 N          24.2330  -34.8481  -40.5413 N.am      9 UNK        -0.7519 
     58 O          23.2801  -35.6769  -42.3515 O.2       9 UNK        -0.4960 
     59 C59        20.6561  -34.5971  -41.7015 C.3       10 UNK        -0.0876 
     60 S60        19.3152  -33.3676  -41.8409 S.3       10 UNK        -0.2414 
     61 C61        19.5429  -32.8634  -43.5783 C.3       10 UNK         0.0169 
     62 H62        19.5729  -23.2349  -39.9280 H         1 UNK         0.0903 
     63 H63        20.1156  -21.9108  -40.9604 H         1 UNK         0.0903 
     64 H64        18.6474  -21.7336  -39.9951 H         1 UNK         0.0903 
     65 H65        18.6281  -24.8885  -41.1112 H         1 UNK         0.3096 
     66 H66        16.6043  -24.4311  -43.0816 H         1 UNK         0.1121 
     67 H67        16.1429  -26.3369  -41.9268 H         1 UNK         0.0849 
     68 H68        16.8264  -27.0523  -43.3255 H         1 UNK         0.0849 
     69 H69        19.9775  -27.1035  -42.9522 H         1 UNK         0.0865 
     70 H70        20.3530  -28.2682  -41.7267 H         1 UNK         0.0865 
     71 H71        19.9135  -30.6101  -42.0412 H         1 UNK         0.1346 
     72 H72        18.3265  -31.9111  -45.8126 H         1 UNK         0.1412 
     73 H73        18.3439  -27.7542  -44.8043 H         1 UNK         0.1426 
     74 H74        17.1989  -28.4799  -46.7932 H         1 UNK         0.0716 
     75 H75        16.9290  -30.1707  -47.0975 H         1 UNK         0.0716 
     76 H76        21.3370  -29.3338  -47.8242 H         1 UNK         0.0695 
     77 H77        20.5780  -29.2339  -46.2857 H         1 UNK         0.0695 
     78 H78        20.9611  -27.0375  -48.3712 H         1 UNK         0.0983 
     79 H79        18.8419  -27.0556  -46.4386 H         1 UNK         0.3095 
     80 H80        18.2220  -23.5350  -46.6759 H         1 UNK         0.0454 
     81 H81        17.2158  -24.6014  -48.7123 H         1 UNK         0.0851 
     82 H82        16.0262  -24.3073  -47.4590 H         1 UNK         0.0851 
     83 H83        16.6432  -25.9381  -47.7260 H         1 UNK         0.0851 
     84 H84        16.5961  -25.0728  -45.2500 H         1 UNK         0.2976 
     85 H85        20.9051  -25.9598  -45.1380 H         1 UNK         0.3116 
     86 H86        22.3343  -25.2708  -43.6580 H         1 UNK         0.0646 
     87 H87        24.5425  -25.4445  -45.7701 H         1 UNK         0.0847 
     88 H88        24.5605  -24.4751  -44.3078 H         1 UNK         0.0847 
     89 H89        23.4201  -24.0964  -45.5864 H         1 UNK         0.0847 
     90 H90        22.2338  -28.3651  -44.3500 H         1 UNK         0.3040 
     91 H91        24.5871  -29.3976  -42.9648 H         1 UNK         0.1015 
     92 H92        22.0323  -30.7880  -43.9236 H         1 UNK         0.0786 
     93 H93        23.4892  -31.5886  -43.3503 H         1 UNK         0.0786 
     94 H94        23.5344  -30.6505  -44.8320 H         1 UNK         0.0786 
     95 H95        23.7064  -27.6187  -41.2919 H         1 UNK         0.3172 
     96 H96        21.5781  -28.2195  -39.5447 H         1 UNK         0.0595 
     97 H97        24.0219  -26.4205  -39.1105 H         1 UNK         0.0839 
     98 H98        22.5426  -26.3719  -38.1614 H         1 UNK         0.0839 
     99 H99        22.4989  -25.9426  -39.8622 H         1 UNK         0.0839 
    100 H100       24.7238  -29.6130  -39.5368 H         1 UNK         0.2998 
    101 H101       24.8213  -30.4043  -36.7329 H         1 UNK         0.0822 
    102 H102       26.8989  -30.0247  -38.0470 H         1 UNK         0.0787 
    103 H103       26.8187  -31.6832  -37.4792 H         1 UNK         0.0787 
    104 H104       26.4551  -31.3191  -39.1607 H         1 UNK         0.0787 
    105 H105       22.4027  -31.0549  -37.3253 H         1 UNK         0.3055 
    106 H106       20.7800  -32.5851  -37.3735 H         1 UNK         0.1106 
    107 H107       21.1806  -34.6469  -36.0647 H         1 UNK         0.0828 
    108 H108       22.9200  -34.4722  -36.2515 H         1 UNK         0.0828 
    109 H109       22.0058  -33.2985  -35.3050 H         1 UNK         0.0828 
    110 H110       22.0980  -32.3104  -39.9107 H         1 UNK         0.2931 
    111 H111       22.2069  -33.1346  -41.9226 H         1 UNK         0.0412 
    112 H112       24.2175  -34.2176  -39.7458 H         1 UNK         0.3472 
    113 H113       25.0215  -35.4607  -40.6750 H         1 UNK         0.3472 
    114 H114       20.7735  -35.0876  -42.6694 H         1 UNK         0.0970 
    115 H115       20.3414  -35.3831  -41.0143 H         1 UNK         0.0970 
    116 H116       18.9947  -33.5627  -44.2115 H         1 UNK         0.0612 
    117 H117       20.5948  -32.9565  -43.8508 H         1 UNK         0.0612 
@<TRIPOS>BOND
     1    1    2 1    
     2    1   62 1    
     3    1   63 1    
     4    1   64 1    
     5    2    3 2    
     6    2    4 am   BACKBONE|DICT|INTERRES
     7    4    5 1    
     8    4   65 1    
     9    5    6 1    
    10    5   25 1    
    11    5   66 1    
    12    6    7 1    
    13    6   67 1    
    14    6   68 1    
    15    7    8 1    
    16    8    9 1    
    17    8   69 1    
    18    8   70 1    
    19    9   10 ar   
    20    9   14 ar   
    21   10   11 ar   
    22   10   71 1    
    23   11   12 ar   
    24   11   61 1    
    25   12   13 ar   
    26   12   72 1    
    27   13   14 ar   
    28   13   15 1    
    29   14   73 1    
    30   15   16 1    
    31   15   74 1    
    32   15   75 1    
    33   16   17 1    
    34   17   18 1    
    35   17   76 1    
    36   17   77 1    
    37   18   19 1    
    38   18   27 1    
    39   18   78 1    
    40   19   20 am   BACKBONE|DICT|INTERRES
    41   19   79 1    
    42   20   21 2    
    43   20   22 1    
    44   22   23 1    
    45   22   24 1    
    46   22   80 1    
    47   23   81 1    
    48   23   82 1    
    49   23   83 1    
    50   24   25 am   BACKBONE|DICT|INTERRES
    51   24   84 1    
    52   25   26 2    
    53   27   28 2    
    54   27   29 am   BACKBONE|DICT|INTERRES
    55   29   30 1    
    56   29   85 1    
    57   30   31 1    
    58   30   32 1    
    59   30   86 1    
    60   31   87 1    
    61   31   88 1    
    62   31   89 1    
    63   32   33 2    
    64   32   34 am   BACKBONE|DICT|INTERRES
    65   34   35 1    
    66   34   90 1    
    67   35   36 1    
    68   35   37 1    
    69   35   91 1    
    70   36   92 1    
    71   36   93 1    
    72   36   94 1    
    73   37   38 2    
    74   37   39 am   BACKBONE|DICT|INTERRES
    75   39   40 1    
    76   39   95 1    
    77   40   41 1    
    78   40   42 1    
    79   40   96 1    
    80   41   97 1    
    81   41   98 1    
    82   41   99 1    
    83   42   43 2    
    84   42   44 am   BACKBONE|DICT|INTERRES
    85   44   45 1    
    86   44  100 1    
    87   45   46 1    
    88   45   47 1    
    89   45  101 1    
    90   46  102 1    
    91   46  103 1    
    92   46  104 1    
    93   47   48 2    
    94   47   49 am   BACKBONE|DICT|INTERRES
    95   49   50 1    
    96   49  105 1    
    97   50   51 1    
    98   50   52 1    
    99   50  106 1    
   100   51  107 1    
   101   51  108 1    
   102   51  109 1    
   103   52   53 2    
   104   52   54 am   BACKBONE|DICT|INTERRES
   105   54   55 1    
   106   54  110 1    
   107   55   56 1    
   108   55   59 1    
   109   55  111 1    
   110   56   57 am   BACKBONE|DICT|INTERRES
   111   56   58 2    
   112   57  112 1    
   113   57  113 1    
   114   59   60 1    
   115   59  114 1    
   116   59  115 1    
   117   60   61 1    
   118   61  116 1    
   119   61  117 1    
@<TRIPOS>SUBSTRUCTURE
     1 UNK         1 GROUP             0       ****    0 ROOT    
