@<TRIPOS>MOLECULE
3R8
117   119    1
SMALL
USER_CHARGES


@<TRIPOS>ATOM
      1 CA         15.2218  -22.8576  -42.5107 C.3       0 UNK        -0.2013 
      2 C          16.0603  -23.2617  -43.7141 C.2       0 UNK         0.4866 
      3 O          16.5280  -22.3957  -44.4544 O.2       0 UNK        -0.5176 
      4 N          16.2460  -24.5709  -43.9204 N.am      1 UNK        -0.4884 
      5 CA         17.0943  -25.1492  -44.9670 C.3       1 UNK         0.0853 
      6 C6         16.7671  -26.6463  -45.2259 C.3       10 UNK        -0.0849 
      7 S7         16.5529  -27.6605  -43.7181 S.3       10 UNK        -0.2776 
      8 C8         15.9158  -29.2198  -44.4193 C.3       10 UNK         0.0316 
      9 C9         16.9763  -30.3081  -44.3667 C.ar      10 UNK        -0.0863 
     10 C10        16.9229  -31.3004  -43.3828 C.ar      10 UNK        -0.1009 
     11 C11        17.9286  -32.2677  -43.2880 C.ar      10 UNK        -0.0712 
     12 C12        19.0121  -32.2104  -44.1747 C.ar      10 UNK        -0.0894 
     13 C13        19.0696  -31.2333  -45.1732 C.ar      10 UNK        -0.0745 
     14 C14        18.0317  -30.3025  -45.2811 C.ar      10 UNK        -0.0972 
     15 C15        20.2770  -31.1637  -46.1038 C.3       10 UNK         0.0209 
     16 S16        21.0209  -29.4976  -46.1899 S.3       10 UNK        -0.2568 
     17 C17        21.2040  -29.1069  -44.4183 C.3       10 UNK        -0.0983 
     18 CA         21.9046  -27.7570  -44.1508 C.3       3 UNK         0.0876 
     19 N          21.2331  -26.6558  -44.8422 N.am      3 UNK        -0.4424 
     20 C          21.7292  -25.4260  -45.0167 C.2       2 UNK         0.4918 
     21 O          22.8552  -25.0866  -44.6536 O.2       2 UNK        -0.4875 
     22 CA         20.8147  -24.3925  -45.7030 C.3       2 UNK         0.0481 
     23 CB         21.3002  -24.1244  -47.1369 C.3       2 UNK        -0.1831 
     24 N          19.3862  -24.7407  -45.7400 N.am      2 UNK        -0.4498 
     25 C          18.5919  -24.9137  -44.6719 C.2       1 UNK         0.5027 
     26 O          19.0037  -24.9104  -43.5087 O.2       1 UNK        -0.4969 
     27 C          22.0140  -27.5397  -42.6263 C.2       3 UNK         0.5005 
     28 O          22.8028  -28.2465  -41.9953 O.2       3 UNK        -0.5279 
     29 N          21.2211  -26.6147  -42.0565 N.am      4 UNK        -0.4463 
     30 CA         21.1422  -26.2943  -40.6268 C.3       4 UNK         0.0283 
     31 CB         20.2294  -25.0733  -40.4275 C.3       4 UNK        -0.1875 
     32 C          22.5203  -26.0592  -39.9821 C.2       4 UNK         0.4949 
     33 O          23.1954  -25.0865  -40.3218 O.2       4 UNK        -0.5039 
     34 N          22.9079  -26.9873  -39.0949 N.am      5 UNK        -0.4663 
     35 CA         24.1906  -27.0760  -38.3815 C.3       5 UNK         0.0242 
     36 CB         24.3927  -25.8556  -37.4571 C.3       5 UNK        -0.1982 
     37 C          25.4193  -27.3392  -39.2813 C.2       5 UNK         0.5017 
     38 O          26.5455  -27.1982  -38.8012 O.2       5 UNK        -0.5012 
     39 N          25.2005  -27.7333  -40.5436 N.am      6 UNK        -0.4439 
     40 CA         26.2443  -28.0379  -41.5252 C.3       6 UNK         0.0297 
     41 CB         26.1111  -27.0849  -42.7256 C.3       6 UNK        -0.2006 
     42 C          26.1775  -29.5008  -41.9874 C.2       6 UNK         0.4892 
     43 O          27.2200  -30.1518  -42.0650 O.2       6 UNK        -0.5089 
     44 N          24.9687  -29.9940  -42.2861 N.am      7 UNK        -0.4243 
     45 CA         24.7125  -31.3379  -42.8119 C.3       7 UNK         0.0196 
     46 CB         25.0086  -31.3747  -44.3263 C.3       7 UNK        -0.2007 
     47 C          23.2778  -31.7840  -42.4865 C.2       7 UNK         0.5020 
     48 O          22.6435  -32.4619  -43.2969 O.2       7 UNK        -0.5147 
     49 N          22.7650  -31.3704  -41.3202 N.am      8 UNK        -0.4734 
     50 CA         21.3719  -31.5359  -40.8939 C.3       8 UNK         0.0238 
     51 CB         21.0554  -30.4843  -39.8147 C.3       8 UNK        -0.1912 
     52 C          21.0318  -32.9701  -40.4411 C.2       8 UNK         0.5038 
     53 O          20.5844  -33.1676  -39.3100 O.2       8 UNK        -0.5046 
     54 N          21.2229  -33.9373  -41.3463 N.am      9 UNK        -0.4200 
     55 CA         20.8403  -35.3552  -41.2156 C.3       9 UNK         0.0839 
     56 C          21.5891  -36.1389  -40.0934 C.2       9 UNK         0.5513 
     57 N          22.7295  -35.6644  -39.6068 N.am      9 UNK        -0.7519 
     58 O          21.1533  -37.2105  -39.6795 O.2       9 UNK        -0.4960 
     59 C59        19.2946  -35.5536  -41.1730 C.3       10 UNK        -0.0876 
     60 S60        18.4757  -34.9620  -42.6959 S.3       10 UNK        -0.2414 
     61 C61        17.8518  -33.3227  -42.1856 C.3       10 UNK         0.0169 
     62 H62        14.3587  -22.2756  -42.8326 H         1 UNK         0.0903 
     63 H63        14.8595  -23.7237  -41.9571 H         1 UNK         0.0903 
     64 H64        15.8130  -22.2442  -41.8313 H         1 UNK         0.0903 
     65 H65        15.8708  -25.2430  -43.2651 H         1 UNK         0.3096 
     66 H66        16.8687  -24.6072  -45.8887 H         1 UNK         0.1121 
     67 H67        17.5181  -27.1109  -45.8676 H         1 UNK         0.0849 
     68 H68        15.8331  -26.6992  -45.7879 H         1 UNK         0.0849 
     69 H69        15.0325  -29.5220  -43.8544 H         1 UNK         0.0865 
     70 H70        15.5805  -29.0770  -45.4475 H         1 UNK         0.0865 
     71 H71        16.1039  -31.3090  -42.6763 H         1 UNK         0.1346 
     72 H72        19.8204  -32.9230  -44.0838 H         1 UNK         0.1412 
     73 H73        18.0764  -29.5370  -46.0433 H         1 UNK         0.1426 
     74 H74        19.9738  -31.4705  -47.1055 H         1 UNK         0.0716 
     75 H75        21.0495  -31.8653  -45.7837 H         1 UNK         0.0716 
     76 H76        21.7580  -29.9235  -43.9574 H         1 UNK         0.0695 
     77 H77        20.2159  -29.1072  -43.9544 H         1 UNK         0.0695 
     78 H78        22.9245  -27.8192  -44.5367 H         1 UNK         0.0983 
     79 H79        20.3107  -26.8546  -45.1986 H         1 UNK         0.3095 
     80 H80        20.9059  -23.4640  -45.1357 H         1 UNK         0.0454 
     81 H81        21.2089  -25.0106  -47.7663 H         1 UNK         0.0851 
     82 H82        22.3497  -23.8265  -47.1461 H         1 UNK         0.0851 
     83 H83        20.7357  -23.3179  -47.6052 H         1 UNK         0.0851 
     84 H84        18.9689  -24.7778  -46.6595 H         1 UNK         0.2976 
     85 H85        20.6026  -26.0832  -42.6594 H         1 UNK         0.3116 
     86 H86        20.6645  -27.1429  -40.1347 H         1 UNK         0.0646 
     87 H87        19.2141  -25.2762  -40.7691 H         1 UNK         0.0847 
     88 H88        20.5972  -24.2027  -40.9723 H         1 UNK         0.0847 
     89 H89        20.1665  -24.7975  -39.3740 H         1 UNK         0.0847 
     90 H90        22.2702  -27.7498  -38.9130 H         1 UNK         0.3040 
     91 H91        24.1120  -27.9557  -37.7407 H         1 UNK         0.1015 
     92 H92        24.5651  -24.9406  -38.0245 H         1 UNK         0.0786 
     93 H93        25.2541  -25.9964  -36.8030 H         1 UNK         0.0786 
     94 H94        23.5262  -25.6951  -36.8156 H         1 UNK         0.0786 
     95 H95        24.2393  -27.8248  -40.8642 H         1 UNK         0.3172 
     96 H96        27.2338  -27.8839  -41.0899 H         1 UNK         0.0595 
     97 H97        25.1420  -27.1771  -43.2167 H         1 UNK         0.0839 
     98 H98        26.8777  -27.2895  -43.4742 H         1 UNK         0.0839 
     99 H99        26.2279  -26.0457  -42.4175 H         1 UNK         0.0839 
    100 H100       24.1513  -29.3904  -42.1968 H         1 UNK         0.2998 
    101 H101       25.3749  -32.0467  -42.3108 H         1 UNK         0.0822 
    102 H102       26.0382  -31.0889  -44.5409 H         1 UNK         0.0787 
    103 H103       24.8646  -32.3769  -44.7319 H         1 UNK         0.0787 
    104 H104       24.3511  -30.7006  -44.8772 H         1 UNK         0.0787 
    105 H105       23.3654  -30.8533  -40.6947 H         1 UNK         0.3055 
    106 H106       20.7280  -31.3223  -41.7509 H         1 UNK         0.1106 
    107 H107       21.6729  -30.6174  -38.9257 H         1 UNK         0.0828 
    108 H108       20.0121  -30.5453  -39.5017 H         1 UNK         0.0828 
    109 H109       21.2155  -29.4760  -40.1915 H         1 UNK         0.0828 
    110 H110       21.6456  -33.6656  -42.2299 H         1 UNK         0.2931 
    111 H111       21.1919  -35.8225  -42.1361 H         1 UNK         0.0412 
    112 H112       23.1000  -34.7889  -39.9396 H         1 UNK         0.3472 
    113 H113       23.2148  -36.1808  -38.8898 H         1 UNK         0.3472 
    114 H114       18.8600  -35.0735  -40.2950 H         1 UNK         0.0970 
    115 H115       19.0494  -36.6131  -41.0815 H         1 UNK         0.0970 
    116 H116       16.8201  -33.4491  -41.8539 H         1 UNK         0.0612 
    117 H117       18.4017  -32.9525  -41.3229 H         1 UNK         0.0612 
@<TRIPOS>BOND
     1    1    2 1    
     2    1   62 1    
     3    1   63 1    
     4    1   64 1    
     5    2    3 2    
     6    2    4 am   BACKBONE|DICT|INTERRES
     7    4    5 1    
     8    4   65 1    
     9    5    6 1    
    10    5   25 1    
    11    5   66 1    
    12    6    7 1    
    13    6   67 1    
    14    6   68 1    
    15    7    8 1    
    16    8    9 1    
    17    8   69 1    
    18    8   70 1    
    19    9   10 ar   
    20    9   14 ar   
    21   10   11 ar   
    22   10   71 1    
    23   11   12 ar   
    24   11   61 1    
    25   12   13 ar   
    26   12   72 1    
    27   13   14 ar   
    28   13   15 1    
    29   14   73 1    
    30   15   16 1    
    31   15   74 1    
    32   15   75 1    
    33   16   17 1    
    34   17   18 1    
    35   17   76 1    
    36   17   77 1    
    37   18   19 1    
    38   18   27 1    
    39   18   78 1    
    40   19   20 am   BACKBONE|DICT|INTERRES
    41   19   79 1    
    42   20   21 2    
    43   20   22 1    
    44   22   23 1    
    45   22   24 1    
    46   22   80 1    
    47   23   81 1    
    48   23   82 1    
    49   23   83 1    
    50   24   25 am   BACKBONE|DICT|INTERRES
    51   24   84 1    
    52   25   26 2    
    53   27   28 2    
    54   27   29 am   BACKBONE|DICT|INTERRES
    55   29   30 1    
    56   29   85 1    
    57   30   31 1    
    58   30   32 1    
    59   30   86 1    
    60   31   87 1    
    61   31   88 1    
    62   31   89 1    
    63   32   33 2    
    64   32   34 am   BACKBONE|DICT|INTERRES
    65   34   35 1    
    66   34   90 1    
    67   35   36 1    
    68   35   37 1    
    69   35   91 1    
    70   36   92 1    
    71   36   93 1    
    72   36   94 1    
    73   37   38 2    
    74   37   39 am   BACKBONE|DICT|INTERRES
    75   39   40 1    
    76   39   95 1    
    77   40   41 1    
    78   40   42 1    
    79   40   96 1    
    80   41   97 1    
    81   41   98 1    
    82   41   99 1    
    83   42   43 2    
    84   42   44 am   BACKBONE|DICT|INTERRES
    85   44   45 1    
    86   44  100 1    
    87   45   46 1    
    88   45   47 1    
    89   45  101 1    
    90   46  102 1    
    91   46  103 1    
    92   46  104 1    
    93   47   48 2    
    94   47   49 am   BACKBONE|DICT|INTERRES
    95   49   50 1    
    96   49  105 1    
    97   50   51 1    
    98   50   52 1    
    99   50  106 1    
   100   51  107 1    
   101   51  108 1    
   102   51  109 1    
   103   52   53 2    
   104   52   54 am   BACKBONE|DICT|INTERRES
   105   54   55 1    
   106   54  110 1    
   107   55   56 1    
   108   55   59 1    
   109   55  111 1    
   110   56   57 am   BACKBONE|DICT|INTERRES
   111   56   58 2    
   112   57  112 1    
   113   57  113 1    
   114   59   60 1    
   115   59  114 1    
   116   59  115 1    
   117   60   61 1    
   118   61  116 1    
   119   61  117 1    
@<TRIPOS>SUBSTRUCTURE
     1 UNK         1 GROUP             0       ****    0 ROOT    
