@<TRIPOS>MOLECULE
3R8
117   119    1
SMALL
USER_CHARGES


@<TRIPOS>ATOM
      1 CA         20.2748  -25.4891  -39.8703 C.3       0 UNK        -0.2013 
      2 C          19.9101  -25.7232  -41.3276 C.2       0 UNK         0.4866 
      3 O          20.6670  -26.3838  -42.0426 O.2       0 UNK        -0.5176 
      4 N          18.7534  -25.1874  -41.7446 N.am      1 UNK        -0.4884 
      5 CA         18.1665  -25.2153  -43.0930 C.3       1 UNK         0.0853 
      6 C6         17.9913  -26.6451  -43.6724 C.3       10 UNK        -0.0849 
      7 S7         16.8661  -27.7147  -42.7128 S.3       10 UNK        -0.2776 
      8 C8         17.9710  -29.0732  -42.1813 C.3       10 UNK         0.0316 
      9 C9         18.4192  -30.0625  -43.2656 C.ar      10 UNK        -0.0863 
     10 C10        18.9186  -31.3050  -42.8624 C.ar      10 UNK        -0.1009 
     11 C11        19.4109  -32.2200  -43.7975 C.ar      10 UNK        -0.0712 
     12 C12        19.4335  -31.8755  -45.1518 C.ar      10 UNK        -0.0894 
     13 C13        18.9371  -30.6415  -45.5823 C.ar      10 UNK        -0.0745 
     14 C14        18.3974  -29.7638  -44.6353 C.ar      10 UNK        -0.0972 
     15 C15        18.9817  -30.2988  -47.0749 C.3       10 UNK         0.0209 
     16 S16        19.0433  -28.5122  -47.4769 S.3       10 UNK        -0.2568 
     17 C17        20.6299  -28.0125  -46.7263 C.3       10 UNK        -0.0983 
     18 CA         21.0581  -26.5631  -47.0861 C.3       3 UNK         0.0876 
     19 N          20.0040  -25.5942  -46.7731 N.am      3 UNK        -0.4424 
     20 C          20.0040  -24.2865  -47.0697 C.2       2 UNK         0.4918 
     21 O          20.8547  -23.7408  -47.7720 O.2       2 UNK        -0.4875 
     22 CA         18.8831  -23.4364  -46.4345 C.3       2 UNK         0.0481 
     23 CB         17.7835  -23.1423  -47.4672 C.3       2 UNK        -0.1831 
     24 N          18.2802  -24.0584  -45.2460 N.am      2 UNK        -0.4498 
     25 C          18.9321  -24.3324  -44.1040 C.2       1 UNK         0.5027 
     26 O          20.0960  -23.9819  -43.8953 O.2       1 UNK        -0.4969 
     27 C          22.3965  -26.2405  -46.3812 C.2       3 UNK         0.5005 
     28 O          23.4363  -26.7036  -46.8525 O.2       3 UNK        -0.5279 
     29 N          22.3471  -25.4926  -45.2615 N.am      4 UNK        -0.4463 
     30 CA         23.4498  -25.2050  -44.3340 C.3       4 UNK         0.0283 
     31 CB         24.5230  -24.3171  -44.9982 C.3       4 UNK        -0.1875 
     32 C          24.0207  -26.4973  -43.7193 C.2       4 UNK         0.4949 
     33 O          25.2375  -26.6740  -43.6433 O.2       4 UNK        -0.5039 
     34 N          23.1096  -27.3934  -43.3218 N.am      5 UNK        -0.4663 
     35 CA         23.4118  -28.7350  -42.8263 C.3       5 UNK         0.0242 
     36 CB         22.2493  -29.6620  -43.2151 C.3       5 UNK        -0.1982 
     37 C          23.6351  -28.7749  -41.3077 C.2       5 UNK         0.5017 
     38 O          24.1138  -29.7897  -40.8011 O.2       5 UNK        -0.5012 
     39 N          23.2301  -27.7071  -40.5997 N.am      6 UNK        -0.4439 
     40 CA         23.2567  -27.5499  -39.1355 C.3       6 UNK         0.0297 
     41 CB         24.7100  -27.5209  -38.6160 C.3       6 UNK        -0.2006 
     42 C          22.3912  -28.5890  -38.3882 C.2       6 UNK         0.4892 
     43 O          22.6048  -28.8158  -37.1970 O.2       6 UNK        -0.5089 
     44 N          21.4509  -29.2134  -39.1167 N.am      7 UNK        -0.4243 
     45 CA         20.6088  -30.3512  -38.7305 C.3       7 UNK         0.0196 
     46 CB         19.6291  -29.9560  -37.6063 C.3       7 UNK        -0.2007 
     47 C          21.3971  -31.6376  -38.3995 C.2       7 UNK         0.5020 
     48 O          20.8222  -32.5622  -37.8223 O.2       7 UNK        -0.5147 
     49 N          22.6753  -31.7226  -38.8025 N.am      8 UNK        -0.4734 
     50 CA         23.5966  -32.8353  -38.5240 C.3       8 UNK         0.0238 
     51 CB         25.0424  -32.3129  -38.6168 C.3       8 UNK        -0.1912 
     52 C          23.3595  -34.0727  -39.4181 C.2       8 UNK         0.5038 
     53 O          24.3139  -34.7302  -39.8377 O.2       8 UNK        -0.5046 
     54 N          22.0872  -34.3557  -39.6968 N.am      9 UNK        -0.4200 
     55 CA         21.5759  -35.4039  -40.5851 C.3       9 UNK         0.0839 
     56 C          20.0743  -35.7266  -40.3341 C.2       9 UNK         0.5513 
     57 N          19.4205  -35.1630  -39.3220 N.am      9 UNK        -0.7519 
     58 O          19.4880  -36.5253  -41.0599 O.2       9 UNK        -0.4960 
     59 C59        21.9116  -35.1493  -42.0864 C.3       10 UNK        -0.0876 
     60 S60        21.5950  -33.4411  -42.6543 S.3       10 UNK        -0.2414 
     61 C61        19.9198  -33.5774  -43.3381 C.3       10 UNK         0.0169 
     62 H62        20.3206  -26.4382  -39.3385 H         1 UNK         0.0903 
     63 H63        21.2461  -25.0007  -39.8029 H         1 UNK         0.0903 
     64 H64        19.5466  -24.8562  -39.3636 H         1 UNK         0.0903 
     65 H65        18.2155  -24.6528  -41.0768 H         1 UNK         0.3096 
     66 H66        17.1753  -24.7701  -42.9891 H         1 UNK         0.1121 
     67 H67        18.9619  -27.1307  -43.7827 H         1 UNK         0.0849 
     68 H68        17.5665  -26.6004  -44.6766 H         1 UNK         0.0849 
     69 H69        18.8576  -28.6424  -41.7142 H         1 UNK         0.0865 
     70 H70        17.4519  -29.6234  -41.3949 H         1 UNK         0.0865 
     71 H71        18.9353  -31.5637  -41.8124 H         1 UNK         0.1346 
     72 H72        19.8346  -32.5742  -45.8734 H         1 UNK         0.1412 
     73 H73        17.9780  -28.8369  -44.9831 H         1 UNK         0.1426 
     74 H74        19.8440  -30.7798  -47.5395 H         1 UNK         0.0716 
     75 H75        18.0980  -30.7265  -47.5499 H         1 UNK         0.0716 
     76 H76        21.3938  -28.7231  -47.0486 H         1 UNK         0.0695 
     77 H77        20.5450  -28.1274  -45.6439 H         1 UNK         0.0695 
     78 H78        21.2398  -26.5118  -48.1618 H         1 UNK         0.0983 
     79 H79        19.2243  -25.9587  -46.2498 H         1 UNK         0.3095 
     80 H80        19.3267  -22.4874  -46.1264 H         1 UNK         0.0454 
     81 H81        17.0217  -22.4779  -47.0593 H         1 UNK         0.0851 
     82 H82        17.2901  -24.0544  -47.8053 H         1 UNK         0.0851 
     83 H83        18.1982  -22.6515  -48.3489 H         1 UNK         0.0851 
     84 H84        17.3186  -24.3548  -45.3411 H         1 UNK         0.2976 
     85 H85        21.4457  -25.1368  -44.9600 H         1 UNK         0.3116 
     86 H86        23.0147  -24.6382  -43.5092 H         1 UNK         0.0646 
     87 H87        24.0840  -23.4119  -45.4175 H         1 UNK         0.0847 
     88 H88        25.2746  -24.0065  -44.2715 H         1 UNK         0.0847 
     89 H89        25.0454  -24.8395  -45.8000 H         1 UNK         0.0847 
     90 H90        22.1315  -27.1216  -43.3272 H         1 UNK         0.3040 
     91 H91        24.3235  -29.1047  -43.3014 H         1 UNK         0.1015 
     92 H92        21.3028  -29.3281  -42.7887 H         1 UNK         0.0786 
     93 H93        22.4272  -30.6767  -42.8609 H         1 UNK         0.0786 
     94 H94        22.1263  -29.7174  -44.2969 H         1 UNK         0.0786 
     95 H95        22.7992  -26.9539  -41.1218 H         1 UNK         0.3172 
     96 H96        22.8177  -26.5763  -38.9204 H         1 UNK         0.0595 
     97 H97        25.1964  -28.4919  -38.7148 H         1 UNK         0.0839 
     98 H98        24.7434  -27.2495  -37.5602 H         1 UNK         0.0839 
     99 H99        25.3103  -26.7884  -39.1555 H         1 UNK         0.0839 
    100 H100       21.3798  -28.9359  -40.0852 H         1 UNK         0.2998 
    101 H101       20.0132  -30.5926  -39.6121 H         1 UNK         0.0822 
    102 H102       18.9021  -30.7481  -37.4230 H         1 UNK         0.0787 
    103 H103       20.1467  -29.7684  -36.6652 H         1 UNK         0.0787 
    104 H104       19.0681  -29.0583  -37.8663 H         1 UNK         0.0787 
    105 H105       23.0638  -30.9558  -39.3416 H         1 UNK         0.3055 
    106 H106       23.4303  -33.1636  -37.4955 H         1 UNK         0.1106 
    107 H107       25.1971  -31.4528  -37.9650 H         1 UNK         0.0828 
    108 H108       25.7586  -33.0784  -38.3152 H         1 UNK         0.0828 
    109 H109       25.2946  -32.0115  -39.6342 H         1 UNK         0.0828 
    110 H110       21.3860  -33.7587  -39.2759 H         1 UNK         0.2931 
    111 H111       22.0903  -36.3221  -40.2962 H         1 UNK         0.0412 
    112 H112       19.8677  -34.5341  -38.6719 H         1 UNK         0.3472 
    113 H113       18.4509  -35.4032  -39.1857 H         1 UNK         0.3472 
    114 H114       21.4018  -35.8596  -42.7397 H         1 UNK         0.0970 
    115 H115       22.9743  -35.3389  -42.2430 H         1 UNK         0.0970 
    116 H116       19.9224  -34.2889  -44.1653 H         1 UNK         0.0612 
    117 H117       19.2455  -33.9804  -42.5817 H         1 UNK         0.0612 
@<TRIPOS>BOND
     1    1    2 1    
     2    1   62 1    
     3    1   63 1    
     4    1   64 1    
     5    2    3 2    
     6    2    4 am   BACKBONE|DICT|INTERRES
     7    4    5 1    
     8    4   65 1    
     9    5    6 1    
    10    5   25 1    
    11    5   66 1    
    12    6    7 1    
    13    6   67 1    
    14    6   68 1    
    15    7    8 1    
    16    8    9 1    
    17    8   69 1    
    18    8   70 1    
    19    9   10 ar   
    20    9   14 ar   
    21   10   11 ar   
    22   10   71 1    
    23   11   12 ar   
    24   11   61 1    
    25   12   13 ar   
    26   12   72 1    
    27   13   14 ar   
    28   13   15 1    
    29   14   73 1    
    30   15   16 1    
    31   15   74 1    
    32   15   75 1    
    33   16   17 1    
    34   17   18 1    
    35   17   76 1    
    36   17   77 1    
    37   18   19 1    
    38   18   27 1    
    39   18   78 1    
    40   19   20 am   BACKBONE|DICT|INTERRES
    41   19   79 1    
    42   20   21 2    
    43   20   22 1    
    44   22   23 1    
    45   22   24 1    
    46   22   80 1    
    47   23   81 1    
    48   23   82 1    
    49   23   83 1    
    50   24   25 am   BACKBONE|DICT|INTERRES
    51   24   84 1    
    52   25   26 2    
    53   27   28 2    
    54   27   29 am   BACKBONE|DICT|INTERRES
    55   29   30 1    
    56   29   85 1    
    57   30   31 1    
    58   30   32 1    
    59   30   86 1    
    60   31   87 1    
    61   31   88 1    
    62   31   89 1    
    63   32   33 2    
    64   32   34 am   BACKBONE|DICT|INTERRES
    65   34   35 1    
    66   34   90 1    
    67   35   36 1    
    68   35   37 1    
    69   35   91 1    
    70   36   92 1    
    71   36   93 1    
    72   36   94 1    
    73   37   38 2    
    74   37   39 am   BACKBONE|DICT|INTERRES
    75   39   40 1    
    76   39   95 1    
    77   40   41 1    
    78   40   42 1    
    79   40   96 1    
    80   41   97 1    
    81   41   98 1    
    82   41   99 1    
    83   42   43 2    
    84   42   44 am   BACKBONE|DICT|INTERRES
    85   44   45 1    
    86   44  100 1    
    87   45   46 1    
    88   45   47 1    
    89   45  101 1    
    90   46  102 1    
    91   46  103 1    
    92   46  104 1    
    93   47   48 2    
    94   47   49 am   BACKBONE|DICT|INTERRES
    95   49   50 1    
    96   49  105 1    
    97   50   51 1    
    98   50   52 1    
    99   50  106 1    
   100   51  107 1    
   101   51  108 1    
   102   51  109 1    
   103   52   53 2    
   104   52   54 am   BACKBONE|DICT|INTERRES
   105   54   55 1    
   106   54  110 1    
   107   55   56 1    
   108   55   59 1    
   109   55  111 1    
   110   56   57 am   BACKBONE|DICT|INTERRES
   111   56   58 2    
   112   57  112 1    
   113   57  113 1    
   114   59   60 1    
   115   59  114 1    
   116   59  115 1    
   117   60   61 1    
   118   61  116 1    
   119   61  117 1    
@<TRIPOS>SUBSTRUCTURE
     1 UNK         1 GROUP             0       ****    0 ROOT    
