@<TRIPOS>MOLECULE
3R8
117   119    1
SMALL
USER_CHARGES


@<TRIPOS>ATOM
      1 CA         15.9918  -24.4537  -40.5465 C.3       0 UNK        -0.2013 
      2 C          16.2726  -23.9109  -41.9400 C.2       0 UNK         0.4866 
      3 O          16.2704  -22.6949  -42.1359 O.2       0 UNK        -0.5176 
      4 N          16.5057  -24.8056  -42.9084 N.am      1 UNK        -0.4884 
      5 CA         16.8819  -24.4764  -44.2873 C.3       1 UNK         0.0853 
      6 C6         16.3840  -25.5806  -45.2677 C.3       10 UNK        -0.0849 
      7 S7         17.4979  -27.0133  -45.4472 S.3       10 UNK        -0.2776 
      8 C8         16.6132  -28.4171  -44.6850 C.3       10 UNK         0.0316 
      9 C9         17.6033  -29.5557  -44.4707 C.ar      10 UNK        -0.0863 
     10 C10        17.8773  -30.0532  -43.1920 C.ar      10 UNK        -0.1009 
     11 C11        18.9306  -30.9546  -42.9960 C.ar      10 UNK        -0.0712 
     12 C12        19.7138  -31.3489  -44.0856 C.ar      10 UNK        -0.0894 
     13 C13        19.4360  -30.8684  -45.3669 C.ar      10 UNK        -0.0745 
     14 C14        18.3404  -30.0280  -45.5586 C.ar      10 UNK        -0.0972 
     15 C15        20.3542  -31.1872  -46.5367 C.3       10 UNK         0.0209 
     16 S16        21.8092  -30.0795  -46.5842 S.3       10 UNK        -0.2568 
     17 C17        21.0816  -28.4079  -46.7995 C.3       10 UNK        -0.0983 
     18 CA         21.5290  -27.3175  -45.7832 C.3       3 UNK         0.0876 
     19 N          20.7959  -26.0618  -46.0050 N.am      3 UNK        -0.4424 
     20 C          21.2255  -24.8510  -45.6201 C.2       2 UNK         0.4918 
     21 O          22.2945  -24.6612  -45.0406 O.2       2 UNK        -0.4875 
     22 CA         20.3015  -23.6516  -45.9137 C.3       2 UNK         0.0481 
     23 CB         20.4546  -23.1983  -47.3743 C.3       2 UNK        -0.1831 
     24 N          18.8853  -23.9088  -45.6220 N.am      2 UNK        -0.4498 
     25 C          18.3971  -24.1456  -44.3945 C.2       1 UNK         0.5027 
     26 O          19.1069  -24.1421  -43.3858 O.2       1 UNK        -0.4969 
     27 C          21.4942  -27.7463  -44.2947 C.2       3 UNK         0.5005 
     28 O          22.4483  -28.3692  -43.8274 O.2       3 UNK        -0.5279 
     29 N          20.4631  -27.3230  -43.5431 N.am      4 UNK        -0.4463 
     30 CA         20.3018  -27.5668  -42.1013 C.3       4 UNK         0.0283 
     31 CB         18.9241  -27.0641  -41.6398 C.3       4 UNK        -0.1875 
     32 C          21.4036  -26.9573  -41.2122 C.2       4 UNK         0.4949 
     33 O          21.4921  -27.3190  -40.0388 O.2       4 UNK        -0.5039 
     34 N          22.2255  -26.0566  -41.7700 N.am      5 UNK        -0.4663 
     35 CA         23.4392  -25.5351  -41.1407 C.3       5 UNK         0.0242 
     36 CB         23.9541  -24.3405  -41.9591 C.3       5 UNK        -0.1982 
     37 C          24.5452  -26.5976  -40.9803 C.2       5 UNK         0.5017 
     38 O          25.3937  -26.4397  -40.1013 O.2       5 UNK        -0.5012 
     39 N          24.5245  -27.6503  -41.8115 N.am      6 UNK        -0.4439 
     40 CA         25.4077  -28.8088  -41.6976 C.3       6 UNK         0.0297 
     41 CB         25.6783  -29.3796  -43.0995 C.3       6 UNK        -0.2006 
     42 C          24.7485  -29.8730  -40.8106 C.2       6 UNK         0.4892 
     43 O          23.5307  -30.0586  -40.8715 O.2       6 UNK        -0.5089 
     44 N          25.5680  -30.6080  -40.0490 N.am      7 UNK        -0.4243 
     45 CA         25.1504  -31.6978  -39.1574 C.3       7 UNK         0.0196 
     46 CB         26.2222  -31.8855  -38.0668 C.3       7 UNK        -0.2007 
     47 C          24.8361  -33.0090  -39.9119 C.2       7 UNK         0.5020 
     48 O          25.2606  -34.0845  -39.4869 O.2       7 UNK        -0.5147 
     49 N          24.1109  -32.8993  -41.0313 N.am      8 UNK        -0.4734 
     50 CA         23.6808  -34.0212  -41.8680 C.3       8 UNK         0.0238 
     51 CB         23.3733  -33.5036  -43.2823 C.3       8 UNK        -0.1912 
     52 C          22.4689  -34.7613  -41.2783 C.2       8 UNK         0.5038 
     53 O          22.3536  -35.9731  -41.4665 O.2       8 UNK        -0.5046 
     54 N          21.5997  -34.0246  -40.5759 N.am      9 UNK        -0.4200 
     55 CA         20.4564  -34.5625  -39.8288 C.3       9 UNK         0.0839 
     56 C          20.9073  -35.0718  -38.4358 C.2       9 UNK         0.5513 
     57 N          20.3773  -36.2000  -37.9846 N.am      9 UNK        -0.7519 
     58 O          21.6979  -34.4311  -37.7457 O.2       9 UNK        -0.4960 
     59 C59        19.3197  -33.5171  -39.6926 C.3       10 UNK        -0.0876 
     60 S60        18.5734  -33.1017  -41.3050 S.3       10 UNK        -0.2414 
     61 C61        19.2740  -31.4522  -41.6014 C.3       10 UNK         0.0169 
     62 H62        15.0126  -24.1205  -40.2037 H         1 UNK         0.0903 
     63 H63        16.0075  -25.5432  -40.5209 H         1 UNK         0.0903 
     64 H64        16.7414  -24.0882  -39.8451 H         1 UNK         0.0903 
     65 H65        16.5125  -25.7882  -42.6817 H         1 UNK         0.3096 
     66 H66        16.3593  -23.5554  -44.5570 H         1 UNK         0.1121 
     67 H67        15.3858  -25.9230  -44.9886 H         1 UNK         0.0849 
     68 H68        16.2631  -25.1492  -46.2626 H         1 UNK         0.0849 
     69 H69        15.8018  -28.7443  -45.3365 H         1 UNK         0.0865 
     70 H70        16.1636  -28.1061  -43.7412 H         1 UNK         0.0865 
     71 H71        17.3070  -29.7047  -42.3422 H         1 UNK         0.1346 
     72 H72        20.5563  -32.0067  -43.9321 H         1 UNK         0.1412 
     73 H73        18.1236  -29.6492  -46.5480 H         1 UNK         0.1426 
     74 H74        19.8137  -31.1126  -47.4817 H         1 UNK         0.0716 
     75 H75        20.6981  -32.2198  -46.4618 H         1 UNK         0.0716 
     76 H76        19.9980  -28.4729  -46.8134 H         1 UNK         0.0695 
     77 H77        21.3491  -28.0779  -47.8044 H         1 UNK         0.0695 
     78 H78        22.5814  -27.1156  -45.9968 H         1 UNK         0.0983 
     79 H79        19.8938  -26.1372  -46.4533 H         1 UNK         0.3095 
     80 H80        20.6244  -22.8270  -45.2745 H         1 UNK         0.0454 
     81 H81        21.4983  -22.9835  -47.6082 H         1 UNK         0.0851 
     82 H82        19.8886  -22.2872  -47.5685 H         1 UNK         0.0851 
     83 H83        20.1147  -23.9611  -48.0758 H         1 UNK         0.0851 
     84 H84        18.2562  -23.9343  -46.4118 H         1 UNK         0.2976 
     85 H85        19.7308  -26.7949  -43.9959 H         1 UNK         0.3116 
     86 H86        20.3398  -28.6477  -41.9578 H         1 UNK         0.0646 
     87 H87        18.6913  -27.4411  -40.6433 H         1 UNK         0.0847 
     88 H88        18.1278  -27.3904  -42.3046 H         1 UNK         0.0847 
     89 H89        18.8920  -25.9764  -41.5841 H         1 UNK         0.0847 
     90 H90        22.0642  -25.7954  -42.7334 H         1 UNK         0.3040 
     91 H91        23.1775  -25.1821  -40.1407 H         1 UNK         0.1015 
     92 H92        23.2000  -23.5569  -42.0369 H         1 UNK         0.0786 
     93 H93        24.2347  -24.6366  -42.9709 H         1 UNK         0.0786 
     94 H94        24.8351  -23.8978  -41.4923 H         1 UNK         0.0786 
     95 H95        23.7429  -27.7562  -42.4543 H         1 UNK         0.3172 
     96 H96        26.3608  -28.5088  -41.2568 H         1 UNK         0.0595 
     97 H97        24.7636  -29.7373  -43.5749 H         1 UNK         0.0839 
     98 H98        26.3697  -30.2218  -43.0524 H         1 UNK         0.0839 
     99 H99        26.1234  -28.6303  -43.7541 H         1 UNK         0.0839 
    100 H100       26.5608  -30.4269  -40.0955 H         1 UNK         0.2998 
    101 H101       24.2256  -31.3984  -38.6591 H         1 UNK         0.0822 
    102 H102       26.3961  -30.9602  -37.5171 H         1 UNK         0.0787 
    103 H103       25.9136  -32.6366  -37.3382 H         1 UNK         0.0787 
    104 H104       27.1740  -32.2108  -38.4886 H         1 UNK         0.0787 
    105 H105       23.7918  -31.9695  -41.2880 H         1 UNK         0.3055 
    106 H106       24.4994  -34.7416  -41.9386 H         1 UNK         0.1106 
    107 H107       22.6185  -32.7181  -43.2679 H         1 UNK         0.0828 
    108 H108       24.2666  -33.0960  -43.7560 H         1 UNK         0.0828 
    109 H109       23.0039  -34.3050  -43.9238 H         1 UNK         0.0828 
    110 H110       21.8086  -33.0491  -40.4309 H         1 UNK         0.2931 
    111 H111       20.0550  -35.4133  -40.3841 H         1 UNK         0.0412 
    112 H112       20.6460  -36.5387  -37.0735 H         1 UNK         0.3472 
    113 H113       19.7203  -36.7262  -38.5405 H         1 UNK         0.3472 
    114 H114       19.6758  -32.6126  -39.1955 H         1 UNK         0.0970 
    115 H115       18.5195  -33.9093  -39.0618 H         1 UNK         0.0970 
    116 H116       18.9016  -30.7591  -40.8454 H         1 UNK         0.0612 
    117 H117       20.3582  -31.4860  -41.4834 H         1 UNK         0.0612 
@<TRIPOS>BOND
     1    1    2 1    
     2    1   62 1    
     3    1   63 1    
     4    1   64 1    
     5    2    3 2    
     6    2    4 am   BACKBONE|DICT|INTERRES
     7    4    5 1    
     8    4   65 1    
     9    5    6 1    
    10    5   25 1    
    11    5   66 1    
    12    6    7 1    
    13    6   67 1    
    14    6   68 1    
    15    7    8 1    
    16    8    9 1    
    17    8   69 1    
    18    8   70 1    
    19    9   10 ar   
    20    9   14 ar   
    21   10   11 ar   
    22   10   71 1    
    23   11   12 ar   
    24   11   61 1    
    25   12   13 ar   
    26   12   72 1    
    27   13   14 ar   
    28   13   15 1    
    29   14   73 1    
    30   15   16 1    
    31   15   74 1    
    32   15   75 1    
    33   16   17 1    
    34   17   18 1    
    35   17   76 1    
    36   17   77 1    
    37   18   19 1    
    38   18   27 1    
    39   18   78 1    
    40   19   20 am   BACKBONE|DICT|INTERRES
    41   19   79 1    
    42   20   21 2    
    43   20   22 1    
    44   22   23 1    
    45   22   24 1    
    46   22   80 1    
    47   23   81 1    
    48   23   82 1    
    49   23   83 1    
    50   24   25 am   BACKBONE|DICT|INTERRES
    51   24   84 1    
    52   25   26 2    
    53   27   28 2    
    54   27   29 am   BACKBONE|DICT|INTERRES
    55   29   30 1    
    56   29   85 1    
    57   30   31 1    
    58   30   32 1    
    59   30   86 1    
    60   31   87 1    
    61   31   88 1    
    62   31   89 1    
    63   32   33 2    
    64   32   34 am   BACKBONE|DICT|INTERRES
    65   34   35 1    
    66   34   90 1    
    67   35   36 1    
    68   35   37 1    
    69   35   91 1    
    70   36   92 1    
    71   36   93 1    
    72   36   94 1    
    73   37   38 2    
    74   37   39 am   BACKBONE|DICT|INTERRES
    75   39   40 1    
    76   39   95 1    
    77   40   41 1    
    78   40   42 1    
    79   40   96 1    
    80   41   97 1    
    81   41   98 1    
    82   41   99 1    
    83   42   43 2    
    84   42   44 am   BACKBONE|DICT|INTERRES
    85   44   45 1    
    86   44  100 1    
    87   45   46 1    
    88   45   47 1    
    89   45  101 1    
    90   46  102 1    
    91   46  103 1    
    92   46  104 1    
    93   47   48 2    
    94   47   49 am   BACKBONE|DICT|INTERRES
    95   49   50 1    
    96   49  105 1    
    97   50   51 1    
    98   50   52 1    
    99   50  106 1    
   100   51  107 1    
   101   51  108 1    
   102   51  109 1    
   103   52   53 2    
   104   52   54 am   BACKBONE|DICT|INTERRES
   105   54   55 1    
   106   54  110 1    
   107   55   56 1    
   108   55   59 1    
   109   55  111 1    
   110   56   57 am   BACKBONE|DICT|INTERRES
   111   56   58 2    
   112   57  112 1    
   113   57  113 1    
   114   59   60 1    
   115   59  114 1    
   116   59  115 1    
   117   60   61 1    
   118   61  116 1    
   119   61  117 1    
@<TRIPOS>SUBSTRUCTURE
     1 UNK         1 GROUP             0       ****    0 ROOT    
