@<TRIPOS>MOLECULE
3R8
117   119    1
SMALL
USER_CHARGES


@<TRIPOS>ATOM
      1 CA         24.2651  -24.8730  -47.3382 C.3       0 UNK        -0.2013 
      2 C          23.1279  -24.8650  -46.3279 C.2       0 UNK         0.4866 
      3 O          23.0838  -23.9874  -45.4663 O.2       0 UNK        -0.5176 
      4 N          22.2178  -25.8418  -46.4232 N.am      1 UNK        -0.4884 
      5 CA         21.0416  -25.9971  -45.5590 C.3       1 UNK         0.0853 
      6 C6         20.3587  -27.3677  -45.7938 C.3       10 UNK        -0.0849 
      7 S7         21.4498  -28.7742  -45.3934 S.3       10 UNK        -0.2776 
      8 C8         20.5452  -30.1636  -46.1438 C.3       10 UNK         0.0316 
      9 C9         19.2726  -30.4864  -45.3748 C.ar      10 UNK        -0.0863 
     10 C10        19.2914  -31.4188  -44.3326 C.ar      10 UNK        -0.1009 
     11 C11        18.1180  -31.7301  -43.6286 C.ar      10 UNK        -0.0712 
     12 C12        16.9321  -31.0689  -43.9680 C.ar      10 UNK        -0.0894 
     13 C13        16.9042  -30.1287  -45.0025 C.ar      10 UNK        -0.0745 
     14 C14        18.0732  -29.8582  -45.7150 C.ar      10 UNK        -0.0972 
     15 C15        15.6182  -29.3918  -45.3492 C.3       10 UNK         0.0209 
     16 S16        15.7164  -27.6237  -44.9141 S.3       10 UNK        -0.2568 
     17 C17        15.9244  -27.7091  -43.1047 C.3       10 UNK        -0.0983 
     18 CA         17.4030  -27.5413  -42.6748 C.3       3 UNK         0.0876 
     19 N          17.9309  -26.2221  -43.0375 N.am      3 UNK        -0.4424 
     20 C          19.1892  -25.8079  -42.8433 C.2       2 UNK         0.4918 
     21 O          20.0869  -26.5083  -42.3749 O.2       2 UNK        -0.4875 
     22 CA         19.4949  -24.3798  -43.3212 C.3       2 UNK         0.0481 
     23 CB         20.8139  -23.8048  -42.7662 C.3       2 UNK        -0.1831 
     24 N          19.4050  -24.2200  -44.7802 N.am      2 UNK        -0.4498 
     25 C          20.0279  -24.8481  -45.7951 C.2       1 UNK         0.5027 
     26 O          19.7777  -24.5359  -46.9605 O.2       1 UNK        -0.4969 
     27 C          17.5536  -27.8299  -41.1680 C.2       3 UNK         0.5005 
     28 O          17.4060  -26.9163  -40.3517 O.2       3 UNK        -0.5279 
     29 N          17.8280  -29.1024  -40.8430 N.am      4 UNK        -0.4463 
     30 CA         18.1092  -29.6249  -39.4982 C.3       4 UNK         0.0283 
     31 CB         16.8902  -29.4651  -38.5637 C.3       4 UNK        -0.1875 
     32 C          19.4142  -29.0667  -38.8882 C.2       4 UNK         0.4949 
     33 O          19.5248  -28.9749  -37.6647 O.2       4 UNK        -0.5039 
     34 N          20.3787  -28.7091  -39.7462 N.am      5 UNK        -0.4663 
     35 CA         21.6819  -28.1540  -39.3899 C.3       5 UNK         0.0242 
     36 CB         21.5260  -26.6790  -38.9484 C.3       5 UNK        -0.1982 
     37 C          22.6469  -28.3399  -40.5759 C.2       5 UNK         0.5017 
     38 O          22.4940  -29.2978  -41.3402 O.2       5 UNK        -0.5012 
     39 N          23.6240  -27.4253  -40.6921 N.am      6 UNK        -0.4439 
     40 CA         24.5902  -27.2634  -41.7881 C.3       6 UNK         0.0297 
     41 CB         23.8751  -26.7444  -43.0502 C.3       6 UNK        -0.2006 
     42 C          25.4491  -28.5104  -42.0669 C.2       6 UNK         0.4892 
     43 O          25.7065  -28.8324  -43.2280 O.2       6 UNK        -0.5089 
     44 N          25.8562  -29.2041  -40.9931 N.am      7 UNK        -0.4243 
     45 CA         26.6579  -30.4389  -40.9410 C.3       7 UNK         0.0196 
     46 CB         28.0490  -30.2367  -41.5736 C.3       7 UNK        -0.2007 
     47 C          25.9677  -31.6917  -41.5161 C.2       7 UNK         0.5020 
     48 O          26.1971  -32.7837  -40.9973 O.2       7 UNK        -0.5147 
     49 N          25.1238  -31.5251  -42.5420 N.am      8 UNK        -0.4734 
     50 CA         24.3096  -32.5695  -43.1674 C.3       8 UNK         0.0238 
     51 CB         23.5949  -31.9880  -44.3981 C.3       8 UNK        -0.1912 
     52 C          23.2918  -33.1891  -42.1977 C.2       8 UNK         0.5038 
     53 O          23.1507  -34.4126  -42.1765 O.2       8 UNK        -0.5046 
     54 N          22.6348  -32.3339  -41.4052 N.am      9 UNK        -0.4200 
     55 CA         21.6894  -32.7095  -40.3447 C.3       9 UNK         0.0839 
     56 C          22.0534  -32.0696  -38.9736 C.2       9 UNK         0.5513 
     57 N          23.2525  -31.5284  -38.7897 N.am      9 UNK        -0.7519 
     58 O          21.2487  -32.0893  -38.0467 O.2       9 UNK        -0.4960 
     59 C59        20.2217  -32.4342  -40.7668 C.3       10 UNK        -0.0876 
     60 S60        19.6382  -33.5734  -42.0626 S.3       10 UNK        -0.2414 
     61 C61        18.0538  -32.7962  -42.5306 C.3       10 UNK         0.0169 
     62 H62        24.1862  -25.7066  -48.0358 H         1 UNK         0.0903 
     63 H63        24.2620  -23.9476  -47.9136 H         1 UNK         0.0903 
     64 H64        25.2225  -24.9515  -46.8236 H         1 UNK         0.0903 
     65 H65        22.3076  -26.5335  -47.1532 H         1 UNK         0.3096 
     66 H66        21.4072  -25.9691  -44.5362 H         1 UNK         0.1121 
     67 H67        19.4619  -27.4605  -45.1813 H         1 UNK         0.0849 
     68 H68        20.0299  -27.4572  -46.8311 H         1 UNK         0.0849 
     69 H69        20.3159  -29.9356  -47.1859 H         1 UNK         0.0865 
     70 H70        21.1971  -31.0380  -46.1647 H         1 UNK         0.0865 
     71 H71        20.2254  -31.9055  -44.0918 H         1 UNK         0.1346 
     72 H72        16.0217  -31.2963  -43.4295 H         1 UNK         0.1412 
     73 H73        18.0506  -29.1368  -46.5204 H         1 UNK         0.1426 
     74 H74        14.7602  -29.8410  -44.8466 H         1 UNK         0.0716 
     75 H75        15.4286  -29.4831  -46.4197 H         1 UNK         0.0716 
     76 H76        15.5171  -28.6581  -42.7502 H         1 UNK         0.0695 
     77 H77        15.3053  -26.9320  -42.6523 H         1 UNK         0.0695 
     78 H78        18.0117  -28.2726  -43.2103 H         1 UNK         0.0983 
     79 H79        17.2651  -25.5826  -43.4454 H         1 UNK         0.3095 
     80 H80        18.6980  -23.7586  -42.9091 H         1 UNK         0.0454 
     81 H81        20.8656  -23.9253  -41.6833 H         1 UNK         0.0851 
     82 H82        20.8922  -22.7378  -42.9737 H         1 UNK         0.0851 
     83 H83        21.6970  -24.2799  -43.1833 H         1 UNK         0.0851 
     84 H84        18.7462  -23.5068  -45.0594 H         1 UNK         0.2976 
     85 H85        17.9111  -29.7736  -41.5943 H         1 UNK         0.3116 
     86 H86        18.2662  -30.6949  -39.6192 H         1 UNK         0.0646 
     87 H87        16.7106  -28.4221  -38.3021 H         1 UNK         0.0847 
     88 H88        17.0419  -30.0082  -37.6301 H         1 UNK         0.0847 
     89 H89        15.9828  -29.8587  -39.0212 H         1 UNK         0.0847 
     90 H90        20.2335  -28.8228  -40.7412 H         1 UNK         0.3040 
     91 H91        22.0864  -28.7342  -38.5578 H         1 UNK         0.1015 
     92 H92        21.2031  -26.0465  -39.7769 H         1 UNK         0.0786 
     93 H93        22.4587  -26.2721  -38.5570 H         1 UNK         0.0786 
     94 H94        20.7886  -26.5749  -38.1526 H         1 UNK         0.0786 
     95 H95        23.6582  -26.7044  -39.9847 H         1 UNK         0.3172 
     96 H96        25.2889  -26.4889  -41.4684 H         1 UNK         0.0595 
     97 H97        23.1505  -27.4680  -43.4219 H         1 UNK         0.0839 
     98 H98        24.5804  -26.5418  -43.8571 H         1 UNK         0.0839 
     99 H99        23.3471  -25.8153  -42.8459 H         1 UNK         0.0839 
    100 H100       25.5545  -28.8559  -40.0936 H         1 UNK         0.2998 
    101 H101       26.8120  -30.6382  -39.8790 H         1 UNK         0.0822 
    102 H102       28.5704  -29.3914  -41.1244 H         1 UNK         0.0787 
    103 H103       28.6740  -31.1185  -41.4257 H         1 UNK         0.0787 
    104 H104       27.9889  -30.0620  -42.6482 H         1 UNK         0.0787 
    105 H105       25.0524  -30.5870  -42.9276 H         1 UNK         0.3055 
    106 H106       24.9810  -33.3652  -43.4975 H         1 UNK         0.1106 
    107 H107       22.9815  -32.7448  -44.8890 H         1 UNK         0.0828 
    108 H108       22.9381  -31.1604  -44.1261 H         1 UNK         0.0828 
    109 H109       24.3080  -31.6191  -45.1354 H         1 UNK         0.0828 
    110 H110       22.8028  -31.3371  -41.5018 H         1 UNK         0.2931 
    111 H111       21.7772  -33.7805  -40.1534 H         1 UNK         0.0412 
    112 H112       23.4839  -31.1461  -37.8866 H         1 UNK         0.3472 
    113 H113       23.9455  -31.5708  -39.5178 H         1 UNK         0.3472 
    114 H114       19.5474  -32.5619  -39.9190 H         1 UNK         0.0970 
    115 H115       20.1138  -31.4050  -41.1118 H         1 UNK         0.0970 
    116 H116       17.3922  -33.5913  -42.8770 H         1 UNK         0.0612 
    117 H117       17.5842  -32.3777  -41.6392 H         1 UNK         0.0612 
@<TRIPOS>BOND
     1    1    2 1    
     2    1   62 1    
     3    1   63 1    
     4    1   64 1    
     5    2    3 2    
     6    2    4 am   BACKBONE|DICT|INTERRES
     7    4    5 1    
     8    4   65 1    
     9    5    6 1    
    10    5   25 1    
    11    5   66 1    
    12    6    7 1    
    13    6   67 1    
    14    6   68 1    
    15    7    8 1    
    16    8    9 1    
    17    8   69 1    
    18    8   70 1    
    19    9   10 ar   
    20    9   14 ar   
    21   10   11 ar   
    22   10   71 1    
    23   11   12 ar   
    24   11   61 1    
    25   12   13 ar   
    26   12   72 1    
    27   13   14 ar   
    28   13   15 1    
    29   14   73 1    
    30   15   16 1    
    31   15   74 1    
    32   15   75 1    
    33   16   17 1    
    34   17   18 1    
    35   17   76 1    
    36   17   77 1    
    37   18   19 1    
    38   18   27 1    
    39   18   78 1    
    40   19   20 am   BACKBONE|DICT|INTERRES
    41   19   79 1    
    42   20   21 2    
    43   20   22 1    
    44   22   23 1    
    45   22   24 1    
    46   22   80 1    
    47   23   81 1    
    48   23   82 1    
    49   23   83 1    
    50   24   25 am   BACKBONE|DICT|INTERRES
    51   24   84 1    
    52   25   26 2    
    53   27   28 2    
    54   27   29 am   BACKBONE|DICT|INTERRES
    55   29   30 1    
    56   29   85 1    
    57   30   31 1    
    58   30   32 1    
    59   30   86 1    
    60   31   87 1    
    61   31   88 1    
    62   31   89 1    
    63   32   33 2    
    64   32   34 am   BACKBONE|DICT|INTERRES
    65   34   35 1    
    66   34   90 1    
    67   35   36 1    
    68   35   37 1    
    69   35   91 1    
    70   36   92 1    
    71   36   93 1    
    72   36   94 1    
    73   37   38 2    
    74   37   39 am   BACKBONE|DICT|INTERRES
    75   39   40 1    
    76   39   95 1    
    77   40   41 1    
    78   40   42 1    
    79   40   96 1    
    80   41   97 1    
    81   41   98 1    
    82   41   99 1    
    83   42   43 2    
    84   42   44 am   BACKBONE|DICT|INTERRES
    85   44   45 1    
    86   44  100 1    
    87   45   46 1    
    88   45   47 1    
    89   45  101 1    
    90   46  102 1    
    91   46  103 1    
    92   46  104 1    
    93   47   48 2    
    94   47   49 am   BACKBONE|DICT|INTERRES
    95   49   50 1    
    96   49  105 1    
    97   50   51 1    
    98   50   52 1    
    99   50  106 1    
   100   51  107 1    
   101   51  108 1    
   102   51  109 1    
   103   52   53 2    
   104   52   54 am   BACKBONE|DICT|INTERRES
   105   54   55 1    
   106   54  110 1    
   107   55   56 1    
   108   55   59 1    
   109   55  111 1    
   110   56   57 am   BACKBONE|DICT|INTERRES
   111   56   58 2    
   112   57  112 1    
   113   57  113 1    
   114   59   60 1    
   115   59  114 1    
   116   59  115 1    
   117   60   61 1    
   118   61  116 1    
   119   61  117 1    
@<TRIPOS>SUBSTRUCTURE
     1 UNK         1 GROUP             0       ****    0 ROOT    
