@<TRIPOS>MOLECULE
3R8
117   119    1
SMALL
USER_CHARGES


@<TRIPOS>ATOM
      1 CA         22.1331  -23.2441  -40.6130 C.3       0 UNK        -0.2013 
      2 C          20.7668  -23.6265  -41.1629 C.2       0 UNK         0.4866 
      3 O          19.8919  -22.7682  -41.2854 O.2       0 UNK        -0.5176 
      4 N          20.5770  -24.9106  -41.4852 N.am      1 UNK        -0.4884 
      5 CA         19.3639  -25.4643  -42.0919 C.3       1 UNK         0.0853 
      6 C6         19.2770  -26.9931  -41.8421 C.3       10 UNK        -0.0849 
      7 S7         17.5544  -27.5486  -41.6448 S.3       10 UNK        -0.2776 
      8 C8         17.7911  -29.3527  -41.5004 C.3       10 UNK         0.0316 
      9 C9         18.1250  -30.0717  -42.8085 C.ar      10 UNK        -0.0863 
     10 C10        18.8107  -31.2885  -42.7489 C.ar      10 UNK        -0.1009 
     11 C11        19.0763  -32.0184  -43.9111 C.ar      10 UNK        -0.0712 
     12 C12        18.6681  -31.5159  -45.1484 C.ar      10 UNK        -0.0894 
     13 C13        18.0050  -30.2874  -45.2308 C.ar      10 UNK        -0.0745 
     14 C14        17.7216  -29.5814  -44.0576 C.ar      10 UNK        -0.0972 
     15 C15        17.5735  -29.7172  -46.5776 C.3       10 UNK         0.0209 
     16 S16        18.8755  -29.7436  -47.8583 S.3       10 UNK        -0.2568 
     17 C17        20.3462  -29.0606  -47.0170 C.3       10 UNK        -0.0983 
     18 CA         20.4564  -27.5190  -47.1356 C.3       3 UNK         0.0876 
     19 N          19.4248  -26.8542  -46.3286 N.am      3 UNK        -0.4424 
     20 C          18.7888  -25.7251  -46.6645 C.2       2 UNK         0.4918 
     21 O          18.9635  -25.1317  -47.7286 O.2       2 UNK        -0.4875 
     22 CA         17.8126  -25.1343  -45.6254 C.3       2 UNK         0.0481 
     23 CB         16.3719  -25.5781  -45.9248 C.3       2 UNK        -0.1831 
     24 N          18.1306  -25.4358  -44.2212 N.am      2 UNK        -0.4498 
     25 C          19.2718  -25.1132  -43.5950 C.2       1 UNK         0.5027 
     26 O          20.2290  -24.5933  -44.1733 O.2       1 UNK        -0.4969 
     27 C          21.8834  -27.0401  -46.7685 C.2       3 UNK         0.5005 
     28 O          22.8498  -27.6139  -47.2726 O.2       3 UNK        -0.5279 
     29 N          22.0084  -26.0316  -45.8886 N.am      4 UNK        -0.4463 
     30 CA         23.2454  -25.5054  -45.2912 C.3       4 UNK         0.0283 
     31 CB         24.2261  -24.9761  -46.3597 C.3       4 UNK        -0.1875 
     32 C          23.9098  -26.4759  -44.2929 C.2       4 UNK         0.4949 
     33 O          25.0858  -26.3055  -43.9680 O.2       4 UNK        -0.5039 
     34 N          23.1441  -27.4586  -43.7992 N.am      5 UNK        -0.4663 
     35 CA         23.5377  -28.3677  -42.7233 C.3       5 UNK         0.0242 
     36 CB         22.6017  -29.5885  -42.7359 C.3       5 UNK        -0.1982 
     37 C          23.4685  -27.6486  -41.3668 C.2       5 UNK         0.5017 
     38 O          22.5910  -26.8049  -41.1738 O.2       5 UNK        -0.5012 
     39 N          24.3716  -28.0025  -40.4440 N.am      6 UNK        -0.4439 
     40 CA         24.4302  -27.4257  -39.0947 C.3       6 UNK         0.0297 
     41 CB         25.7970  -27.7437  -38.4667 C.3       6 UNK        -0.2006 
     42 C          23.2930  -27.9023  -38.1707 C.2       6 UNK         0.4892 
     43 O          22.9425  -27.1894  -37.2297 O.2       6 UNK        -0.5089 
     44 N          22.7511  -29.0917  -38.4518 N.am      7 UNK        -0.4243 
     45 CA         21.6585  -29.7493  -37.7422 C.3       7 UNK         0.0196 
     46 CB         22.1302  -30.2601  -36.3601 C.3       7 UNK        -0.2007 
     47 C          21.1229  -30.8506  -38.6706 C.2       7 UNK         0.5020 
     48 O          20.9955  -30.6104  -39.8723 O.2       7 UNK        -0.5147 
     49 N          20.8446  -32.0422  -38.1267 N.am      8 UNK        -0.4734 
     50 CA         20.5304  -33.2438  -38.9029 C.3       8 UNK         0.0238 
     51 CB         19.9910  -34.3318  -37.9602 C.3       8 UNK        -0.1912 
     52 C          21.7724  -33.7489  -39.6595 C.2       8 UNK         0.5038 
     53 O          22.8769  -33.7111  -39.1102 O.2       8 UNK        -0.5046 
     54 N          21.5640  -34.2116  -40.8954 N.am      9 UNK        -0.4200 
     55 CA         22.6134  -34.7261  -41.7868 C.3       9 UNK         0.0839 
     56 C          23.1555  -36.1056  -41.3259 C.2       9 UNK         0.5513 
     57 N          24.4301  -36.3812  -41.5646 N.am      9 UNK        -0.7519 
     58 O          22.4238  -36.9401  -40.7966 O.2       9 UNK        -0.4960 
     59 C59        22.1308  -34.7865  -43.2598 C.3       10 UNK        -0.0876 
     60 S60        21.5906  -33.1558  -43.8785 S.3       10 UNK        -0.2414 
     61 C61        19.7852  -33.3588  -43.8239 C.3       10 UNK         0.0169 
     62 H62        22.6049  -22.5065  -41.2615 H         1 UNK         0.0903 
     63 H63        22.0303  -22.8102  -39.6188 H         1 UNK         0.0903 
     64 H64        22.7976  -24.1052  -40.5397 H         1 UNK         0.0903 
     65 H65        21.3475  -25.5711  -41.3728 H         1 UNK         0.3096 
     66 H66        18.5186  -24.9767  -41.6002 H         1 UNK         0.1121 
     67 H67        19.7720  -27.5661  -42.6286 H         1 UNK         0.0849 
     68 H68        19.7950  -27.2581  -40.9180 H         1 UNK         0.0849 
     69 H69        18.5686  -29.5430  -40.7583 H         1 UNK         0.0865 
     70 H70        16.8740  -29.7870  -41.1007 H         1 UNK         0.0865 
     71 H71        19.1285  -31.6774  -41.7910 H         1 UNK         0.1346 
     72 H72        18.8770  -32.0755  -46.0499 H         1 UNK         0.1412 
     73 H73        17.1733  -28.6527  -44.1223 H         1 UNK         0.1426 
     74 H74        17.2273  -28.6898  -46.4686 H         1 UNK         0.0716 
     75 H75        16.7178  -30.2881  -46.9399 H         1 UNK         0.0716 
     76 H76        21.1988  -29.5475  -47.4940 H         1 UNK         0.0695 
     77 H77        20.3837  -29.3746  -45.9734 H         1 UNK         0.0695 
     78 H78        20.3176  -27.2547  -48.1863 H         1 UNK         0.0983 
     79 H79        19.2093  -27.2797  -45.4402 H         1 UNK         0.3095 
     80 H80        17.8564  -24.0488  -45.7350 H         1 UNK         0.0454 
     81 H81        16.2292  -26.6444  -45.7507 H         1 UNK         0.0851 
     82 H82        16.1077  -25.3789  -46.9645 H         1 UNK         0.0851 
     83 H83        15.6551  -25.0399  -45.3046 H         1 UNK         0.0851 
     84 H84        17.4025  -25.8805  -43.6781 H         1 UNK         0.2976 
     85 H85        21.1636  -25.6002  -45.5222 H         1 UNK         0.3116 
     86 H86        22.9345  -24.6473  -44.6935 H         1 UNK         0.0646 
     87 H87        24.6777  -25.7836  -46.9361 H         1 UNK         0.0847 
     88 H88        25.0416  -24.4190  -45.8969 H         1 UNK         0.0847 
     89 H89        23.7295  -24.3008  -47.0561 H         1 UNK         0.0847 
     90 H90        22.1827  -27.5010  -44.0971 H         1 UNK         0.3040 
     91 H91        24.5616  -28.7024  -42.9042 H         1 UNK         0.1015 
     92 H92        22.6112  -30.0896  -43.7042 H         1 UNK         0.0786 
     93 H93        21.5693  -29.3159  -42.5118 H         1 UNK         0.0786 
     94 H94        22.9062  -30.3252  -41.9912 H         1 UNK         0.0786 
     95 H95        25.0655  -28.7001  -40.6740 H         1 UNK         0.3172 
     96 H96        24.3446  -26.3404  -39.1843 H         1 UNK         0.0595 
     97 H97        25.9534  -28.8178  -38.3579 H         1 UNK         0.0839 
     98 H98        25.8814  -27.3013  -37.4730 H         1 UNK         0.0839 
     99 H99        26.6140  -27.3426  -39.0669 H         1 UNK         0.0839 
    100 H100       23.0518  -29.5709  -39.2898 H         1 UNK         0.2998 
    101 H101       20.8520  -29.0271  -37.6003 H         1 UNK         0.0822 
    102 H102       22.5231  -29.4485  -35.7479 H         1 UNK         0.0787 
    103 H103       21.3077  -30.7013  -35.7960 H         1 UNK         0.0787 
    104 H104       22.9169  -31.0102  -36.4535 H         1 UNK         0.0787 
    105 H105       21.0168  -32.1714  -37.1404 H         1 UNK         0.3055 
    106 H106       19.7513  -32.9891  -39.6250 H         1 UNK         0.1106 
    107 H107       19.7259  -35.2327  -38.5154 H         1 UNK         0.0828 
    108 H108       20.7290  -34.6187  -37.2098 H         1 UNK         0.0828 
    109 H109       19.0935  -33.9978  -37.4392 H         1 UNK         0.0828 
    110 H110       20.6248  -34.2437  -41.2582 H         1 UNK         0.2931 
    111 H111       23.4428  -34.0163  -41.7431 H         1 UNK         0.0412 
    112 H112       25.0359  -35.7067  -42.0066 H         1 UNK         0.3472 
    113 H113       24.7985  -37.2782  -41.2877 H         1 UNK         0.3472 
    114 H114       22.9407  -35.1286  -43.9071 H         1 UNK         0.0970 
    115 H115       21.3272  -35.5162  -43.3779 H         1 UNK         0.0970 
    116 H116       19.4725  -34.0098  -44.6419 H         1 UNK         0.0612 
    117 H117       19.4939  -33.8631  -42.9020 H         1 UNK         0.0612 
@<TRIPOS>BOND
     1    1    2 1    
     2    1   62 1    
     3    1   63 1    
     4    1   64 1    
     5    2    3 2    
     6    2    4 am   BACKBONE|DICT|INTERRES
     7    4    5 1    
     8    4   65 1    
     9    5    6 1    
    10    5   25 1    
    11    5   66 1    
    12    6    7 1    
    13    6   67 1    
    14    6   68 1    
    15    7    8 1    
    16    8    9 1    
    17    8   69 1    
    18    8   70 1    
    19    9   10 ar   
    20    9   14 ar   
    21   10   11 ar   
    22   10   71 1    
    23   11   12 ar   
    24   11   61 1    
    25   12   13 ar   
    26   12   72 1    
    27   13   14 ar   
    28   13   15 1    
    29   14   73 1    
    30   15   16 1    
    31   15   74 1    
    32   15   75 1    
    33   16   17 1    
    34   17   18 1    
    35   17   76 1    
    36   17   77 1    
    37   18   19 1    
    38   18   27 1    
    39   18   78 1    
    40   19   20 am   BACKBONE|DICT|INTERRES
    41   19   79 1    
    42   20   21 2    
    43   20   22 1    
    44   22   23 1    
    45   22   24 1    
    46   22   80 1    
    47   23   81 1    
    48   23   82 1    
    49   23   83 1    
    50   24   25 am   BACKBONE|DICT|INTERRES
    51   24   84 1    
    52   25   26 2    
    53   27   28 2    
    54   27   29 am   BACKBONE|DICT|INTERRES
    55   29   30 1    
    56   29   85 1    
    57   30   31 1    
    58   30   32 1    
    59   30   86 1    
    60   31   87 1    
    61   31   88 1    
    62   31   89 1    
    63   32   33 2    
    64   32   34 am   BACKBONE|DICT|INTERRES
    65   34   35 1    
    66   34   90 1    
    67   35   36 1    
    68   35   37 1    
    69   35   91 1    
    70   36   92 1    
    71   36   93 1    
    72   36   94 1    
    73   37   38 2    
    74   37   39 am   BACKBONE|DICT|INTERRES
    75   39   40 1    
    76   39   95 1    
    77   40   41 1    
    78   40   42 1    
    79   40   96 1    
    80   41   97 1    
    81   41   98 1    
    82   41   99 1    
    83   42   43 2    
    84   42   44 am   BACKBONE|DICT|INTERRES
    85   44   45 1    
    86   44  100 1    
    87   45   46 1    
    88   45   47 1    
    89   45  101 1    
    90   46  102 1    
    91   46  103 1    
    92   46  104 1    
    93   47   48 2    
    94   47   49 am   BACKBONE|DICT|INTERRES
    95   49   50 1    
    96   49  105 1    
    97   50   51 1    
    98   50   52 1    
    99   50  106 1    
   100   51  107 1    
   101   51  108 1    
   102   51  109 1    
   103   52   53 2    
   104   52   54 am   BACKBONE|DICT|INTERRES
   105   54   55 1    
   106   54  110 1    
   107   55   56 1    
   108   55   59 1    
   109   55  111 1    
   110   56   57 am   BACKBONE|DICT|INTERRES
   111   56   58 2    
   112   57  112 1    
   113   57  113 1    
   114   59   60 1    
   115   59  114 1    
   116   59  115 1    
   117   60   61 1    
   118   61  116 1    
   119   61  117 1    
@<TRIPOS>SUBSTRUCTURE
     1 UNK         1 GROUP             0       ****    0 ROOT    
