@<TRIPOS>MOLECULE
3R8
117   119    1
SMALL
USER_CHARGES


@<TRIPOS>ATOM
      1 CA         16.4102  -22.1421  -46.5249 C.3       0 UNK        -0.2013 
      2 C          17.2778  -23.3222  -46.9352 C.2       0 UNK         0.4866 
      3 O          18.3682  -23.1245  -47.4708 O.2       0 UNK        -0.5176 
      4 N          16.8070  -24.5497  -46.6802 N.am      1 UNK        -0.4884 
      5 CA         17.4872  -25.8101  -47.0150 C.3       1 UNK         0.0853 
      6 C6         16.4810  -26.9282  -47.3905 C.3       10 UNK        -0.0849 
      7 S7         15.1367  -27.1873  -46.1803 S.3       10 UNK        -0.2776 
      8 C8         14.9534  -28.9983  -46.2261 C.3       10 UNK         0.0316 
      9 C9         15.8800  -29.6649  -45.2234 C.ar      10 UNK        -0.0863 
     10 C10        17.1707  -30.0545  -45.5915 C.ar      10 UNK        -0.1009 
     11 C11        18.0336  -30.6249  -44.6520 C.ar      10 UNK        -0.0712 
     12 C12        17.5863  -30.8276  -43.3419 C.ar      10 UNK        -0.0894 
     13 C13        16.2963  -30.4448  -42.9635 C.ar      10 UNK        -0.0745 
     14 C14        15.4471  -29.8682  -43.9111 C.ar      10 UNK        -0.0972 
     15 C15        15.8197  -30.6164  -41.5266 C.3       10 UNK         0.0209 
     16 S16        16.8781  -29.7683  -40.3051 S.3       10 UNK        -0.2568 
     17 C17        17.1478  -28.1184  -41.0464 C.3       10 UNK        -0.0983 
     18 CA         18.6328  -27.9288  -41.4516 C.3       3 UNK         0.0876 
     19 N          18.8019  -26.9036  -42.4853 N.am      3 UNK        -0.4424 
     20 C          19.9648  -26.6239  -43.0907 C.2       2 UNK         0.4918 
     21 O          21.0105  -27.2465  -42.8817 O.2       2 UNK        -0.4875 
     22 CA         19.9588  -25.4197  -44.0527 C.3       2 UNK         0.0481 
     23 CB         21.2822  -25.2632  -44.8329 C.3       2 UNK        -0.1831 
     24 N          18.8174  -25.3888  -44.9768 N.am      2 UNK        -0.4498 
     25 C          18.5555  -26.2434  -45.9798 C.2       1 UNK         0.5027 
     26 O          19.1631  -27.3009  -46.1513 O.2       1 UNK        -0.4969 
     27 C          19.5083  -27.6211  -40.2180 C.2       3 UNK         0.5005 
     28 O          19.3807  -26.5380  -39.6413 O.2       3 UNK        -0.5279 
     29 N          20.3794  -28.5729  -39.8556 N.am      4 UNK        -0.4463 
     30 CA         21.3177  -28.5486  -38.7275 C.3       4 UNK         0.0283 
     31 CB         20.5644  -28.4844  -37.3820 C.3       4 UNK        -0.1875 
     32 C          22.4242  -27.4793  -38.8337 C.2       4 UNK         0.4949 
     33 O          23.0949  -27.2098  -37.8364 O.2       4 UNK        -0.5039 
     34 N          22.6346  -26.9108  -40.0311 N.am      5 UNK        -0.4663 
     35 CA         23.7244  -25.9689  -40.3173 C.3       5 UNK         0.0242 
     36 CB         23.4322  -25.2472  -41.6395 C.3       5 UNK        -0.1982 
     37 C          25.1024  -26.6529  -40.3803 C.2       5 UNK         0.5017 
     38 O          26.1210  -25.9892  -40.1842 O.2       5 UNK        -0.5012 
     39 N          25.1012  -27.9625  -40.6435 N.am      6 UNK        -0.4439 
     40 CA         26.2439  -28.8616  -40.6138 C.3       6 UNK         0.0297 
     41 CB         26.8505  -28.9735  -42.0234 C.3       6 UNK        -0.2006 
     42 C          25.7350  -30.2193  -40.1200 C.2       6 UNK         0.4892 
     43 O          24.5346  -30.4913  -40.2131 O.2       6 UNK        -0.5089 
     44 N          26.6562  -31.0614  -39.6363 N.am      7 UNK        -0.4243 
     45 CA         26.3648  -32.4091  -39.1321 C.3       7 UNK         0.0196 
     46 CB         27.6238  -32.9781  -38.4574 C.3       7 UNK        -0.2007 
     47 C          25.8439  -33.3832  -40.2063 C.2       7 UNK         0.5020 
     48 O          25.1804  -34.3606  -39.8597 O.2       7 UNK        -0.5147 
     49 N          26.1532  -33.1081  -41.4815 N.am      8 UNK        -0.4734 
     50 CA         25.7122  -33.8946  -42.6343 C.3       8 UNK         0.0238 
     51 CB         26.5172  -33.4763  -43.8758 C.3       8 UNK        -0.1912 
     52 C          24.2025  -33.7847  -42.9093 C.2       8 UNK         0.5038 
     53 O          23.5959  -34.7888  -43.2842 O.2       8 UNK        -0.5046 
     54 N          23.6303  -32.5867  -42.7260 N.am      9 UNK        -0.4200 
     55 CA         22.2106  -32.2806  -42.9431 C.3       9 UNK         0.0839 
     56 C          21.8667  -30.8696  -42.4051 C.2       9 UNK         0.5513 
     57 N          22.5333  -29.8264  -42.8866 N.am      9 UNK        -0.7519 
     58 O          20.9695  -30.7151  -41.5807 O.2       9 UNK        -0.4960 
     59 C59        21.7586  -32.4507  -44.4268 C.3       10 UNK        -0.0876 
     60 S60        19.9521  -32.6443  -44.5867 S.3       10 UNK        -0.2414 
     61 C61        19.4706  -30.9451  -45.0351 C.3       10 UNK         0.0169 
     62 H62        16.1599  -21.5399  -47.3979 H         1 UNK         0.0903 
     63 H63        15.4796  -22.4628  -46.0568 H         1 UNK         0.0903 
     64 H64        16.9457  -21.5098  -45.8173 H         1 UNK         0.0903 
     65 H65        15.9045  -24.6616  -46.2368 H         1 UNK         0.3096 
     66 H66        18.0704  -25.6290  -47.9212 H         1 UNK         0.1121 
     67 H67        16.0060  -26.6688  -48.3379 H         1 UNK         0.0849 
     68 H68        17.0043  -27.8642  -47.5871 H         1 UNK         0.0849 
     69 H69        13.9174  -29.2513  -45.9950 H         1 UNK         0.0865 
     70 H70        15.1351  -29.3758  -47.2337 H         1 UNK         0.0865 
     71 H71        17.5176  -29.8839  -46.6008 H         1 UNK         0.1346 
     72 H72        18.2557  -31.2525  -42.6058 H         1 UNK         0.1412 
     73 H73        14.4524  -29.5551  -43.6236 H         1 UNK         0.1426 
     74 H74        15.7871  -31.6800  -41.2872 H         1 UNK         0.0716 
     75 H75        14.8002  -30.2452  -41.4112 H         1 UNK         0.0716 
     76 H76        16.8230  -27.3525  -40.3392 H         1 UNK         0.0695 
     77 H77        16.4974  -28.0015  -41.9135 H         1 UNK         0.0695 
     78 H78        18.9868  -28.8574  -41.9037 H         1 UNK         0.0983 
     79 H79        17.9966  -26.3337  -42.6956 H         1 UNK         0.3095 
     80 H80        19.8530  -24.5361  -43.4220 H         1 UNK         0.0454 
     81 H81        21.5238  -26.1591  -45.4059 H         1 UNK         0.0851 
     82 H82        22.1160  -25.0758  -44.1593 H         1 UNK         0.0851 
     83 H83        21.2389  -24.4231  -45.5259 H         1 UNK         0.0851 
     84 H84        18.2415  -24.5599  -44.9328 H         1 UNK         0.2976 
     85 H85        20.4504  -29.4040  -40.4445 H         1 UNK         0.3116 
     86 H86        21.8369  -29.5077  -38.7645 H         1 UNK         0.0646 
     87 H87        20.0788  -27.5193  -37.2346 H         1 UNK         0.0847 
     88 H88        21.2454  -28.6344  -36.5434 H         1 UNK         0.0847 
     89 H89        19.7998  -29.2585  -37.3175 H         1 UNK         0.0847 
     90 H90        22.0263  -27.1583  -40.8015 H         1 UNK         0.3040 
     91 H91        23.7588  -25.2260  -39.5171 H         1 UNK         0.1015 
     92 H92        23.4470  -25.9431  -42.4789 H         1 UNK         0.0786 
     93 H93        24.1811  -24.4796  -41.8395 H         1 UNK         0.0786 
     94 H94        22.4591  -24.7560  -41.6203 H         1 UNK         0.0786 
     95 H95        24.2121  -28.4415  -40.7253 H         1 UNK         0.3172 
     96 H96        26.9925  -28.4897  -39.9109 H         1 UNK         0.0595 
     97 H97        27.7164  -29.6363  -42.0300 H         1 UNK         0.0839 
     98 H98        27.1865  -28.0019  -42.3861 H         1 UNK         0.0839 
     99 H99        26.1302  -29.3658  -42.7427 H         1 UNK         0.0839 
    100 H100       27.6206  -30.7621  -39.5997 H         1 UNK         0.2998 
    101 H101       25.5823  -32.3182  -38.3755 H         1 UNK         0.0822 
    102 H102       27.4315  -33.9696  -38.0447 H         1 UNK         0.0787 
    103 H103       28.4514  -33.0736  -39.1615 H         1 UNK         0.0787 
    104 H104       27.9536  -32.3457  -37.6328 H         1 UNK         0.0787 
    105 H105       26.7204  -32.2945  -41.6684 H         1 UNK         0.3055 
    106 H106       25.9286  -34.9454  -42.4268 H         1 UNK         0.1106 
    107 H107       26.2211  -34.0620  -44.7474 H         1 UNK         0.0828 
    108 H108       26.3657  -32.4250  -44.1237 H         1 UNK         0.0828 
    109 H109       27.5854  -33.6369  -43.7292 H         1 UNK         0.0828 
    110 H110       24.1782  -31.8309  -42.3365 H         1 UNK         0.2931 
    111 H111       21.6552  -32.9968  -42.3337 H         1 UNK         0.0412 
    112 H112       23.2433  -29.9426  -43.5907 H         1 UNK         0.3472 
    113 H113       22.2169  -28.8956  -42.6480 H         1 UNK         0.3472 
    114 H114       22.1944  -33.3473  -44.8663 H         1 UNK         0.0970 
    115 H115       22.1119  -31.6284  -45.0516 H         1 UNK         0.0970 
    116 H116       19.6309  -30.8099  -46.1058 H         1 UNK         0.0612 
    117 H117       20.1141  -30.2205  -44.5364 H         1 UNK         0.0612 
@<TRIPOS>BOND
     1    1    2 1    
     2    1   62 1    
     3    1   63 1    
     4    1   64 1    
     5    2    3 2    
     6    2    4 am   BACKBONE|DICT|INTERRES
     7    4    5 1    
     8    4   65 1    
     9    5    6 1    
    10    5   25 1    
    11    5   66 1    
    12    6    7 1    
    13    6   67 1    
    14    6   68 1    
    15    7    8 1    
    16    8    9 1    
    17    8   69 1    
    18    8   70 1    
    19    9   10 ar   
    20    9   14 ar   
    21   10   11 ar   
    22   10   71 1    
    23   11   12 ar   
    24   11   61 1    
    25   12   13 ar   
    26   12   72 1    
    27   13   14 ar   
    28   13   15 1    
    29   14   73 1    
    30   15   16 1    
    31   15   74 1    
    32   15   75 1    
    33   16   17 1    
    34   17   18 1    
    35   17   76 1    
    36   17   77 1    
    37   18   19 1    
    38   18   27 1    
    39   18   78 1    
    40   19   20 am   BACKBONE|DICT|INTERRES
    41   19   79 1    
    42   20   21 2    
    43   20   22 1    
    44   22   23 1    
    45   22   24 1    
    46   22   80 1    
    47   23   81 1    
    48   23   82 1    
    49   23   83 1    
    50   24   25 am   BACKBONE|DICT|INTERRES
    51   24   84 1    
    52   25   26 2    
    53   27   28 2    
    54   27   29 am   BACKBONE|DICT|INTERRES
    55   29   30 1    
    56   29   85 1    
    57   30   31 1    
    58   30   32 1    
    59   30   86 1    
    60   31   87 1    
    61   31   88 1    
    62   31   89 1    
    63   32   33 2    
    64   32   34 am   BACKBONE|DICT|INTERRES
    65   34   35 1    
    66   34   90 1    
    67   35   36 1    
    68   35   37 1    
    69   35   91 1    
    70   36   92 1    
    71   36   93 1    
    72   36   94 1    
    73   37   38 2    
    74   37   39 am   BACKBONE|DICT|INTERRES
    75   39   40 1    
    76   39   95 1    
    77   40   41 1    
    78   40   42 1    
    79   40   96 1    
    80   41   97 1    
    81   41   98 1    
    82   41   99 1    
    83   42   43 2    
    84   42   44 am   BACKBONE|DICT|INTERRES
    85   44   45 1    
    86   44  100 1    
    87   45   46 1    
    88   45   47 1    
    89   45  101 1    
    90   46  102 1    
    91   46  103 1    
    92   46  104 1    
    93   47   48 2    
    94   47   49 am   BACKBONE|DICT|INTERRES
    95   49   50 1    
    96   49  105 1    
    97   50   51 1    
    98   50   52 1    
    99   50  106 1    
   100   51  107 1    
   101   51  108 1    
   102   51  109 1    
   103   52   53 2    
   104   52   54 am   BACKBONE|DICT|INTERRES
   105   54   55 1    
   106   54  110 1    
   107   55   56 1    
   108   55   59 1    
   109   55  111 1    
   110   56   57 am   BACKBONE|DICT|INTERRES
   111   56   58 2    
   112   57  112 1    
   113   57  113 1    
   114   59   60 1    
   115   59  114 1    
   116   59  115 1    
   117   60   61 1    
   118   61  116 1    
   119   61  117 1    
@<TRIPOS>SUBSTRUCTURE
     1 UNK         1 GROUP             0       ****    0 ROOT    
