@<TRIPOS>MOLECULE
3R8
117   119    1
SMALL
USER_CHARGES


@<TRIPOS>ATOM
      1 CA         16.3072  -26.1586  -40.0450 C.3       0 UNK        -0.2013 
      2 C          15.6485  -27.5287  -39.8960 C.2       0 UNK         0.4866 
      3 O          15.1291  -27.8300  -38.8233 O.2       0 UNK        -0.5176 
      4 N          15.6233  -28.3871  -40.9267 N.am      1 UNK        -0.4884 
      5 CA         16.2590  -28.2329  -42.2420 C.3       1 UNK         0.0853 
      6 C6         15.7615  -29.3305  -43.2137 C.3       10 UNK        -0.0849 
      7 S7         15.9536  -28.8692  -44.9698 S.3       10 UNK        -0.2776 
      8 C8         16.7572  -30.3484  -45.6658 C.3       10 UNK         0.0316 
      9 C9         18.2726  -30.2857  -45.5434 C.ar      10 UNK        -0.0863 
     10 C10        18.9095  -30.7064  -44.3735 C.ar      10 UNK        -0.1009 
     11 C11        20.3023  -30.6639  -44.2679 C.ar      10 UNK        -0.0712 
     12 C12        21.0632  -30.2031  -45.3455 C.ar      10 UNK        -0.0894 
     13 C13        20.4375  -29.7794  -46.5205 C.ar      10 UNK        -0.0745 
     14 C14        19.0430  -29.8206  -46.6129 C.ar      10 UNK        -0.0972 
     15 C15        21.2599  -29.2868  -47.6993 C.3       10 UNK         0.0209 
     16 S16        21.3701  -27.4720  -47.7259 S.3       10 UNK        -0.2568 
     17 C17        22.8006  -27.1480  -46.6422 C.3       10 UNK        -0.0983 
     18 CA         22.4739  -26.1314  -45.5128 C.3       3 UNK         0.0876 
     19 N          21.7152  -26.7359  -44.4125 N.am      3 UNK        -0.4424 
     20 C          20.4070  -26.5815  -44.1868 C.2       2 UNK         0.4918 
     21 O          19.6323  -25.9543  -44.9128 O.2       2 UNK        -0.4875 
     22 CA         19.9037  -27.1721  -42.8682 C.3       2 UNK         0.0481 
     23 CB         20.2302  -26.2209  -41.6988 C.3       2 UNK        -0.1831 
     24 N          18.4645  -27.3978  -42.9232 N.am      2 UNK        -0.4498 
     25 C          17.7972  -28.2266  -42.1132 C.2       1 UNK         0.5027 
     26 O          18.3417  -28.9489  -41.2711 O.2       1 UNK        -0.4969 
     27 C          23.7321  -25.4352  -44.9455 C.2       3 UNK         0.5005 
     28 O          24.7675  -25.3935  -45.6128 O.2       3 UNK        -0.5279 
     29 N          23.6333  -24.9079  -43.7131 N.am      4 UNK        -0.4463 
     30 CA         24.6433  -24.1815  -42.9234 C.3       4 UNK         0.0283 
     31 CB         25.0974  -22.8898  -43.6310 C.3       4 UNK        -0.1875 
     32 C          25.8531  -25.0285  -42.4865 C.2       4 UNK         0.4949 
     33 O          26.2109  -25.0053  -41.3092 O.2       4 UNK        -0.5039 
     34 N          26.4455  -25.7766  -43.4245 N.am      5 UNK        -0.4663 
     35 CA         27.5315  -26.7345  -43.1909 C.3       5 UNK         0.0242 
     36 CB         28.1845  -27.0840  -44.5379 C.3       5 UNK        -0.1982 
     37 C          27.0611  -28.0130  -42.4722 C.2       5 UNK         0.5017 
     38 O          27.8841  -28.7144  -41.8830 O.2       5 UNK        -0.5012 
     39 N          25.7536  -28.2834  -42.5290 N.am      6 UNK        -0.4439 
     40 CA         25.0526  -29.3459  -41.8239 C.3       6 UNK         0.0297 
     41 CB         24.9602  -30.5932  -42.7194 C.3       6 UNK        -0.2006 
     42 C          23.6591  -28.8182  -41.4731 C.2       6 UNK         0.4892 
     43 O          23.1314  -27.9705  -42.2031 O.2       6 UNK        -0.5089 
     44 N          23.0812  -29.3550  -40.3946 N.am      7 UNK        -0.4243 
     45 CA         21.7440  -29.0391  -39.9045 C.3       7 UNK         0.0196 
     46 CB         21.8135  -27.8482  -38.9322 C.3       7 UNK        -0.2007 
     47 C          21.1526  -30.2732  -39.2180 C.2       7 UNK         0.5020 
     48 O          21.9092  -31.0823  -38.6761 O.2       7 UNK        -0.5147 
     49 N          19.8155  -30.3736  -39.2399 N.am      8 UNK        -0.4734 
     50 CA         18.9943  -31.4301  -38.6295 C.3       8 UNK         0.0238 
     51 CB         19.1006  -31.3889  -37.0896 C.3       8 UNK        -0.1912 
     52 C          19.2722  -32.8280  -39.2186 C.2       8 UNK         0.5038 
     53 O          19.3488  -33.8115  -38.4791 O.2       8 UNK        -0.5046 
     54 N          19.4266  -32.8766  -40.5468 N.am      9 UNK        -0.4200 
     55 CA         19.6541  -34.0902  -41.3429 C.3       9 UNK         0.0839 
     56 C          18.4440  -35.0624  -41.2963 C.2       9 UNK         0.5513 
     57 N          18.6943  -36.3643  -41.2911 N.am      9 UNK        -0.7519 
     58 O          17.2869  -34.6472  -41.3122 O.2       9 UNK        -0.4960 
     59 C59        20.0105  -33.7420  -42.8119 C.3       10 UNK        -0.0876 
     60 S60        21.5616  -32.7905  -42.9680 S.3       10 UNK        -0.2414 
     61 C61        20.9846  -31.0645  -42.9725 C.3       10 UNK         0.0169 
     62 H62        15.9669  -25.4894  -39.2549 H         1 UNK         0.0903 
     63 H63        16.0605  -25.6867  -40.9948 H         1 UNK         0.0903 
     64 H64        17.3902  -26.2432  -39.9617 H         1 UNK         0.0903 
     65 H65        15.1905  -29.2860  -40.7707 H         1 UNK         0.3096 
     66 H66        15.9415  -27.2671  -42.6398 H         1 UNK         0.1121 
     67 H67        16.2333  -30.2905  -43.0005 H         1 UNK         0.0849 
     68 H68        14.6931  -29.4966  -43.0649 H         1 UNK         0.0849 
     69 H69        16.3725  -31.2506  -45.1876 H         1 UNK         0.0865 
     70 H70        16.4761  -30.4302  -46.7170 H         1 UNK         0.0865 
     71 H71        18.3212  -31.0560  -43.5380 H         1 UNK         0.1346 
     72 H72        22.1408  -30.1668  -45.2648 H         1 UNK         0.1412 
     73 H73        18.5582  -29.4889  -47.5212 H         1 UNK         0.1426 
     74 H74        20.7946  -29.6197  -48.6283 H         1 UNK         0.0716 
     75 H75        22.2588  -29.7257  -47.6909 H         1 UNK         0.0716 
     76 H76        23.1859  -28.0770  -46.2197 H         1 UNK         0.0695 
     77 H77        23.5824  -26.7740  -47.3053 H         1 UNK         0.0695 
     78 H78        21.8906  -25.3179  -45.9502 H         1 UNK         0.0983 
     79 H79        22.2636  -27.2478  -43.7228 H         1 UNK         0.3095 
     80 H80        20.4017  -28.1316  -42.7300 H         1 UNK         0.0454 
     81 H81        19.7740  -25.2406  -41.8416 H         1 UNK         0.0851 
     82 H82        19.8727  -26.6131  -40.7478 H         1 UNK         0.0851 
     83 H83        21.3048  -26.0692  -41.5981 H         1 UNK         0.0851 
     84 H84        17.9837  -26.8864  -43.6533 H         1 UNK         0.2976 
     85 H85        22.7445  -25.0233  -43.2473 H         1 UNK         0.3116 
     86 H86        24.1311  -23.8822  -42.0073 H         1 UNK         0.0646 
     87 H87        25.7700  -22.3144  -42.9935 H         1 UNK         0.0847 
     88 H88        24.2489  -22.2480  -43.8677 H         1 UNK         0.0847 
     89 H89        25.6314  -23.0949  -44.5592 H         1 UNK         0.0847 
     90 H90        26.0635  -25.7188  -44.3676 H         1 UNK         0.3040 
     91 H91        28.2808  -26.2587  -42.5542 H         1 UNK         0.1015 
     92 H92        28.5853  -26.1957  -45.0264 H         1 UNK         0.0786 
     93 H93        27.4737  -27.5511  -45.2211 H         1 UNK         0.0786 
     94 H94        29.0136  -27.7800  -44.4021 H         1 UNK         0.0786 
     95 H95        25.1423  -27.6158  -42.9809 H         1 UNK         0.3172 
     96 H96        25.5813  -29.5892  -40.8997 H         1 UNK         0.0595 
     97 H97        24.4337  -31.4026  -42.2120 H         1 UNK         0.0839 
     98 H98        25.9502  -30.9659  -42.9824 H         1 UNK         0.0839 
     99 H99        24.4239  -30.3858  -43.6464 H         1 UNK         0.0839 
    100 H100       23.5472  -30.0942  -39.8825 H         1 UNK         0.2998 
    101 H101       21.1025  -28.7863  -40.7460 H         1 UNK         0.0822 
    102 H102       20.8216  -27.5859  -38.5620 H         1 UNK         0.0787 
    103 H103       22.4364  -28.0746  -38.0660 H         1 UNK         0.0787 
    104 H104       22.2257  -26.9625  -39.4156 H         1 UNK         0.0787 
    105 H105       19.2934  -29.6853  -39.7802 H         1 UNK         0.3055 
    106 H106       17.9596  -31.1992  -38.8896 H         1 UNK         0.1106 
    107 H107       20.0974  -31.6639  -36.7435 H         1 UNK         0.0828 
    108 H108       18.8727  -30.3958  -36.7027 H         1 UNK         0.0828 
    109 H109       18.3957  -32.0833  -36.6307 H         1 UNK         0.0828 
    110 H110       19.3335  -32.0178  -41.0646 H         1 UNK         0.2931 
    111 H111       20.5114  -34.6018  -40.9000 H         1 UNK         0.0412 
    112 H112       17.9220  -37.0125  -41.2778 H         1 UNK         0.3472 
    113 H113       19.6406  -36.7136  -41.2881 H         1 UNK         0.3472 
    114 H114       19.1901  -33.2165  -43.2994 H         1 UNK         0.0970 
    115 H115       20.1493  -34.6592  -43.3875 H         1 UNK         0.0970 
    116 H116       20.3265  -30.8779  -42.1259 H         1 UNK         0.0612 
    117 H117       21.8500  -30.4235  -42.8245 H         1 UNK         0.0612 
@<TRIPOS>BOND
     1    1    2 1    
     2    1   62 1    
     3    1   63 1    
     4    1   64 1    
     5    2    3 2    
     6    2    4 am   BACKBONE|DICT|INTERRES
     7    4    5 1    
     8    4   65 1    
     9    5    6 1    
    10    5   25 1    
    11    5   66 1    
    12    6    7 1    
    13    6   67 1    
    14    6   68 1    
    15    7    8 1    
    16    8    9 1    
    17    8   69 1    
    18    8   70 1    
    19    9   10 ar   
    20    9   14 ar   
    21   10   11 ar   
    22   10   71 1    
    23   11   12 ar   
    24   11   61 1    
    25   12   13 ar   
    26   12   72 1    
    27   13   14 ar   
    28   13   15 1    
    29   14   73 1    
    30   15   16 1    
    31   15   74 1    
    32   15   75 1    
    33   16   17 1    
    34   17   18 1    
    35   17   76 1    
    36   17   77 1    
    37   18   19 1    
    38   18   27 1    
    39   18   78 1    
    40   19   20 am   BACKBONE|DICT|INTERRES
    41   19   79 1    
    42   20   21 2    
    43   20   22 1    
    44   22   23 1    
    45   22   24 1    
    46   22   80 1    
    47   23   81 1    
    48   23   82 1    
    49   23   83 1    
    50   24   25 am   BACKBONE|DICT|INTERRES
    51   24   84 1    
    52   25   26 2    
    53   27   28 2    
    54   27   29 am   BACKBONE|DICT|INTERRES
    55   29   30 1    
    56   29   85 1    
    57   30   31 1    
    58   30   32 1    
    59   30   86 1    
    60   31   87 1    
    61   31   88 1    
    62   31   89 1    
    63   32   33 2    
    64   32   34 am   BACKBONE|DICT|INTERRES
    65   34   35 1    
    66   34   90 1    
    67   35   36 1    
    68   35   37 1    
    69   35   91 1    
    70   36   92 1    
    71   36   93 1    
    72   36   94 1    
    73   37   38 2    
    74   37   39 am   BACKBONE|DICT|INTERRES
    75   39   40 1    
    76   39   95 1    
    77   40   41 1    
    78   40   42 1    
    79   40   96 1    
    80   41   97 1    
    81   41   98 1    
    82   41   99 1    
    83   42   43 2    
    84   42   44 am   BACKBONE|DICT|INTERRES
    85   44   45 1    
    86   44  100 1    
    87   45   46 1    
    88   45   47 1    
    89   45  101 1    
    90   46  102 1    
    91   46  103 1    
    92   46  104 1    
    93   47   48 2    
    94   47   49 am   BACKBONE|DICT|INTERRES
    95   49   50 1    
    96   49  105 1    
    97   50   51 1    
    98   50   52 1    
    99   50  106 1    
   100   51  107 1    
   101   51  108 1    
   102   51  109 1    
   103   52   53 2    
   104   52   54 am   BACKBONE|DICT|INTERRES
   105   54   55 1    
   106   54  110 1    
   107   55   56 1    
   108   55   59 1    
   109   55  111 1    
   110   56   57 am   BACKBONE|DICT|INTERRES
   111   56   58 2    
   112   57  112 1    
   113   57  113 1    
   114   59   60 1    
   115   59  114 1    
   116   59  115 1    
   117   60   61 1    
   118   61  116 1    
   119   61  117 1    
@<TRIPOS>SUBSTRUCTURE
     1 UNK         1 GROUP             0       ****    0 ROOT    
