@<TRIPOS>MOLECULE
3R8
117   119    1
SMALL
USER_CHARGES


@<TRIPOS>ATOM
      1 CA         17.8040  -24.2113  -49.2503 C.3       0 UNK        -0.2013 
      2 C          18.8153  -23.9929  -48.1347 C.2       0 UNK         0.4866 
      3 O          19.0168  -22.8562  -47.7049 O.2       0 UNK        -0.5176 
      4 N          19.4590  -25.0714  -47.6701 N.am      1 UNK        -0.4884 
      5 CA         20.4049  -25.0635  -46.5476 C.3       1 UNK         0.0853 
      6 C6         21.3912  -26.2732  -46.6416 C.3       10 UNK        -0.0849 
      7 S7         21.0514  -27.7390  -45.6002 S.3       10 UNK        -0.2776 
      8 C8         19.8716  -28.6765  -46.6159 C.3       10 UNK         0.0316 
      9 C9         18.9822  -29.5197  -45.7178 C.ar      10 UNK        -0.0863 
     10 C10        19.4210  -30.7616  -45.2528 C.ar      10 UNK        -0.1009 
     11 C11        18.6442  -31.5000  -44.3559 C.ar      10 UNK        -0.0712 
     12 C12        17.4031  -31.0013  -43.9469 C.ar      10 UNK        -0.0894 
     13 C13        16.9435  -29.7684  -44.4238 C.ar      10 UNK        -0.0745 
     14 C14        17.7366  -29.0351  -45.3120 C.ar      10 UNK        -0.0972 
     15 C15        15.6016  -29.2130  -43.9662 C.3       10 UNK         0.0209 
     16 S16        15.7781  -27.6209  -43.0955 S.3       10 UNK        -0.2568 
     17 C17        16.7184  -28.1116  -41.6118 C.3       10 UNK        -0.0983 
     18 CA         18.2471  -27.8969  -41.7542 C.3       3 UNK         0.0876 
     19 N          18.5871  -26.5159  -42.1161 N.am      3 UNK        -0.4424 
     20 C          19.8209  -26.0144  -42.2642 C.2       2 UNK         0.4918 
     21 O          20.8648  -26.6407  -42.0608 O.2       2 UNK        -0.4875 
     22 CA         19.9066  -24.5621  -42.7615 C.3       2 UNK         0.0481 
     23 CB         20.8398  -23.7222  -41.8730 C.3       2 UNK        -0.1831 
     24 N          20.3882  -24.5413  -44.1435 N.am      2 UNK        -0.4498 
     25 C          19.6574  -24.9337  -45.1972 C.2       1 UNK         0.5027 
     26 O          18.4578  -25.2189  -45.1234 O.2       1 UNK        -0.4969 
     27 C          18.9588  -28.3473  -40.4663 C.2       3 UNK         0.5005 
     28 O          18.9723  -27.5959  -39.4872 O.2       3 UNK        -0.5279 
     29 N          19.5587  -29.5452  -40.5043 N.am      4 UNK        -0.4463 
     30 CA         20.3975  -30.1778  -39.4763 C.3       4 UNK         0.0283 
     31 CB         19.6331  -30.3863  -38.1547 C.3       4 UNK        -0.1875 
     32 C          21.7479  -29.4805  -39.2353 C.2       4 UNK         0.4949 
     33 O          22.7546  -30.1731  -39.1011 O.2       4 UNK        -0.5039 
     34 N          21.7524  -28.1445  -39.1810 N.am      5 UNK        -0.4663 
     35 CA         22.9110  -27.3059  -38.8835 C.3       5 UNK         0.0242 
     36 CB         22.4384  -25.8696  -38.6023 C.3       5 UNK        -0.1982 
     37 C          23.9840  -27.3235  -39.9823 C.2       5 UNK         0.5017 
     38 O          25.1486  -27.5822  -39.6767 O.2       5 UNK        -0.5012 
     39 N          23.5880  -27.0241  -41.2277 N.am      6 UNK        -0.4439 
     40 CA         24.5159  -26.8757  -42.3533 C.3       6 UNK         0.0297 
     41 CB         23.8948  -25.9732  -43.4313 C.3       6 UNK        -0.2006 
     42 C          24.9414  -28.2231  -42.9520 C.2       6 UNK         0.4892 
     43 O          26.1212  -28.4067  -43.2533 O.2       6 UNK        -0.5089 
     44 N          23.9746  -29.1331  -43.1214 N.am      7 UNK        -0.4243 
     45 CA         24.1791  -30.4437  -43.7442 C.3       7 UNK         0.0196 
     46 CB         22.8597  -30.8932  -44.3869 C.3       7 UNK        -0.2007 
     47 C          24.7034  -31.5221  -42.7814 C.2       7 UNK         0.5020 
     48 O          25.1081  -32.5850  -43.2524 O.2       7 UNK        -0.5147 
     49 N          24.6580  -31.2579  -41.4662 N.am      8 UNK        -0.4734 
     50 CA         25.0026  -32.1731  -40.3653 C.3       8 UNK         0.0238 
     51 CB         26.4922  -32.5776  -40.4160 C.3       8 UNK        -0.1912 
     52 C          24.0583  -33.3906  -40.2518 C.2       8 UNK         0.5038 
     53 O          24.4316  -34.3940  -39.6416 O.2       8 UNK        -0.5046 
     54 N          22.8529  -33.2811  -40.8271 N.am      9 UNK        -0.4200 
     55 CA         21.7940  -34.3027  -40.8098 C.3       9 UNK         0.0839 
     56 C          20.9943  -34.3997  -39.4764 C.2       9 UNK         0.5513 
     57 N          21.2599  -33.5695  -38.4747 N.am      9 UNK        -0.7519 
     58 O          20.1290  -35.2611  -39.3412 O.2       9 UNK        -0.4960 
     59 C59        20.8754  -34.1970  -42.0594 C.3       10 UNK        -0.0876 
     60 S60        20.0910  -32.5631  -42.2738 S.3       10 UNK        -0.2414 
     61 C61        19.1637  -32.8228  -43.8149 C.3       10 UNK         0.0169 
     62 H62        17.7386  -25.2590  -49.5436 H         1 UNK         0.0903 
     63 H63        16.8148  -23.8877  -48.9275 H         1 UNK         0.0903 
     64 H64        18.0829  -23.6303  -50.1290 H         1 UNK         0.0903 
     65 H65        19.2258  -25.9802  -48.0409 H         1 UNK         0.3096 
     66 H66        21.0039  -24.1554  -46.6536 H         1 UNK         0.1121 
     67 H67        22.3807  -25.9266  -46.3395 H         1 UNK         0.0849 
     68 H68        21.5228  -26.5942  -47.6765 H         1 UNK         0.0849 
     69 H69        19.2612  -27.9948  -47.2086 H         1 UNK         0.0865 
     70 H70        20.4137  -29.3069  -47.3223 H         1 UNK         0.0865 
     71 H71        20.3821  -31.1411  -45.5676 H         1 UNK         0.1346 
     72 H72        16.8032  -31.5690  -43.2487 H         1 UNK         0.1412 
     73 H73        17.3970  -28.0674  -45.6575 H         1 UNK         0.1426 
     74 H74        15.0815  -29.9211  -43.3191 H         1 UNK         0.0716 
     75 H75        14.9634  -29.0679  -44.8388 H         1 UNK         0.0716 
     76 H76        16.4963  -29.1561  -41.3838 H         1 UNK         0.0695 
     77 H77        16.3313  -27.5316  -40.7716 H         1 UNK         0.0695 
     78 H78        18.6126  -28.5181  -42.5738 H         1 UNK         0.0983 
     79 H79        17.7996  -25.9288  -42.3486 H         1 UNK         0.3095 
     80 H80        18.9138  -24.1080  -42.7272 H         1 UNK         0.0454 
     81 H81        21.8543  -24.1198  -41.8504 H         1 UNK         0.0851 
     82 H82        20.4782  -23.7022  -40.8442 H         1 UNK         0.0851 
     83 H83        20.8919  -22.6891  -42.2166 H         1 UNK         0.0851 
     84 H84        21.3719  -24.3566  -44.2726 H         1 UNK         0.2976 
     85 H85        19.4948  -30.0732  -41.3653 H         1 UNK         0.3116 
     86 H86        20.6358  -31.1679  -39.8608 H         1 UNK         0.0646 
     87 H87        19.3650  -29.4432  -37.6785 H         1 UNK         0.0847 
     88 H88        20.2404  -30.9429  -37.4401 H         1 UNK         0.0847 
     89 H89        18.7178  -30.9563  -38.3133 H         1 UNK         0.0847 
     90 H90        20.8569  -27.6772  -39.3000 H         1 UNK         0.3040 
     91 H91        23.3733  -27.6931  -37.9725 H         1 UNK         0.1015 
     92 H92        21.9052  -25.4447  -39.4534 H         1 UNK         0.0786 
     93 H93        23.2828  -25.2143  -38.3837 H         1 UNK         0.0786 
     94 H94        21.7710  -25.8351  -37.7409 H         1 UNK         0.0786 
     95 H95        22.5992  -26.8595  -41.4120 H         1 UNK         0.3172 
     96 H96        25.4200  -26.3775  -41.9956 H         1 UNK         0.0595 
     97 H97        22.9392  -26.3617  -43.7812 H         1 UNK         0.0839 
     98 H98        24.5508  -25.8906  -44.2991 H         1 UNK         0.0839 
     99 H99        23.7328  -24.9641  -43.0547 H         1 UNK         0.0839 
    100 H100       23.0299  -28.8859  -42.8629 H         1 UNK         0.2998 
    101 H101       24.9206  -30.3469  -44.5406 H         1 UNK         0.0822 
    102 H102       22.5961  -30.2439  -45.2209 H         1 UNK         0.0787 
    103 H103       22.9295  -31.9078  -44.7820 H         1 UNK         0.0787 
    104 H104       22.0376  -30.8736  -43.6725 H         1 UNK         0.0787 
    105 H105       24.3020  -30.3559  -41.1784 H         1 UNK         0.3055 
    106 H106       24.8621  -31.6063  -39.4443 H         1 UNK         0.1106 
    107 H107       26.7840  -33.1070  -39.5082 H         1 UNK         0.0828 
    108 H108       26.7079  -33.2379  -41.2562 H         1 UNK         0.0828 
    109 H109       27.1381  -31.7037  -40.5000 H         1 UNK         0.0828 
    110 H110       22.6211  -32.4164  -41.2914 H         1 UNK         0.2931 
    111 H111       22.2959  -35.2687  -40.8928 H         1 UNK         0.0412 
    112 H112       20.7438  -33.6577  -37.6139 H         1 UNK         0.3472 
    113 H113       21.9807  -32.8717  -38.5659 H         1 UNK         0.3472 
    114 H114       21.4665  -34.4044  -42.9529 H         1 UNK         0.0970 
    115 H115       20.0993  -34.9645  -42.0373 H         1 UNK         0.0970 
    116 H116       19.8093  -33.3000  -44.5540 H         1 UNK         0.0612 
    117 H117       18.3371  -33.5107  -43.6308 H         1 UNK         0.0612 
@<TRIPOS>BOND
     1    1    2 1    
     2    1   62 1    
     3    1   63 1    
     4    1   64 1    
     5    2    3 2    
     6    2    4 am   BACKBONE|DICT|INTERRES
     7    4    5 1    
     8    4   65 1    
     9    5    6 1    
    10    5   25 1    
    11    5   66 1    
    12    6    7 1    
    13    6   67 1    
    14    6   68 1    
    15    7    8 1    
    16    8    9 1    
    17    8   69 1    
    18    8   70 1    
    19    9   10 ar   
    20    9   14 ar   
    21   10   11 ar   
    22   10   71 1    
    23   11   12 ar   
    24   11   61 1    
    25   12   13 ar   
    26   12   72 1    
    27   13   14 ar   
    28   13   15 1    
    29   14   73 1    
    30   15   16 1    
    31   15   74 1    
    32   15   75 1    
    33   16   17 1    
    34   17   18 1    
    35   17   76 1    
    36   17   77 1    
    37   18   19 1    
    38   18   27 1    
    39   18   78 1    
    40   19   20 am   BACKBONE|DICT|INTERRES
    41   19   79 1    
    42   20   21 2    
    43   20   22 1    
    44   22   23 1    
    45   22   24 1    
    46   22   80 1    
    47   23   81 1    
    48   23   82 1    
    49   23   83 1    
    50   24   25 am   BACKBONE|DICT|INTERRES
    51   24   84 1    
    52   25   26 2    
    53   27   28 2    
    54   27   29 am   BACKBONE|DICT|INTERRES
    55   29   30 1    
    56   29   85 1    
    57   30   31 1    
    58   30   32 1    
    59   30   86 1    
    60   31   87 1    
    61   31   88 1    
    62   31   89 1    
    63   32   33 2    
    64   32   34 am   BACKBONE|DICT|INTERRES
    65   34   35 1    
    66   34   90 1    
    67   35   36 1    
    68   35   37 1    
    69   35   91 1    
    70   36   92 1    
    71   36   93 1    
    72   36   94 1    
    73   37   38 2    
    74   37   39 am   BACKBONE|DICT|INTERRES
    75   39   40 1    
    76   39   95 1    
    77   40   41 1    
    78   40   42 1    
    79   40   96 1    
    80   41   97 1    
    81   41   98 1    
    82   41   99 1    
    83   42   43 2    
    84   42   44 am   BACKBONE|DICT|INTERRES
    85   44   45 1    
    86   44  100 1    
    87   45   46 1    
    88   45   47 1    
    89   45  101 1    
    90   46  102 1    
    91   46  103 1    
    92   46  104 1    
    93   47   48 2    
    94   47   49 am   BACKBONE|DICT|INTERRES
    95   49   50 1    
    96   49  105 1    
    97   50   51 1    
    98   50   52 1    
    99   50  106 1    
   100   51  107 1    
   101   51  108 1    
   102   51  109 1    
   103   52   53 2    
   104   52   54 am   BACKBONE|DICT|INTERRES
   105   54   55 1    
   106   54  110 1    
   107   55   56 1    
   108   55   59 1    
   109   55  111 1    
   110   56   57 am   BACKBONE|DICT|INTERRES
   111   56   58 2    
   112   57  112 1    
   113   57  113 1    
   114   59   60 1    
   115   59  114 1    
   116   59  115 1    
   117   60   61 1    
   118   61  116 1    
   119   61  117 1    
@<TRIPOS>SUBSTRUCTURE
     1 UNK         1 GROUP             0       ****    0 ROOT    
