@<TRIPOS>MOLECULE
3R8
117   119    1
SMALL
USER_CHARGES


@<TRIPOS>ATOM
      1 CA         15.9699  -21.4358  -45.2739 C.3       0 UNK        -0.2013 
      2 C          16.2900  -22.6833  -46.0842 C.2       0 UNK         0.4866 
      3 O          16.7004  -22.5720  -47.2403 O.2       0 UNK        -0.5176 
      4 N          16.0976  -23.8677  -45.4895 N.am      1 UNK        -0.4884 
      5 CA         16.4168  -25.1679  -46.0901 C.3       1 UNK         0.0853 
      6 C6         15.4673  -26.2790  -45.5615 C.3       10 UNK        -0.0849 
      7 S7         15.2001  -27.5948  -46.7987 S.3       10 UNK        -0.2776 
      8 C8         14.4887  -28.9245  -45.7808 C.3       10 UNK         0.0316 
      9 C9         15.5327  -29.6214  -44.9183 C.ar      10 UNK        -0.0863 
     10 C10        16.4867  -30.4567  -45.5067 C.ar      10 UNK        -0.1009 
     11 C11        17.4111  -31.1514  -44.7194 C.ar      10 UNK        -0.0712 
     12 C12        17.3684  -31.0087  -43.3283 C.ar      10 UNK        -0.0894 
     13 C13        16.4330  -30.1606  -42.7283 C.ar      10 UNK        -0.0745 
     14 C14        15.5169  -29.4708  -43.5292 C.ar      10 UNK        -0.0972 
     15 C15        16.3981  -29.9925  -41.2135 C.3       10 UNK         0.0209 
     16 S16        17.9262  -29.2639  -40.5325 S.3       10 UNK        -0.2568 
     17 C17        18.1830  -27.8069  -41.5992 C.3       10 UNK        -0.0983 
     18 CA         19.4625  -27.9685  -42.4684 C.3       3 UNK         0.0876 
     19 N          19.2285  -27.5804  -43.8596 N.am      3 UNK        -0.4424 
     20 C          20.1080  -27.6939  -44.8646 C.2       2 UNK         0.4918 
     21 O          21.2549  -28.1194  -44.7251 O.2       2 UNK        -0.4875 
     22 CA         19.6346  -27.3008  -46.2800 C.3       2 UNK         0.0481 
     23 CB         19.6920  -28.5192  -47.2178 C.3       2 UNK        -0.1831 
     24 N          18.2840  -26.7321  -46.3434 N.am      2 UNK        -0.4498 
     25 C          17.9119  -25.5226  -45.9058 C.2       1 UNK         0.5027 
     26 O          18.6871  -24.7310  -45.3636 O.2       1 UNK        -0.4969 
     27 C          20.6549  -27.2181  -41.8355 C.2       3 UNK         0.5005 
     28 O          20.7125  -25.9882  -41.9225 O.2       3 UNK        -0.5279 
     29 N          21.5518  -27.9632  -41.1806 N.am      4 UNK        -0.4463 
     30 CA         22.6931  -27.4341  -40.4269 C.3       4 UNK         0.0283 
     31 CB         23.8726  -27.1413  -41.3705 C.3       4 UNK        -0.1875 
     32 C          23.1327  -28.3402  -39.2640 C.2       4 UNK         0.4949 
     33 O          23.8996  -27.8742  -38.4206 O.2       4 UNK        -0.5039 
     34 N          22.6716  -29.6007  -39.2260 N.am      5 UNK        -0.4663 
     35 CA         22.8791  -30.6419  -38.2065 C.3       5 UNK         0.0242 
     36 CB         22.2963  -30.2152  -36.8453 C.3       5 UNK        -0.1982 
     37 C          24.3253  -31.1493  -38.0556 C.2       5 UNK         0.5017 
     38 O          24.5312  -32.3621  -37.9977 O.2       5 UNK        -0.5012 
     39 N          25.2902  -30.2280  -37.9743 N.am      6 UNK        -0.4439 
     40 CA         26.7200  -30.5130  -37.8638 C.3       6 UNK         0.0297 
     41 CB         27.3779  -29.4861  -36.9267 C.3       6 UNK        -0.2006 
     42 C          27.3960  -30.5063  -39.2416 C.2       6 UNK         0.4892 
     43 O          28.1233  -31.4458  -39.5644 O.2       6 UNK        -0.5089 
     44 N          27.1540  -29.4437  -40.0223 N.am      7 UNK        -0.4243 
     45 CA         27.7794  -29.2191  -41.3302 C.3       7 UNK         0.0196 
     46 CB         27.8993  -27.7039  -41.5668 C.3       7 UNK        -0.2007 
     47 C          27.0292  -29.8844  -42.4978 C.2       7 UNK         0.5020 
     48 O          27.5791  -29.9551  -43.5974 O.2       7 UNK        -0.5147 
     49 N          25.7950  -30.3391  -42.2608 N.am      8 UNK        -0.4734 
     50 CA         24.9046  -30.9600  -43.2397 C.3       8 UNK         0.0238 
     51 CB         24.3040  -29.8913  -44.1829 C.3       8 UNK        -0.1912 
     52 C          23.8286  -31.7532  -42.4834 C.2       8 UNK         0.5038 
     53 O          24.0094  -32.0482  -41.3000 O.2       8 UNK        -0.5046 
     54 N          22.7298  -32.0744  -43.1744 N.am      9 UNK        -0.4200 
     55 CA         21.5175  -32.7016  -42.6290 C.3       9 UNK         0.0839 
     56 C          20.8310  -31.8888  -41.4939 C.2       9 UNK         0.5513 
     57 N          19.9210  -32.5040  -40.7526 N.am      9 UNK        -0.7519 
     58 O          21.1039  -30.7097  -41.2800 O.2       9 UNK        -0.4960 
     59 C59        20.5294  -33.0766  -43.7674 C.3       10 UNK        -0.0876 
     60 S60        20.1424  -31.6987  -44.9101 S.3       10 UNK        -0.2414 
     61 C61        18.4235  -32.0783  -45.3813 C.3       10 UNK         0.0169 
     62 H62        15.2096  -20.8429  -45.7817 H         1 UNK         0.0903 
     63 H63        15.6003  -21.6790  -44.2778 H         1 UNK         0.0903 
     64 H64        16.8633  -20.8218  -45.1630 H         1 UNK         0.0903 
     65 H65        15.7949  -23.8913  -44.5259 H         1 UNK         0.3096 
     66 H66        16.2582  -25.0742  -47.1675 H         1 UNK         0.1121 
     67 H67        14.4838  -25.8602  -45.3405 H         1 UNK         0.0849 
     68 H68        15.8267  -26.7028  -44.6218 H         1 UNK         0.0849 
     69 H69        13.6791  -28.5210  -45.1703 H         1 UNK         0.0865 
     70 H70        14.0284  -29.6612  -46.4409 H         1 UNK         0.0865 
     71 H71        16.4964  -30.5751  -46.5819 H         1 UNK         0.1346 
     72 H72        18.0720  -31.5464  -42.7093 H         1 UNK         0.1412 
     73 H73        14.7808  -28.8258  -43.0687 H         1 UNK         0.1426 
     74 H74        15.5548  -29.3685  -40.9135 H         1 UNK         0.0716 
     75 H75        16.2366  -30.9668  -40.7505 H         1 UNK         0.0716 
     76 H76        18.2187  -26.9179  -40.9658 H         1 UNK         0.0695 
     77 H77        17.2994  -27.6607  -42.2204 H         1 UNK         0.0695 
     78 H78        19.7187  -29.0266  -42.5343 H         1 UNK         0.0983 
     79 H79        18.3187  -27.2063  -44.0728 H         1 UNK         0.3095 
     80 H80        20.3336  -26.5502  -46.6540 H         1 UNK         0.0454 
     81 H81        19.0096  -29.3062  -46.8949 H         1 UNK         0.0851 
     82 H82        20.6935  -28.9510  -47.2418 H         1 UNK         0.0851 
     83 H83        19.4348  -28.2481  -48.2416 H         1 UNK         0.0851 
     84 H84        17.5657  -27.3258  -46.7401 H         1 UNK         0.2976 
     85 H85        21.4112  -28.9723  -41.1796 H         1 UNK         0.3116 
     86 H86        22.3859  -26.4923  -39.9671 H         1 UNK         0.0646 
     87 H87        23.5813  -26.4785  -42.1853 H         1 UNK         0.0847 
     88 H88        24.2733  -28.0538  -41.8070 H         1 UNK         0.0847 
     89 H89        24.6847  -26.6512  -40.8328 H         1 UNK         0.0847 
     90 H90        22.1015  -29.9273  -40.0016 H         1 UNK         0.3040 
     91 H91        22.2966  -31.4975  -38.5540 H         1 UNK         0.1015 
     92 H92        22.8208  -29.3563  -36.4257 H         1 UNK         0.0786 
     93 H93        22.3707  -31.0259  -36.1192 H         1 UNK         0.0786 
     94 H94        21.2415  -29.9542  -36.9319 H         1 UNK         0.0786 
     95 H95        24.9939  -29.2543  -38.0225 H         1 UNK         0.3172 
     96 H96        26.8660  -31.5020  -37.4238 H         1 UNK         0.0595 
     97 H97        27.2513  -28.4632  -37.2836 H         1 UNK         0.0839 
     98 H98        28.4494  -29.6704  -36.8367 H         1 UNK         0.0839 
     99 H99        26.9560  -29.5424  -35.9231 H         1 UNK         0.0839 
    100 H100       26.5469  -28.7149  -39.6774 H         1 UNK         0.2998 
    101 H101       28.7890  -29.6362  -41.3180 H         1 UNK         0.0822 
    102 H102       28.4709  -27.2215  -40.7736 H         1 UNK         0.0787 
    103 H103       28.4140  -27.4952  -42.5058 H         1 UNK         0.0787 
    104 H104       26.9229  -27.2226  -41.6195 H         1 UNK         0.0787 
    105 H105       25.4474  -30.3531  -41.3104 H         1 UNK         0.3055 
    106 H106       25.4824  -31.6759  -43.8285 H         1 UNK         0.1106 
    107 H107       23.5773  -29.2597  -43.6708 H         1 UNK         0.0828 
    108 H108       23.7917  -30.3497  -45.0293 H         1 UNK         0.0828 
    109 H109       25.0716  -29.2407  -44.6014 H         1 UNK         0.0828 
    110 H110       22.6471  -31.7520  -44.1271 H         1 UNK         0.2931 
    111 H111       21.8481  -33.6331  -42.1656 H         1 UNK         0.0412 
    112 H112       19.4582  -31.9829  -40.0247 H         1 UNK         0.3472 
    113 H113       19.6952  -33.4760  -40.8936 H         1 UNK         0.3472 
    114 H114       19.6083  -33.4909  -43.3545 H         1 UNK         0.0970 
    115 H115       20.9612  -33.8812  -44.3645 H         1 UNK         0.0970 
    116 H116       18.1767  -33.1133  -45.1429 H         1 UNK         0.0612 
    117 H117       18.3559  -31.9972  -46.4672 H         1 UNK         0.0612 
@<TRIPOS>BOND
     1    1    2 1    
     2    1   62 1    
     3    1   63 1    
     4    1   64 1    
     5    2    3 2    
     6    2    4 am   BACKBONE|DICT|INTERRES
     7    4    5 1    
     8    4   65 1    
     9    5    6 1    
    10    5   25 1    
    11    5   66 1    
    12    6    7 1    
    13    6   67 1    
    14    6   68 1    
    15    7    8 1    
    16    8    9 1    
    17    8   69 1    
    18    8   70 1    
    19    9   10 ar   
    20    9   14 ar   
    21   10   11 ar   
    22   10   71 1    
    23   11   12 ar   
    24   11   61 1    
    25   12   13 ar   
    26   12   72 1    
    27   13   14 ar   
    28   13   15 1    
    29   14   73 1    
    30   15   16 1    
    31   15   74 1    
    32   15   75 1    
    33   16   17 1    
    34   17   18 1    
    35   17   76 1    
    36   17   77 1    
    37   18   19 1    
    38   18   27 1    
    39   18   78 1    
    40   19   20 am   BACKBONE|DICT|INTERRES
    41   19   79 1    
    42   20   21 2    
    43   20   22 1    
    44   22   23 1    
    45   22   24 1    
    46   22   80 1    
    47   23   81 1    
    48   23   82 1    
    49   23   83 1    
    50   24   25 am   BACKBONE|DICT|INTERRES
    51   24   84 1    
    52   25   26 2    
    53   27   28 2    
    54   27   29 am   BACKBONE|DICT|INTERRES
    55   29   30 1    
    56   29   85 1    
    57   30   31 1    
    58   30   32 1    
    59   30   86 1    
    60   31   87 1    
    61   31   88 1    
    62   31   89 1    
    63   32   33 2    
    64   32   34 am   BACKBONE|DICT|INTERRES
    65   34   35 1    
    66   34   90 1    
    67   35   36 1    
    68   35   37 1    
    69   35   91 1    
    70   36   92 1    
    71   36   93 1    
    72   36   94 1    
    73   37   38 2    
    74   37   39 am   BACKBONE|DICT|INTERRES
    75   39   40 1    
    76   39   95 1    
    77   40   41 1    
    78   40   42 1    
    79   40   96 1    
    80   41   97 1    
    81   41   98 1    
    82   41   99 1    
    83   42   43 2    
    84   42   44 am   BACKBONE|DICT|INTERRES
    85   44   45 1    
    86   44  100 1    
    87   45   46 1    
    88   45   47 1    
    89   45  101 1    
    90   46  102 1    
    91   46  103 1    
    92   46  104 1    
    93   47   48 2    
    94   47   49 am   BACKBONE|DICT|INTERRES
    95   49   50 1    
    96   49  105 1    
    97   50   51 1    
    98   50   52 1    
    99   50  106 1    
   100   51  107 1    
   101   51  108 1    
   102   51  109 1    
   103   52   53 2    
   104   52   54 am   BACKBONE|DICT|INTERRES
   105   54   55 1    
   106   54  110 1    
   107   55   56 1    
   108   55   59 1    
   109   55  111 1    
   110   56   57 am   BACKBONE|DICT|INTERRES
   111   56   58 2    
   112   57  112 1    
   113   57  113 1    
   114   59   60 1    
   115   59  114 1    
   116   59  115 1    
   117   60   61 1    
   118   61  116 1    
   119   61  117 1    
@<TRIPOS>SUBSTRUCTURE
     1 UNK         1 GROUP             0       ****    0 ROOT    
