@<TRIPOS>MOLECULE
3R8
117   119    1
SMALL
USER_CHARGES


@<TRIPOS>ATOM
      1 CA         20.5439  -29.6794  -43.1600 C.3       0 UNK        -0.2013 
      2 C          20.1193  -28.3085  -42.6617 C.2       0 UNK         0.4866 
      3 O          20.9797  -27.5012  -42.3162 O.2       0 UNK        -0.5176 
      4 N          18.8056  -28.0450  -42.6189 N.am      1 UNK        -0.4884 
      5 CA         18.2071  -26.8109  -42.1004 C.3       1 UNK         0.0853 
      6 C6         16.7360  -27.0237  -41.6416 C.3       10 UNK        -0.0849 
      7 S7         15.5033  -27.4777  -42.9207 S.3       10 UNK        -0.2776 
      8 C8         15.6143  -29.2996  -43.0159 C.3       10 UNK         0.0316 
      9 C9         16.5520  -29.8427  -44.0991 C.ar      10 UNK        -0.0863 
     10 C10        17.0034  -31.1617  -43.9906 C.ar      10 UNK        -0.1009 
     11 C11        17.8139  -31.7275  -44.9796 C.ar      10 UNK        -0.0712 
     12 C12        18.1817  -30.9605  -46.0893 C.ar      10 UNK        -0.0894 
     13 C13        17.7369  -29.6411  -46.2218 C.ar      10 UNK        -0.0745 
     14 C14        16.9174  -29.0950  -45.2284 C.ar      10 UNK        -0.0972 
     15 C15        18.0538  -28.8223  -47.4717 C.3       10 UNK         0.0209 
     16 S16        19.7943  -28.8932  -48.0238 S.3       10 UNK        -0.2568 
     17 C17        20.7371  -28.1810  -46.6348 C.3       10 UNK        -0.0983 
     18 CA         20.7181  -26.6306  -46.6157 C.3       3 UNK         0.0876 
     19 N          19.4712  -26.1457  -46.0247 N.am      3 UNK        -0.4424 
     20 C          18.9776  -24.9044  -46.1116 C.2       2 UNK         0.4918 
     21 O          19.4664  -24.0140  -46.8061 O.2       2 UNK        -0.4875 
     22 CA         17.7388  -24.6071  -45.2438 C.3       2 UNK         0.0481 
     23 CB         16.4623  -24.6548  -46.0979 C.3       2 UNK        -0.1831 
     24 N          17.5946  -25.5314  -44.1111 N.am      2 UNK        -0.4498 
     25 C          18.4360  -25.6337  -43.0735 C.2       1 UNK         0.5027 
     26 O          19.4060  -24.8909  -42.9197 O.2       1 UNK        -0.4969 
     27 C          21.9694  -26.0537  -45.9072 C.2       3 UNK         0.5005 
     28 O          23.0475  -26.0902  -46.5020 O.2       3 UNK        -0.5279 
     29 N          21.8123  -25.5173  -44.6831 N.am      4 UNK        -0.4463 
     30 CA         22.8276  -24.8520  -43.8574 C.3       4 UNK         0.0283 
     31 CB         23.2482  -23.5099  -44.4934 C.3       4 UNK        -0.1875 
     32 C          24.0242  -25.7602  -43.5162 C.2       4 UNK         0.4949 
     33 O          25.1774  -25.3675  -43.7066 O.2       4 UNK        -0.5039 
     34 N          23.7255  -26.9674  -43.0225 N.am      5 UNK        -0.4663 
     35 CA         24.7217  -27.9362  -42.5631 C.3       5 UNK         0.0242 
     36 CB         24.0972  -29.3399  -42.5804 C.3       5 UNK        -0.1982 
     37 C          25.2458  -27.5882  -41.1585 C.2       5 UNK         0.5017 
     38 O          24.5773  -26.8823  -40.3994 O.2       5 UNK        -0.5012 
     39 N          26.4289  -28.1225  -40.8286 N.am      6 UNK        -0.4439 
     40 CA         27.0998  -27.9459  -39.5346 C.3       6 UNK         0.0297 
     41 CB         28.5993  -28.2411  -39.7113 C.3       6 UNK        -0.2006 
     42 C          26.5122  -28.8076  -38.3974 C.2       6 UNK         0.4892 
     43 O          26.8938  -28.6128  -37.2424 O.2       6 UNK        -0.5089 
     44 N          25.6185  -29.7443  -38.7309 N.am      7 UNK        -0.4243 
     45 CA         24.9300  -30.6482  -37.8150 C.3       7 UNK         0.0196 
     46 CB         25.7600  -31.9348  -37.6461 C.3       7 UNK        -0.2007 
     47 C          23.5348  -30.9463  -38.3798 C.2       7 UNK         0.5020 
     48 O          23.2391  -30.5651  -39.5152 O.2       7 UNK        -0.5147 
     49 N          22.7002  -31.6237  -37.5813 N.am      8 UNK        -0.4734 
     50 CA         21.3495  -32.0506  -37.9617 C.3       8 UNK         0.0238 
     51 CB         20.6469  -32.6536  -36.7340 C.3       8 UNK        -0.1912 
     52 C          21.3585  -33.0585  -39.1263 C.2       8 UNK         0.5038 
     53 O          22.2647  -33.8921  -39.2064 O.2       8 UNK        -0.5046 
     54 N          20.3385  -32.9699  -39.9888 N.am      9 UNK        -0.4200 
     55 CA         20.1809  -33.8087  -41.1890 C.3       9 UNK         0.0839 
     56 C          19.7623  -35.2843  -40.9116 C.2       9 UNK         0.5513 
     57 N          19.3324  -35.6370  -39.7057 N.am      9 UNK        -0.7519 
     58 O          19.8349  -36.1258  -41.8029 O.2       9 UNK        -0.4960 
     59 C59        19.2459  -33.1225  -42.2249 C.3       10 UNK        -0.0876 
     60 S60        19.8201  -33.3419  -43.9431 S.3       10 UNK        -0.2414 
     61 C61        18.2633  -33.1781  -44.8698 C.3       10 UNK         0.0169 
     62 H62        21.3732  -29.5917  -43.8597 H         1 UNK         0.0903 
     63 H63        20.8751  -30.2948  -42.3241 H         1 UNK         0.0903 
     64 H64        19.7322  -30.1944  -43.6682 H         1 UNK         0.0903 
     65 H65        18.1490  -28.7370  -42.9551 H         1 UNK         0.3096 
     66 H66        18.7651  -26.5478  -41.1980 H         1 UNK         0.1121 
     67 H67        16.7099  -27.7787  -40.8542 H         1 UNK         0.0849 
     68 H68        16.3780  -26.1109  -41.1616 H         1 UNK         0.0849 
     69 H69        15.8929  -29.6970  -42.0387 H         1 UNK         0.0865 
     70 H70        14.6144  -29.6837  -43.2223 H         1 UNK         0.0865 
     71 H71        16.7042  -31.7612  -43.1417 H         1 UNK         0.1346 
     72 H72        18.7970  -31.3993  -46.8629 H         1 UNK         0.1412 
     73 H73        16.5357  -28.0937  -45.3624 H         1 UNK         0.1426 
     74 H74        17.7674  -27.7789  -47.3403 H         1 UNK         0.0716 
     75 H75        17.4297  -29.1980  -48.2834 H         1 UNK         0.0716 
     76 H76        21.7565  -28.5586  -46.7386 H         1 UNK         0.0695 
     77 H77        20.3616  -28.5926  -45.7001 H         1 UNK         0.0695 
     78 H78        20.7653  -26.2674  -47.6450 H         1 UNK         0.0983 
     79 H79        18.9817  -26.7994  -45.4341 H         1 UNK         0.3095 
     80 H80        17.8496  -23.5973  -44.8436 H         1 UNK         0.0454 
     81 H81        16.2912  -25.6464  -46.5183 H         1 UNK         0.0851 
     82 H82        16.5248  -23.9543  -46.9319 H         1 UNK         0.0851 
     83 H83        15.5834  -24.3815  -45.5139 H         1 UNK         0.0851 
     84 H84        16.7938  -26.1517  -44.1191 H         1 UNK         0.2976 
     85 H85        20.8921  -25.5469  -44.2582 H         1 UNK         0.3116 
     86 H86        22.3408  -24.6251  -42.9075 H         1 UNK         0.0646 
     87 H87        23.7716  -23.6553  -45.4388 H         1 UNK         0.0847 
     88 H88        23.9180  -22.9580  -43.8329 H         1 UNK         0.0847 
     89 H89        22.3839  -22.8734  -44.6828 H         1 UNK         0.0847 
     90 H90        22.7503  -27.1787  -42.8169 H         1 UNK         0.3040 
     91 H91        25.5655  -27.9245  -43.2571 H         1 UNK         0.1015 
     92 H92        23.7857  -29.6204  -43.5864 H         1 UNK         0.0786 
     93 H93        23.2254  -29.3953  -41.9280 H         1 UNK         0.0786 
     94 H94        24.8052  -30.0970  -42.2414 H         1 UNK         0.0786 
     95 H95        26.9070  -28.7004  -41.5059 H         1 UNK         0.3172 
     96 H96        26.9953  -26.9015  -39.2327 H         1 UNK         0.0595 
     97 H97        28.7758  -29.2755  -40.0093 H         1 UNK         0.0839 
     98 H98        29.1436  -28.0745  -38.7805 H         1 UNK         0.0839 
     99 H99        29.0473  -27.5919  -40.4639 H         1 UNK         0.0839 
    100 H100       25.2803  -29.7855  -39.6837 H         1 UNK         0.2998 
    101 H101       24.8025  -30.1608  -36.8458 H         1 UNK         0.0822 
    102 H102       26.7554  -31.7160  -37.2588 H         1 UNK         0.0787 
    103 H103       25.2875  -32.6240  -36.9453 H         1 UNK         0.0787 
    104 H104       25.8785  -32.4625  -38.5935 H         1 UNK         0.0787 
    105 H105       23.0315  -31.9258  -36.6765 H         1 UNK         0.3055 
    106 H106       20.8011  -31.1598  -38.2771 H         1 UNK         0.1106 
    107 H107       19.6229  -32.9453  -36.9713 H         1 UNK         0.0828 
    108 H108       21.1627  -33.5436  -36.3706 H         1 UNK         0.0828 
    109 H109       20.5937  -31.9373  -35.9138 H         1 UNK         0.0828 
    110 H110       19.6141  -32.2871  -39.8235 H         1 UNK         0.2931 
    111 H111       21.1778  -33.8691  -41.6313 H         1 UNK         0.0412 
    112 H112       19.2740  -34.9592  -38.9632 H         1 UNK         0.3472 
    113 H113       19.0690  -36.5954  -39.5366 H         1 UNK         0.3472 
    114 H114       18.2190  -33.4786  -42.1226 H         1 UNK         0.0970 
    115 H115       19.1963  -32.0479  -42.0497 H         1 UNK         0.0970 
    116 H116       18.4100  -33.5946  -45.8675 H         1 UNK         0.0612 
    117 H117       17.4864  -33.7852  -44.4028 H         1 UNK         0.0612 
@<TRIPOS>BOND
     1    1    2 1    
     2    1   62 1    
     3    1   63 1    
     4    1   64 1    
     5    2    3 2    
     6    2    4 am   BACKBONE|DICT|INTERRES
     7    4    5 1    
     8    4   65 1    
     9    5    6 1    
    10    5   25 1    
    11    5   66 1    
    12    6    7 1    
    13    6   67 1    
    14    6   68 1    
    15    7    8 1    
    16    8    9 1    
    17    8   69 1    
    18    8   70 1    
    19    9   10 ar   
    20    9   14 ar   
    21   10   11 ar   
    22   10   71 1    
    23   11   12 ar   
    24   11   61 1    
    25   12   13 ar   
    26   12   72 1    
    27   13   14 ar   
    28   13   15 1    
    29   14   73 1    
    30   15   16 1    
    31   15   74 1    
    32   15   75 1    
    33   16   17 1    
    34   17   18 1    
    35   17   76 1    
    36   17   77 1    
    37   18   19 1    
    38   18   27 1    
    39   18   78 1    
    40   19   20 am   BACKBONE|DICT|INTERRES
    41   19   79 1    
    42   20   21 2    
    43   20   22 1    
    44   22   23 1    
    45   22   24 1    
    46   22   80 1    
    47   23   81 1    
    48   23   82 1    
    49   23   83 1    
    50   24   25 am   BACKBONE|DICT|INTERRES
    51   24   84 1    
    52   25   26 2    
    53   27   28 2    
    54   27   29 am   BACKBONE|DICT|INTERRES
    55   29   30 1    
    56   29   85 1    
    57   30   31 1    
    58   30   32 1    
    59   30   86 1    
    60   31   87 1    
    61   31   88 1    
    62   31   89 1    
    63   32   33 2    
    64   32   34 am   BACKBONE|DICT|INTERRES
    65   34   35 1    
    66   34   90 1    
    67   35   36 1    
    68   35   37 1    
    69   35   91 1    
    70   36   92 1    
    71   36   93 1    
    72   36   94 1    
    73   37   38 2    
    74   37   39 am   BACKBONE|DICT|INTERRES
    75   39   40 1    
    76   39   95 1    
    77   40   41 1    
    78   40   42 1    
    79   40   96 1    
    80   41   97 1    
    81   41   98 1    
    82   41   99 1    
    83   42   43 2    
    84   42   44 am   BACKBONE|DICT|INTERRES
    85   44   45 1    
    86   44  100 1    
    87   45   46 1    
    88   45   47 1    
    89   45  101 1    
    90   46  102 1    
    91   46  103 1    
    92   46  104 1    
    93   47   48 2    
    94   47   49 am   BACKBONE|DICT|INTERRES
    95   49   50 1    
    96   49  105 1    
    97   50   51 1    
    98   50   52 1    
    99   50  106 1    
   100   51  107 1    
   101   51  108 1    
   102   51  109 1    
   103   52   53 2    
   104   52   54 am   BACKBONE|DICT|INTERRES
   105   54   55 1    
   106   54  110 1    
   107   55   56 1    
   108   55   59 1    
   109   55  111 1    
   110   56   57 am   BACKBONE|DICT|INTERRES
   111   56   58 2    
   112   57  112 1    
   113   57  113 1    
   114   59   60 1    
   115   59  114 1    
   116   59  115 1    
   117   60   61 1    
   118   61  116 1    
   119   61  117 1    
@<TRIPOS>SUBSTRUCTURE
     1 UNK         1 GROUP             0       ****    0 ROOT    
