@<TRIPOS>MOLECULE
3R8
117   119    1
SMALL
USER_CHARGES


@<TRIPOS>ATOM
      1 CA         16.7583  -30.3920  -40.7278 C.3       0 UNK        -0.2013 
      2 C          16.7349  -28.8760  -40.6626 C.2       0 UNK         0.4866 
      3 O          16.1410  -28.3094  -39.7447 O.2       0 UNK        -0.5176 
      4 N          17.3576  -28.2196  -41.6464 N.am      1 UNK        -0.4884 
      5 CA         17.3077  -26.7665  -41.8317 C.3       1 UNK         0.0853 
      6 C6         16.1081  -26.3515  -42.7262 C.3       10 UNK        -0.0849 
      7 S7         16.2038  -26.8893  -44.4729 S.3       10 UNK        -0.2776 
      8 C8         15.6524  -28.6345  -44.4046 C.3       10 UNK         0.0316 
      9 C9         16.7604  -29.6901  -44.5176 C.ar      10 UNK        -0.0863 
     10 C10        16.4244  -31.0334  -44.3066 C.ar      10 UNK        -0.1009 
     11 C11        17.3739  -32.0498  -44.4637 C.ar      10 UNK        -0.0712 
     12 C12        18.6763  -31.7121  -44.8410 C.ar      10 UNK        -0.0894 
     13 C13        19.0373  -30.3782  -45.0414 C.ar      10 UNK        -0.0745 
     14 C14        18.0804  -29.3736  -44.8709 C.ar      10 UNK        -0.0972 
     15 C15        20.4729  -30.0288  -45.4049 C.3       10 UNK         0.0209 
     16 S16        20.6162  -28.9967  -46.8946 S.3       10 UNK        -0.2568 
     17 C17        22.3953  -28.6052  -46.8119 C.3       10 UNK        -0.0983 
     18 CA         22.7119  -27.2297  -46.1574 C.3       3 UNK         0.0876 
     19 N          22.3679  -27.1725  -44.7324 N.am      3 UNK        -0.4424 
     20 C          21.2390  -26.6659  -44.2264 C.2       2 UNK         0.4918 
     21 O          20.3520  -26.1593  -44.9140 O.2       2 UNK        -0.4875 
     22 CA         21.1048  -26.7403  -42.6922 C.3       2 UNK         0.0481 
     23 CB         21.7079  -25.4861  -42.0268 C.3       2 UNK        -0.1831 
     24 N          19.7289  -26.9965  -42.2385 N.am      2 UNK        -0.4498 
     25 C          18.6624  -26.1777  -42.2812 C.2       1 UNK         0.5027 
     26 O          18.7093  -24.9950  -42.6234 O.2       1 UNK        -0.4969 
     27 C          24.2043  -26.8789  -46.2512 C.2       3 UNK         0.5005 
     28 O          25.0272  -27.7564  -46.5226 O.2       3 UNK        -0.5279 
     29 N          24.5406  -25.6236  -45.9151 N.am      4 UNK        -0.4463 
     30 CA         25.8862  -25.0681  -45.6844 C.3       4 UNK         0.0283 
     31 CB         26.8064  -25.2097  -46.9134 C.3       4 UNK        -0.1875 
     32 C          26.5439  -25.6254  -44.4081 C.2       4 UNK         0.4949 
     33 O          26.9790  -24.8452  -43.5611 O.2       4 UNK        -0.5039 
     34 N          26.5439  -26.9558  -44.2615 N.am      5 UNK        -0.4663 
     35 CA         26.7454  -27.6570  -42.9959 C.3       5 UNK         0.0242 
     36 CB         26.9816  -29.1492  -43.2766 C.3       5 UNK        -0.1982 
     37 C          25.5070  -27.4652  -42.1051 C.2       5 UNK         0.5017 
     38 O          24.3821  -27.5612  -42.6075 O.2       5 UNK        -0.5012 
     39 N          25.7396  -27.1843  -40.8176 N.am      6 UNK        -0.4439 
     40 CA         24.7048  -26.9049  -39.8219 C.3       6 UNK         0.0297 
     41 CB         25.3659  -26.3424  -38.5531 C.3       6 UNK        -0.2006 
     42 C          23.8669  -28.1461  -39.4789 C.2       6 UNK         0.4892 
     43 O          24.4128  -29.2499  -39.4029 O.2       6 UNK        -0.5089 
     44 N          22.5685  -27.9167  -39.2365 N.am      7 UNK        -0.4243 
     45 CA         21.5162  -28.8603  -38.8324 C.3       7 UNK         0.0196 
     46 CB         21.8137  -29.4823  -37.4541 C.3       7 UNK        -0.2007 
     47 C          21.1835  -29.9486  -39.8663 C.2       7 UNK         0.5020 
     48 O          20.0125  -30.0960  -40.2153 O.2       7 UNK        -0.5147 
     49 N          22.1994  -30.6906  -40.3249 N.am      8 UNK        -0.4734 
     50 CA         22.1390  -31.8362  -41.2391 C.3       8 UNK         0.0238 
     51 CB         21.7667  -31.3719  -42.6592 C.3       8 UNK        -0.1912 
     52 C          21.2274  -32.9510  -40.6938 C.2       8 UNK         0.5038 
     53 O          21.6780  -33.7251  -39.8478 O.2       8 UNK        -0.5046 
     54 N          19.9721  -32.9994  -41.1611 N.am      9 UNK        -0.4200 
     55 CA         18.9207  -33.8924  -40.6482 C.3       9 UNK         0.0839 
     56 C          18.4586  -33.5665  -39.1969 C.2       9 UNK         0.5513 
     57 N          18.7423  -32.3865  -38.6567 N.am      9 UNK        -0.7519 
     58 O          17.8347  -34.4046  -38.5514 O.2       9 UNK        -0.4960 
     59 C59        17.6978  -33.9742  -41.6014 C.3       10 UNK        -0.0876 
     60 S60        18.1359  -34.4951  -43.2927 S.3       10 UNK        -0.2414 
     61 C61        16.9699  -33.5131  -44.2989 C.3       10 UNK         0.0169 
     62 H62        15.8544  -30.7619  -41.2106 H         1 UNK         0.0903 
     63 H63        17.6224  -30.7479  -41.2875 H         1 UNK         0.0903 
     64 H64        16.8036  -30.8099  -39.7236 H         1 UNK         0.0903 
     65 H65        17.7762  -28.7417  -42.4047 H         1 UNK         0.3096 
     66 H66        17.1460  -26.3040  -40.8551 H         1 UNK         0.1121 
     67 H67        16.0082  -25.2645  -42.7234 H         1 UNK         0.0849 
     68 H68        15.1769  -26.7201  -42.2932 H         1 UNK         0.0849 
     69 H69        15.0788  -28.8016  -43.4919 H         1 UNK         0.0865 
     70 H70        14.9564  -28.7929  -45.2294 H         1 UNK         0.0865 
     71 H71        15.4070  -31.2920  -44.0452 H         1 UNK         0.1346 
     72 H72        19.4100  -32.4941  -44.9808 H         1 UNK         0.1412 
     73 H73        18.3781  -28.3487  -45.0444 H         1 UNK         0.1426 
     74 H74        21.0673  -30.9317  -45.5525 H         1 UNK         0.0716 
     75 H75        20.9148  -29.4978  -44.5648 H         1 UNK         0.0716 
     76 H76        22.7671  -28.6224  -47.8382 H         1 UNK         0.0695 
     77 H77        22.9193  -29.4102  -46.2926 H         1 UNK         0.0695 
     78 H78        22.1696  -26.4563  -46.7062 H         1 UNK         0.0983 
     79 H79        23.0889  -27.4921  -44.0882 H         1 UNK         0.3095 
     80 H80        21.6771  -27.6047  -42.3511 H         1 UNK         0.0454 
     81 H81        22.7749  -25.4100  -42.2371 H         1 UNK         0.0851 
     82 H82        21.5873  -25.5082  -40.9448 H         1 UNK         0.0851 
     83 H83        21.2500  -24.5679  -42.3949 H         1 UNK         0.0851 
     84 H84        19.5653  -27.9296  -41.8863 H         1 UNK         0.2976 
     85 H85        23.7837  -24.9998  -45.6684 H         1 UNK         0.3116 
     86 H86        25.7354  -24.0001  -45.5183 H         1 UNK         0.0646 
     87 H87        27.0614  -26.2484  -47.1242 H         1 UNK         0.0847 
     88 H88        26.3431  -24.7903  -47.8062 H         1 UNK         0.0847 
     89 H89        27.7448  -24.6770  -46.7547 H         1 UNK         0.0847 
     90 H90        26.1241  -27.4921  -45.0170 H         1 UNK         0.3040 
     91 H91        27.6258  -27.2425  -42.4998 H         1 UNK         0.1015 
     92 H92        27.1445  -29.6998  -42.3491 H         1 UNK         0.0786 
     93 H93        27.8608  -29.3004  -43.9033 H         1 UNK         0.0786 
     94 H94        26.1279  -29.6046  -43.7810 H         1 UNK         0.0786 
     95 H95        26.6939  -27.1678  -40.4883 H         1 UNK         0.3172 
     96 H96        24.0474  -26.1370  -40.2335 H         1 UNK         0.0595 
     97 H97        26.0525  -27.0609  -38.1030 H         1 UNK         0.0839 
     98 H98        24.6179  -26.0932  -37.7990 H         1 UNK         0.0839 
     99 H99        25.9242  -25.4303  -38.7650 H         1 UNK         0.0839 
    100 H100       22.2502  -26.9631  -39.3333 H         1 UNK         0.2998 
    101 H101       20.6124  -28.2578  -38.7240 H         1 UNK         0.0822 
    102 H102       20.9907  -30.1211  -37.1302 H         1 UNK         0.0787 
    103 H103       21.9450  -28.7130  -36.6932 H         1 UNK         0.0787 
    104 H104       22.7139  -30.0974  -37.4662 H         1 UNK         0.0787 
    105 H105       23.1238  -30.4488  -39.9718 H         1 UNK         0.3055 
    106 H106       23.1455  -32.2559  -41.2830 H         1 UNK         0.1106 
    107 H107       22.5115  -30.6763  -43.0467 H         1 UNK         0.0828 
    108 H108       21.7207  -32.2151  -43.3498 H         1 UNK         0.0828 
    109 H109       20.8004  -30.8692  -42.6800 H         1 UNK         0.0828 
    110 H110       19.6808  -32.3066  -41.8333 H         1 UNK         0.2931 
    111 H111       19.3571  -34.8922  -40.6032 H         1 UNK         0.0412 
    112 H112       19.2268  -31.6782  -39.1957 H         1 UNK         0.3472 
    113 H113       18.4443  -32.1915  -37.7144 H         1 UNK         0.3472 
    114 H114       16.9666  -34.6896  -41.2197 H         1 UNK         0.0970 
    115 H115       17.1819  -33.0159  -41.6446 H         1 UNK         0.0970 
    116 H116       15.9720  -33.5970  -43.8655 H         1 UNK         0.0612 
    117 H117       16.9113  -33.9625  -45.2909 H         1 UNK         0.0612 
@<TRIPOS>BOND
     1    1    2 1    
     2    1   62 1    
     3    1   63 1    
     4    1   64 1    
     5    2    3 2    
     6    2    4 am   BACKBONE|DICT|INTERRES
     7    4    5 1    
     8    4   65 1    
     9    5    6 1    
    10    5   25 1    
    11    5   66 1    
    12    6    7 1    
    13    6   67 1    
    14    6   68 1    
    15    7    8 1    
    16    8    9 1    
    17    8   69 1    
    18    8   70 1    
    19    9   10 ar   
    20    9   14 ar   
    21   10   11 ar   
    22   10   71 1    
    23   11   12 ar   
    24   11   61 1    
    25   12   13 ar   
    26   12   72 1    
    27   13   14 ar   
    28   13   15 1    
    29   14   73 1    
    30   15   16 1    
    31   15   74 1    
    32   15   75 1    
    33   16   17 1    
    34   17   18 1    
    35   17   76 1    
    36   17   77 1    
    37   18   19 1    
    38   18   27 1    
    39   18   78 1    
    40   19   20 am   BACKBONE|DICT|INTERRES
    41   19   79 1    
    42   20   21 2    
    43   20   22 1    
    44   22   23 1    
    45   22   24 1    
    46   22   80 1    
    47   23   81 1    
    48   23   82 1    
    49   23   83 1    
    50   24   25 am   BACKBONE|DICT|INTERRES
    51   24   84 1    
    52   25   26 2    
    53   27   28 2    
    54   27   29 am   BACKBONE|DICT|INTERRES
    55   29   30 1    
    56   29   85 1    
    57   30   31 1    
    58   30   32 1    
    59   30   86 1    
    60   31   87 1    
    61   31   88 1    
    62   31   89 1    
    63   32   33 2    
    64   32   34 am   BACKBONE|DICT|INTERRES
    65   34   35 1    
    66   34   90 1    
    67   35   36 1    
    68   35   37 1    
    69   35   91 1    
    70   36   92 1    
    71   36   93 1    
    72   36   94 1    
    73   37   38 2    
    74   37   39 am   BACKBONE|DICT|INTERRES
    75   39   40 1    
    76   39   95 1    
    77   40   41 1    
    78   40   42 1    
    79   40   96 1    
    80   41   97 1    
    81   41   98 1    
    82   41   99 1    
    83   42   43 2    
    84   42   44 am   BACKBONE|DICT|INTERRES
    85   44   45 1    
    86   44  100 1    
    87   45   46 1    
    88   45   47 1    
    89   45  101 1    
    90   46  102 1    
    91   46  103 1    
    92   46  104 1    
    93   47   48 2    
    94   47   49 am   BACKBONE|DICT|INTERRES
    95   49   50 1    
    96   49  105 1    
    97   50   51 1    
    98   50   52 1    
    99   50  106 1    
   100   51  107 1    
   101   51  108 1    
   102   51  109 1    
   103   52   53 2    
   104   52   54 am   BACKBONE|DICT|INTERRES
   105   54   55 1    
   106   54  110 1    
   107   55   56 1    
   108   55   59 1    
   109   55  111 1    
   110   56   57 am   BACKBONE|DICT|INTERRES
   111   56   58 2    
   112   57  112 1    
   113   57  113 1    
   114   59   60 1    
   115   59  114 1    
   116   59  115 1    
   117   60   61 1    
   118   61  116 1    
   119   61  117 1    
@<TRIPOS>SUBSTRUCTURE
     1 UNK         1 GROUP             0       ****    0 ROOT    
