@<TRIPOS>MOLECULE
3R8
117   119    1
SMALL
USER_CHARGES


@<TRIPOS>ATOM
      1 CA         19.9995  -29.2176  -42.5212 C.3       0 UNK        -0.2013 
      2 C          18.7307  -28.4384  -42.2368 C.2       0 UNK         0.4866 
      3 O          18.6050  -27.8438  -41.1675 O.2       0 UNK        -0.5176 
      4 N          17.7983  -28.4247  -43.1979 N.am      1 UNK        -0.4884 
      5 CA         16.5091  -27.7213  -43.1130 C.3       1 UNK         0.0853 
      6 C6         15.5682  -28.0893  -44.2849 C.3       10 UNK        -0.0849 
      7 S7         15.2552  -29.8849  -44.3795 S.3       10 UNK        -0.2776 
      8 C8         16.0046  -30.3192  -45.9826 C.3       10 UNK         0.0316 
      9 C9         17.5284  -30.2906  -45.9527 C.ar      10 UNK        -0.0863 
     10 C10        18.2337  -31.3053  -45.2962 C.ar      10 UNK        -0.1009 
     11 C11        19.6347  -31.3410  -45.3288 C.ar      10 UNK        -0.0712 
     12 C12        20.3190  -30.3353  -46.0214 C.ar      10 UNK        -0.0894 
     13 C13        19.6295  -29.3118  -46.6785 C.ar      10 UNK        -0.0745 
     14 C14        18.2322  -29.2919  -46.6349 C.ar      10 UNK        -0.0972 
     15 C15        20.3914  -28.2788  -47.5040 C.3       10 UNK         0.0209 
     16 S16        20.4576  -26.6335  -46.7244 S.3       10 UNK        -0.2568 
     17 C17        21.6689  -26.9015  -45.3849 C.3       10 UNK        -0.0983 
     18 CA         21.6895  -25.7758  -44.3060 C.3       3 UNK         0.0876 
     19 N          20.3530  -25.4397  -43.8211 N.am      3 UNK        -0.4424 
     20 C          19.6705  -24.3262  -44.1206 C.2       2 UNK         0.4918 
     21 O          20.1539  -23.3670  -44.7233 O.2       2 UNK        -0.4875 
     22 CA         18.1840  -24.3145  -43.7197 C.3       2 UNK         0.0481 
     23 CB         17.3310  -23.3758  -44.5947 C.3       2 UNK        -0.1831 
     24 N          17.6604  -25.6783  -43.7854 N.am      2 UNK        -0.4498 
     25 C          16.6909  -26.1923  -43.0209 C.2       1 UNK         0.5027 
     26 O          15.9944  -25.5325  -42.2484 O.2       1 UNK        -0.4969 
     27 C          22.5176  -26.1681  -43.0720 C.2       3 UNK         0.5005 
     28 O          22.7348  -27.3568  -42.8329 O.2       3 UNK        -0.5279 
     29 N          22.9224  -25.1727  -42.2680 N.am      4 UNK        -0.4463 
     30 CA         23.5988  -25.3516  -40.9719 C.3       4 UNK         0.0283 
     31 CB         23.9109  -23.9758  -40.3618 C.3       4 UNK        -0.1875 
     32 C          24.8723  -26.2186  -41.0162 C.2       4 UNK         0.4949 
     33 O          25.1496  -26.9399  -40.0575 O.2       4 UNK        -0.5039 
     34 N          25.5885  -26.1788  -42.1484 N.am      5 UNK        -0.4663 
     35 CA         26.7576  -27.0136  -42.4405 C.3       5 UNK         0.0242 
     36 CB         27.4102  -26.5188  -43.7416 C.3       5 UNK        -0.1982 
     37 C          26.4522  -28.5223  -42.5339 C.2       5 UNK         0.5017 
     38 O          27.3751  -29.3226  -42.3797 O.2       5 UNK        -0.5012 
     39 N          25.1826  -28.8902  -42.7666 N.am      6 UNK        -0.4439 
     40 CA         24.7080  -30.2751  -42.8201 C.3       6 UNK         0.0297 
     41 CB         23.5852  -30.3857  -43.8655 C.3       6 UNK        -0.2006 
     42 C          24.2553  -30.8092  -41.4457 C.2       6 UNK         0.4892 
     43 O          23.7009  -31.9078  -41.3951 O.2       6 UNK        -0.5089 
     44 N          24.4878  -30.0429  -40.3651 N.am      7 UNK        -0.4243 
     45 CA         24.2873  -30.4055  -38.9539 C.3       7 UNK         0.0196 
     46 CB         25.3531  -31.4325  -38.5164 C.3       7 UNK        -0.2007 
     47 C          22.8519  -30.8680  -38.6382 C.2       7 UNK         0.5020 
     48 O          22.6547  -31.9265  -38.0377 O.2       7 UNK        -0.5147 
     49 N          21.8711  -30.0781  -39.0997 N.am      8 UNK        -0.4734 
     50 CA         20.4212  -30.3049  -38.9812 C.3       8 UNK         0.0238 
     51 CB         19.9770  -30.2572  -37.5033 C.3       8 UNK        -0.1912 
     52 C          19.9121  -31.5739  -39.7007 C.2       8 UNK         0.5038 
     53 O          18.7895  -32.0062  -39.4359 O.2       8 UNK        -0.5046 
     54 N          20.7259  -32.1353  -40.6073 N.am      9 UNK        -0.4200 
     55 CA         20.4714  -33.3780  -41.3498 C.3       9 UNK         0.0839 
     56 C          20.5266  -34.6669  -40.4743 C.2       9 UNK         0.5513 
     57 N          21.1225  -34.6288  -39.2869 N.am      9 UNK        -0.7519 
     58 O          20.0497  -35.7234  -40.8807 O.2       9 UNK        -0.4960 
     59 C59        19.2174  -33.2838  -42.2795 C.3       10 UNK        -0.0876 
     60 S60        19.5573  -33.8702  -43.9725 S.3       10 UNK        -0.2414 
     61 C61        20.4673  -32.4428  -44.6657 C.3       10 UNK         0.0169 
     62 H62        20.8100  -28.9006  -41.8661 H         1 UNK         0.0903 
     63 H63        19.8310  -30.2785  -42.3745 H         1 UNK         0.0903 
     64 H64        20.3172  -29.0717  -43.5478 H         1 UNK         0.0903 
     65 H65        17.9378  -28.9730  -44.0379 H         1 UNK         0.3096 
     66 H66        16.0299  -28.0374  -42.1833 H         1 UNK         0.1121 
     67 H67        15.9725  -27.7336  -45.2345 H         1 UNK         0.0849 
     68 H68        14.6030  -27.5932  -44.1646 H         1 UNK         0.0849 
     69 H69        15.6772  -31.3231  -46.2572 H         1 UNK         0.0865 
     70 H70        15.6151  -29.6577  -46.7583 H         1 UNK         0.0865 
     71 H71        17.6759  -32.0745  -44.7812 H         1 UNK         0.1346 
     72 H72        21.3994  -30.3619  -46.0669 H         1 UNK         0.1412 
     73 H73        17.6953  -28.5156  -47.1634 H         1 UNK         0.1426 
     74 H74        21.4081  -28.6184  -47.7084 H         1 UNK         0.0716 
     75 H75        19.9081  -28.1799  -48.4771 H         1 UNK         0.0716 
     76 H76        22.6584  -27.0018  -45.8342 H         1 UNK         0.0695 
     77 H77        21.4489  -27.8698  -44.9426 H         1 UNK         0.0695 
     78 H78        22.1630  -24.8975  -44.7502 H         1 UNK         0.0983 
     79 H79        19.9148  -26.1329  -43.2330 H         1 UNK         0.3095 
     80 H80        18.1422  -23.9646  -42.6864 H         1 UNK         0.0454 
     81 H81        16.2874  -23.3772  -44.2801 H         1 UNK         0.0851 
     82 H82        17.3655  -23.6671  -45.6450 H         1 UNK         0.0851 
     83 H83        17.6849  -22.3463  -44.5278 H         1 UNK         0.0851 
     84 H84        18.1520  -26.3017  -44.4121 H         1 UNK         0.2976 
     85 H85        22.6848  -24.2241  -42.5236 H         1 UNK         0.3116 
     86 H86        22.8920  -25.8609  -40.3130 H         1 UNK         0.0646 
     87 H87        23.0028  -23.3922  -40.2085 H         1 UNK         0.0847 
     88 H88        24.3923  -24.0803  -39.3882 H         1 UNK         0.0847 
     89 H89        24.5824  -23.3949  -40.9958 H         1 UNK         0.0847 
     90 H90        25.2774  -25.5595  -42.8827 H         1 UNK         0.3040 
     91 H91        27.4722  -26.8820  -41.6247 H         1 UNK         0.1015 
     92 H92        26.7340  -26.6108  -44.5926 H         1 UNK         0.0786 
     93 H93        28.3062  -27.0965  -43.9739 H         1 UNK         0.0786 
     94 H94        27.7134  -25.4745  -43.6626 H         1 UNK         0.0786 
     95 H95        24.4615  -28.1754  -42.8401 H         1 UNK         0.3172 
     96 H96        25.5253  -30.9177  -43.1535 H         1 UNK         0.0595 
     97 H97        22.6715  -29.8954  -43.5322 H         1 UNK         0.0839 
     98 H98        23.3458  -31.4311  -44.0605 H         1 UNK         0.0839 
     99 H99        23.8779  -29.9408  -44.8165 H         1 UNK         0.0839 
    100 H100       24.8958  -29.1283  -40.5191 H         1 UNK         0.2998 
    101 H101       24.4493  -29.4947  -38.3751 H         1 UNK         0.0822 
    102 H102       25.2809  -31.6420  -37.4484 H         1 UNK         0.0787 
    103 H103       25.2396  -32.3809  -39.0430 H         1 UNK         0.0787 
    104 H104       26.3609  -31.0628  -38.7058 H         1 UNK         0.0787 
    105 H105       22.1443  -29.2442  -39.6023 H         1 UNK         0.3055 
    106 H106       19.9406  -29.4666  -39.4861 H         1 UNK         0.1106 
    107 H107       20.3316  -29.3520  -37.0106 H         1 UNK         0.0828 
    108 H108       18.8894  -30.2618  -37.4207 H         1 UNK         0.0828 
    109 H109       20.3466  -31.1140  -36.9393 H         1 UNK         0.0828 
    110 H110       21.6595  -31.7581  -40.7211 H         1 UNK         0.2931 
    111 H111       21.3547  -33.4669  -41.9827 H         1 UNK         0.0412 
    112 H112       21.1649  -35.4663  -38.7279 H         1 UNK         0.3472 
    113 H113       21.5399  -33.7722  -38.9472 H         1 UNK         0.3472 
    114 H114       18.3792  -33.8518  -41.8719 H         1 UNK         0.0970 
    115 H115       18.8440  -32.2638  -42.3544 H         1 UNK         0.0970 
    116 H116       21.1676  -32.8345  -45.4048 H         1 UNK         0.0612 
    117 H117       21.0733  -31.9950  -43.8788 H         1 UNK         0.0612 
@<TRIPOS>BOND
     1    1    2 1    
     2    1   62 1    
     3    1   63 1    
     4    1   64 1    
     5    2    3 2    
     6    2    4 am   BACKBONE|DICT|INTERRES
     7    4    5 1    
     8    4   65 1    
     9    5    6 1    
    10    5   25 1    
    11    5   66 1    
    12    6    7 1    
    13    6   67 1    
    14    6   68 1    
    15    7    8 1    
    16    8    9 1    
    17    8   69 1    
    18    8   70 1    
    19    9   10 ar   
    20    9   14 ar   
    21   10   11 ar   
    22   10   71 1    
    23   11   12 ar   
    24   11   61 1    
    25   12   13 ar   
    26   12   72 1    
    27   13   14 ar   
    28   13   15 1    
    29   14   73 1    
    30   15   16 1    
    31   15   74 1    
    32   15   75 1    
    33   16   17 1    
    34   17   18 1    
    35   17   76 1    
    36   17   77 1    
    37   18   19 1    
    38   18   27 1    
    39   18   78 1    
    40   19   20 am   BACKBONE|DICT|INTERRES
    41   19   79 1    
    42   20   21 2    
    43   20   22 1    
    44   22   23 1    
    45   22   24 1    
    46   22   80 1    
    47   23   81 1    
    48   23   82 1    
    49   23   83 1    
    50   24   25 am   BACKBONE|DICT|INTERRES
    51   24   84 1    
    52   25   26 2    
    53   27   28 2    
    54   27   29 am   BACKBONE|DICT|INTERRES
    55   29   30 1    
    56   29   85 1    
    57   30   31 1    
    58   30   32 1    
    59   30   86 1    
    60   31   87 1    
    61   31   88 1    
    62   31   89 1    
    63   32   33 2    
    64   32   34 am   BACKBONE|DICT|INTERRES
    65   34   35 1    
    66   34   90 1    
    67   35   36 1    
    68   35   37 1    
    69   35   91 1    
    70   36   92 1    
    71   36   93 1    
    72   36   94 1    
    73   37   38 2    
    74   37   39 am   BACKBONE|DICT|INTERRES
    75   39   40 1    
    76   39   95 1    
    77   40   41 1    
    78   40   42 1    
    79   40   96 1    
    80   41   97 1    
    81   41   98 1    
    82   41   99 1    
    83   42   43 2    
    84   42   44 am   BACKBONE|DICT|INTERRES
    85   44   45 1    
    86   44  100 1    
    87   45   46 1    
    88   45   47 1    
    89   45  101 1    
    90   46  102 1    
    91   46  103 1    
    92   46  104 1    
    93   47   48 2    
    94   47   49 am   BACKBONE|DICT|INTERRES
    95   49   50 1    
    96   49  105 1    
    97   50   51 1    
    98   50   52 1    
    99   50  106 1    
   100   51  107 1    
   101   51  108 1    
   102   51  109 1    
   103   52   53 2    
   104   52   54 am   BACKBONE|DICT|INTERRES
   105   54   55 1    
   106   54  110 1    
   107   55   56 1    
   108   55   59 1    
   109   55  111 1    
   110   56   57 am   BACKBONE|DICT|INTERRES
   111   56   58 2    
   112   57  112 1    
   113   57  113 1    
   114   59   60 1    
   115   59  114 1    
   116   59  115 1    
   117   60   61 1    
   118   61  116 1    
   119   61  117 1    
@<TRIPOS>SUBSTRUCTURE
     1 UNK         1 GROUP             0       ****    0 ROOT    
