@<TRIPOS>MOLECULE
3R8
117   119    1
SMALL
USER_CHARGES


@<TRIPOS>ATOM
      1 CA         15.9644  -23.8486  -47.5287 C.3       0 UNK        -0.2013 
      2 C          16.4417  -24.3446  -46.1720 C.2       0 UNK         0.4866 
      3 O          16.3993  -23.5910  -45.1996 O.2       0 UNK        -0.5176 
      4 N          16.9018  -25.6027  -46.1077 N.am      1 UNK        -0.4884 
      5 CA         17.3853  -26.2996  -44.9034 C.3       1 UNK         0.0853 
      6 C6         16.2788  -26.5404  -43.8354 C.3       10 UNK        -0.0849 
      7 S7         14.9821  -27.6638  -44.4647 S.3       10 UNK        -0.2776 
      8 C8         15.0487  -29.0616  -43.2845 C.3       10 UNK         0.0316 
      9 C9         16.4330  -29.6886  -43.1229 C.ar      10 UNK        -0.0863 
     10 C10        16.8937  -30.0324  -41.8479 C.ar      10 UNK        -0.1009 
     11 C11        18.1626  -30.5918  -41.6617 C.ar      10 UNK        -0.0712 
     12 C12        18.9900  -30.7739  -42.7787 C.ar      10 UNK        -0.0894 
     13 C13        18.5258  -30.4810  -44.0636 C.ar      10 UNK        -0.0745 
     14 C14        17.2450  -29.9492  -44.2300 C.ar      10 UNK        -0.0972 
     15 C15        19.3845  -30.7691  -45.2835 C.3       10 UNK         0.0209 
     16 S16        20.1122  -29.2491  -45.9653 S.3       10 UNK        -0.2568 
     17 C17        21.8286  -29.2856  -45.3273 C.3       10 UNK        -0.0983 
     18 CA         22.2100  -28.1034  -44.3939 C.3       3 UNK         0.0876 
     19 N          21.5875  -26.8503  -44.8229 N.am      3 UNK        -0.4424 
     20 C          21.8057  -25.6229  -44.3373 C.2       2 UNK         0.4918 
     21 O          22.6677  -25.3597  -43.4997 O.2       2 UNK        -0.4875 
     22 CA         20.8326  -24.5273  -44.8170 C.3       2 UNK         0.0481 
     23 CB         21.4228  -23.7707  -46.0164 C.3       2 UNK        -0.1831 
     24 N          19.5027  -25.0504  -45.1705 N.am      2 UNK        -0.4498 
     25 C          18.6751  -25.6796  -44.3184 C.2       1 UNK         0.5027 
     26 O          18.9426  -25.8323  -43.1270 O.2       1 UNK        -0.4969 
     27 C          21.9953  -28.4440  -42.9021 C.2       3 UNK         0.5005 
     28 O          22.7890  -29.2155  -42.3608 O.2       3 UNK        -0.5279 
     29 N          20.9941  -27.8407  -42.2396 N.am      4 UNK        -0.4463 
     30 CA         20.7837  -27.9515  -40.7937 C.3       4 UNK         0.0283 
     31 CB         19.4238  -27.3477  -40.4111 C.3       4 UNK        -0.1875 
     32 C          21.9023  -27.2922  -39.9706 C.2       4 UNK         0.4949 
     33 O          22.2209  -27.7903  -38.8921 O.2       4 UNK        -0.5039 
     34 N          22.5043  -26.2128  -40.4954 N.am      5 UNK        -0.4663 
     35 CA         23.6414  -25.5265  -39.8707 C.3       5 UNK         0.0242 
     36 CB         23.8161  -24.1350  -40.4993 C.3       5 UNK        -0.1982 
     37 C          24.9432  -26.3387  -39.9756 C.2       5 UNK         0.5017 
     38 O          25.7809  -26.2617  -39.0769 O.2       5 UNK        -0.5012 
     39 N          25.0710  -27.1228  -41.0549 N.am      6 UNK        -0.4439 
     40 CA         26.1506  -28.0899  -41.2673 C.3       6 UNK         0.0297 
     41 CB         26.2890  -28.3545  -42.7765 C.3       6 UNK        -0.2006 
     42 C          25.9239  -29.4155  -40.5140 C.2       6 UNK         0.4892 
     43 O          26.8604  -30.2088  -40.4148 O.2       6 UNK        -0.5089 
     44 N          24.6906  -29.6397  -40.0320 N.am      7 UNK        -0.4243 
     45 CA         24.1649  -30.8703  -39.4303 C.3       7 UNK         0.0196 
     46 CB         24.8692  -31.1849  -38.0939 C.3       7 UNK        -0.2007 
     47 C          24.1688  -32.0586  -40.4126 C.2       7 UNK         0.5020 
     48 O          24.3257  -33.2070  -39.9951 O.2       7 UNK        -0.5147 
     49 N          23.9712  -31.7711  -41.7056 N.am      8 UNK        -0.4734 
     50 CA         23.9448  -32.7453  -42.7988 C.3       8 UNK         0.0238 
     51 CB         24.6061  -32.1134  -44.0379 C.3       8 UNK        -0.1912 
     52 C          22.5053  -33.2242  -43.0590 C.2       8 UNK         0.5038 
     53 O          22.0385  -33.2021  -44.1985 O.2       8 UNK        -0.5046 
     54 N          21.8188  -33.6125  -41.9794 N.am      9 UNK        -0.4200 
     55 CA         20.3909  -33.9637  -41.9500 C.3       9 UNK         0.0839 
     56 C          20.0840  -35.4453  -42.3100 C.2       9 UNK         0.5513 
     57 N          21.0771  -36.2938  -42.5481 N.am      9 UNK        -0.7519 
     58 O          18.9203  -35.8313  -42.3822 O.2       9 UNK        -0.4960 
     59 C59        19.7330  -33.5564  -40.6012 C.3       10 UNK        -0.0876 
     60 S60        20.1581  -31.8621  -40.0503 S.3       10 UNK        -0.2414 
     61 C61        18.5778  -30.9645  -40.2350 C.3       10 UNK         0.0169 
     62 H62        14.9168  -23.5540  -47.4720 H         1 UNK         0.0903 
     63 H63        16.5462  -22.9803  -47.8370 H         1 UNK         0.0903 
     64 H64        16.0596  -24.6122  -48.3005 H         1 UNK         0.0903 
     65 H65        16.8980  -26.1636  -46.9492 H         1 UNK         0.3096 
     66 H66        17.7095  -27.2825  -45.2478 H         1 UNK         0.1121 
     67 H67        15.8177  -25.6000  -43.5311 H         1 UNK         0.0849 
     68 H68        16.6965  -26.9708  -42.9238 H         1 UNK         0.0849 
     69 H69        14.3534  -29.8336  -43.6163 H         1 UNK         0.0865 
     70 H70        14.6766  -28.7087  -42.3213 H         1 UNK         0.0865 
     71 H71        16.2593  -29.8635  -40.9881 H         1 UNK         0.1346 
     72 H72        19.9923  -31.1586  -42.6638 H         1 UNK         0.1412 
     73 H73        16.8869  -29.7227  -45.2250 H         1 UNK         0.1426 
     74 H74        18.7629  -31.2278  -46.0538 H         1 UNK         0.0716 
     75 H75        20.1576  -31.5027  -45.0547 H         1 UNK         0.0716 
     76 H76        22.4785  -29.2582  -46.2032 H         1 UNK         0.0695 
     77 H77        22.0340  -30.2486  -44.8578 H         1 UNK         0.0695 
     78 H78        23.2872  -27.9524  -44.4919 H         1 UNK         0.0983 
     79 H79        20.8520  -26.9644  -45.5054 H         1 UNK         0.3095 
     80 H80        20.7037  -23.8201  -43.9951 H         1 UNK         0.0454 
     81 H81        21.5556  -24.4214  -46.8815 H         1 UNK         0.0851 
     82 H82        22.4002  -23.3529  -45.7703 H         1 UNK         0.0851 
     83 H83        20.7841  -22.9393  -46.3150 H         1 UNK         0.0851 
     84 H84        19.2095  -24.9518  -46.1321 H         1 UNK         0.2976 
     85 H85        20.3715  -27.2113  -42.7358 H         1 UNK         0.3116 
     86 H86        20.7721  -29.0129  -40.5442 H         1 UNK         0.0646 
     87 H87        18.6151  -27.7718  -41.0056 H         1 UNK         0.0847 
     88 H88        19.4077  -26.2663  -40.5515 H         1 UNK         0.0847 
     89 H89        19.1946  -27.5405  -39.3625 H         1 UNK         0.0847 
     90 H90        22.2099  -25.8752  -41.4044 H         1 UNK         0.3040 
     91 H91        23.4206  -25.3946  -38.8087 H         1 UNK         0.1015 
     92 H92        24.6122  -23.5811  -39.9999 H         1 UNK         0.0786 
     93 H93        22.9055  -23.5418  -40.4124 H         1 UNK         0.0786 
     94 H94        24.0781  -24.1959  -41.5560 H         1 UNK         0.0786 
     95 H95        24.3278  -27.1099  -41.7387 H         1 UNK         0.3172 
     96 H96        27.0876  -27.6593  -40.9077 H         1 UNK         0.0595 
     97 H97        25.3956  -28.8234  -43.1900 H         1 UNK         0.0839 
     98 H98        27.1265  -29.0238  -42.9785 H         1 UNK         0.0839 
     99 H99        26.4732  -27.4325  -43.3283 H         1 UNK         0.0839 
    100 H100       23.9984  -28.9213  -40.1954 H         1 UNK         0.2998 
    101 H101       23.1151  -30.6694  -39.2097 H         1 UNK         0.0822 
    102 H102       24.8449  -30.3265  -37.4225 H         1 UNK         0.0787 
    103 H103       24.3780  -32.0116  -37.5794 H         1 UNK         0.0787 
    104 H104       25.9117  -31.4682  -38.2410 H         1 UNK         0.0787 
    105 H105       23.7289  -30.8124  -41.9499 H         1 UNK         0.3055 
    106 H106       24.5293  -33.6266  -42.5249 H         1 UNK         0.1106 
    107 H107       24.0869  -31.2110  -44.3584 H         1 UNK         0.0828 
    108 H108       24.6117  -32.8074  -44.8794 H         1 UNK         0.0828 
    109 H109       25.6428  -31.8440  -43.8352 H         1 UNK         0.0828 
    110 H110       22.2926  -33.6039  -41.0864 H         1 UNK         0.2931 
    111 H111       19.8950  -33.3908  -42.7333 H         1 UNK         0.0412 
    112 H112       20.8650  -37.2507  -42.7843 H         1 UNK         0.3472 
    113 H113       22.0349  -35.9859  -42.4966 H         1 UNK         0.3472 
    114 H114       18.6478  -33.6522  -40.6688 H         1 UNK         0.0970 
    115 H115       20.0439  -34.2419  -39.8107 H         1 UNK         0.0970 
    116 H116       18.6467  -30.0485  -39.6484 H         1 UNK         0.0612 
    117 H117       17.7874  -31.5580  -39.7733 H         1 UNK         0.0612 
@<TRIPOS>BOND
     1    1    2 1    
     2    1   62 1    
     3    1   63 1    
     4    1   64 1    
     5    2    3 2    
     6    2    4 am   BACKBONE|DICT|INTERRES
     7    4    5 1    
     8    4   65 1    
     9    5    6 1    
    10    5   25 1    
    11    5   66 1    
    12    6    7 1    
    13    6   67 1    
    14    6   68 1    
    15    7    8 1    
    16    8    9 1    
    17    8   69 1    
    18    8   70 1    
    19    9   10 ar   
    20    9   14 ar   
    21   10   11 ar   
    22   10   71 1    
    23   11   12 ar   
    24   11   61 1    
    25   12   13 ar   
    26   12   72 1    
    27   13   14 ar   
    28   13   15 1    
    29   14   73 1    
    30   15   16 1    
    31   15   74 1    
    32   15   75 1    
    33   16   17 1    
    34   17   18 1    
    35   17   76 1    
    36   17   77 1    
    37   18   19 1    
    38   18   27 1    
    39   18   78 1    
    40   19   20 am   BACKBONE|DICT|INTERRES
    41   19   79 1    
    42   20   21 2    
    43   20   22 1    
    44   22   23 1    
    45   22   24 1    
    46   22   80 1    
    47   23   81 1    
    48   23   82 1    
    49   23   83 1    
    50   24   25 am   BACKBONE|DICT|INTERRES
    51   24   84 1    
    52   25   26 2    
    53   27   28 2    
    54   27   29 am   BACKBONE|DICT|INTERRES
    55   29   30 1    
    56   29   85 1    
    57   30   31 1    
    58   30   32 1    
    59   30   86 1    
    60   31   87 1    
    61   31   88 1    
    62   31   89 1    
    63   32   33 2    
    64   32   34 am   BACKBONE|DICT|INTERRES
    65   34   35 1    
    66   34   90 1    
    67   35   36 1    
    68   35   37 1    
    69   35   91 1    
    70   36   92 1    
    71   36   93 1    
    72   36   94 1    
    73   37   38 2    
    74   37   39 am   BACKBONE|DICT|INTERRES
    75   39   40 1    
    76   39   95 1    
    77   40   41 1    
    78   40   42 1    
    79   40   96 1    
    80   41   97 1    
    81   41   98 1    
    82   41   99 1    
    83   42   43 2    
    84   42   44 am   BACKBONE|DICT|INTERRES
    85   44   45 1    
    86   44  100 1    
    87   45   46 1    
    88   45   47 1    
    89   45  101 1    
    90   46  102 1    
    91   46  103 1    
    92   46  104 1    
    93   47   48 2    
    94   47   49 am   BACKBONE|DICT|INTERRES
    95   49   50 1    
    96   49  105 1    
    97   50   51 1    
    98   50   52 1    
    99   50  106 1    
   100   51  107 1    
   101   51  108 1    
   102   51  109 1    
   103   52   53 2    
   104   52   54 am   BACKBONE|DICT|INTERRES
   105   54   55 1    
   106   54  110 1    
   107   55   56 1    
   108   55   59 1    
   109   55  111 1    
   110   56   57 am   BACKBONE|DICT|INTERRES
   111   56   58 2    
   112   57  112 1    
   113   57  113 1    
   114   59   60 1    
   115   59  114 1    
   116   59  115 1    
   117   60   61 1    
   118   61  116 1    
   119   61  117 1    
@<TRIPOS>SUBSTRUCTURE
     1 UNK         1 GROUP             0       ****    0 ROOT    
