@<TRIPOS>MOLECULE
3R8
117   119    1
SMALL
USER_CHARGES


@<TRIPOS>ATOM
      1 CA         15.3994  -27.4335  -40.5466 C.3       0 UNK        -0.2013 
      2 C          15.8382  -26.6842  -41.7958 C.2       0 UNK         0.4866 
      3 O          15.5971  -25.4811  -41.9051 O.2       0 UNK        -0.5176 
      4 N          16.4730  -27.3862  -42.7407 N.am      1 UNK        -0.4884 
      5 CA         17.0436  -26.8075  -43.9624 C.3       1 UNK         0.0853 
      6 C6         17.3362  -27.9011  -45.0128 C.3       10 UNK        -0.0849 
      7 S7         15.8370  -28.5980  -45.7858 S.3       10 UNK        -0.2776 
      8 C8         15.8828  -30.3549  -45.2748 C.3       10 UNK         0.0316 
      9 C9         17.2248  -31.0715  -45.4500 C.ar      10 UNK        -0.0863 
     10 C10        17.5002  -32.1685  -44.6301 C.ar      10 UNK        -0.1009 
     11 C11        18.7404  -32.8074  -44.6824 C.ar      10 UNK        -0.0712 
     12 C12        19.7239  -32.3330  -45.5551 C.ar      10 UNK        -0.0894 
     13 C13        19.4606  -31.2483  -46.3966 C.ar      10 UNK        -0.0745 
     14 C14        18.1966  -30.6516  -46.3694 C.ar      10 UNK        -0.0972 
     15 C15        20.5457  -30.7103  -47.3225 C.3       10 UNK         0.0209 
     16 S16        20.9718  -28.9687  -46.9723 S.3       10 UNK        -0.2568 
     17 C17        21.5667  -29.0679  -45.2498 C.3       10 UNK        -0.0983 
     18 CA         22.1115  -27.7204  -44.7042 C.3       3 UNK         0.0876 
     19 N          21.1416  -26.6334  -44.8798 N.am      3 UNK        -0.4424 
     20 C          21.3032  -25.3432  -44.5522 C.2       2 UNK         0.4918 
     21 O          22.3713  -24.8641  -44.1704 O.2       2 UNK        -0.4875 
     22 CA         20.0441  -24.4493  -44.5934 C.3       2 UNK         0.0481 
     23 CB         20.0921  -23.5197  -45.8162 C.3       2 UNK        -0.1831 
     24 N          18.7635  -25.1769  -44.5903 N.am      2 UNK        -0.4498 
     25 C          18.3543  -26.0544  -43.6589 C.2       1 UNK         0.5027 
     26 O          19.0258  -26.3578  -42.6700 O.2       1 UNK        -0.4969 
     27 C          22.5591  -27.9063  -43.2344 C.2       3 UNK         0.5005 
     28 O          23.6094  -28.5084  -43.0030 O.2       3 UNK        -0.5279 
     29 N          21.7761  -27.3959  -42.2659 N.am      4 UNK        -0.4463 
     30 CA         21.9820  -27.4994  -40.8161 C.3       4 UNK         0.0283 
     31 CB         20.8459  -26.7764  -40.0762 C.3       4 UNK        -0.1875 
     32 C          23.3462  -27.0206  -40.2949 C.2       4 UNK         0.4949 
     33 O          23.7602  -27.4627  -39.2240 O.2       4 UNK        -0.5039 
     34 N          24.0393  -26.1776  -41.0712 N.am      5 UNK        -0.4663 
     35 CA         25.4218  -25.7587  -40.8315 C.3       5 UNK         0.0242 
     36 CB         25.7965  -24.6773  -41.8578 C.3       5 UNK        -0.1982 
     37 C          26.4457  -26.9129  -40.8684 C.2       5 UNK         0.5017 
     38 O          27.5199  -26.7628  -40.2845 O.2       5 UNK        -0.5012 
     39 N          26.1099  -28.0252  -41.5399 N.am      6 UNK        -0.4439 
     40 CA         26.9509  -29.2201  -41.6432 C.3       6 UNK         0.0297 
     41 CB         27.5784  -29.2844  -43.0460 C.3       6 UNK        -0.2006 
     42 C          26.1804  -30.5137  -41.3370 C.2       6 UNK         0.4892 
     43 O          26.7290  -31.3891  -40.6669 O.2       6 UNK        -0.5089 
     44 N          24.9448  -30.6335  -41.8411 N.am      7 UNK        -0.4243 
     45 CA         24.1464  -31.8620  -41.7876 C.3       7 UNK         0.0196 
     46 CB         23.2842  -31.9360  -43.0603 C.3       7 UNK        -0.2007 
     47 C          23.2487  -31.9682  -40.5440 C.2       7 UNK         0.5020 
     48 O          22.6863  -33.0368  -40.3116 O.2       7 UNK        -0.5147 
     49 N          23.0737  -30.8652  -39.8016 N.am      8 UNK        -0.4734 
     50 CA         22.1556  -30.6538  -38.6654 C.3       8 UNK         0.0238 
     51 CB         22.4266  -31.6408  -37.5128 C.3       8 UNK        -0.1912 
     52 C          20.6572  -30.6300  -39.0398 C.2       8 UNK         0.5038 
     53 O          19.9171  -29.8286  -38.4702 O.2       8 UNK        -0.5046 
     54 N          20.2404  -31.4700  -39.9941 N.am      9 UNK        -0.4200 
     55 CA         18.8881  -31.5254  -40.5771 C.3       9 UNK         0.0839 
     56 C          18.5287  -30.3537  -41.5385 C.2       9 UNK         0.5513 
     57 N          19.4810  -29.5451  -41.9791 N.am      9 UNK        -0.7519 
     58 O          17.3601  -30.1478  -41.8575 O.2       9 UNK        -0.4960 
     59 C59        18.5914  -32.9187  -41.1965 C.3       10 UNK        -0.0876 
     60 S60        19.9158  -33.5512  -42.2898 S.3       10 UNK        -0.2414 
     61 C61        19.0176  -34.0122  -43.7993 C.3       10 UNK         0.0169 
     62 H62        14.3367  -27.2746  -40.3658 H         1 UNK         0.0903 
     63 H63        15.5698  -28.5063  -40.6345 H         1 UNK         0.0903 
     64 H64        15.9522  -27.0718  -39.6801 H         1 UNK         0.0903 
     65 H65        16.6796  -28.3665  -42.5726 H         1 UNK         0.3096 
     66 H66        16.3308  -26.0907  -44.3769 H         1 UNK         0.1121 
     67 H67        17.9374  -28.6873  -44.5543 H         1 UNK         0.0849 
     68 H68        17.9369  -27.5121  -45.8376 H         1 UNK         0.0849 
     69 H69        15.5873  -30.3964  -44.2249 H         1 UNK         0.0865 
     70 H70        15.1197  -30.9004  -45.8312 H         1 UNK         0.0865 
     71 H71        16.7506  -32.5151  -43.9321 H         1 UNK         0.1346 
     72 H72        20.6944  -32.8099  -45.5742 H         1 UNK         0.1412 
     73 H73        17.9996  -29.8182  -47.0286 H         1 UNK         0.1426 
     74 H74        21.4515  -31.3148  -47.2543 H         1 UNK         0.0716 
     75 H75        20.2011  -30.7881  -48.3544 H         1 UNK         0.0716 
     76 H76        20.7436  -29.4281  -44.6291 H         1 UNK         0.0695 
     77 H77        22.3425  -29.8349  -45.2077 H         1 UNK         0.0695 
     78 H78        23.0032  -27.4515  -45.2740 H         1 UNK         0.0983 
     79 H79        20.2414  -26.9166  -45.2334 H         1 UNK         0.3095 
     80 H80        20.0645  -23.8307  -43.6941 H         1 UNK         0.0454 
     81 H81        20.0448  -24.0791  -46.7514 H         1 UNK         0.0851 
     82 H82        19.2678  -22.8064  -45.8075 H         1 UNK         0.0851 
     83 H83        21.0163  -22.9400  -45.8309 H         1 UNK         0.0851 
     84 H84        18.1586  -25.0011  -45.3805 H         1 UNK         0.2976 
     85 H85        20.9238  -26.9180  -42.5449 H         1 UNK         0.3116 
     86 H86        21.9139  -28.5570  -40.5776 H         1 UNK         0.0646 
     87 H87        20.7854  -25.7247  -40.3581 H         1 UNK         0.0847 
     88 H88        19.8798  -27.2366  -40.2838 H         1 UNK         0.0847 
     89 H89        20.9879  -26.8202  -38.9954 H         1 UNK         0.0847 
     90 H90        23.6115  -25.8670  -41.9332 H         1 UNK         0.3040 
     91 H91        25.4681  -25.3196  -39.8325 H         1 UNK         0.1015 
     92 H92        25.7431  -25.0557  -42.8796 H         1 UNK         0.0786 
     93 H93        26.8139  -24.3185  -41.6950 H         1 UNK         0.0786 
     94 H94        25.1348  -23.8138  -41.7849 H         1 UNK         0.0786 
     95 H95        25.2037  -28.0576  -41.9991 H         1 UNK         0.3172 
     96 H96        27.7636  -29.1678  -40.9156 H         1 UNK         0.0595 
     97 H97        28.2030  -30.1721  -43.1557 H         1 UNK         0.0839 
     98 H98        28.2121  -28.4178  -43.2349 H         1 UNK         0.0839 
     99 H99        26.8182  -29.3197  -43.8276 H         1 UNK         0.0839 
    100 H100       24.5405  -29.8641  -42.3733 H         1 UNK         0.2998 
    101 H101       24.8143  -32.7263  -41.7831 H         1 UNK         0.0822 
    102 H102       22.7711  -32.8960  -43.1272 H         1 UNK         0.0787 
    103 H103       22.5193  -31.1588  -43.0769 H         1 UNK         0.0787 
    104 H104       23.8896  -31.8324  -43.9609 H         1 UNK         0.0787 
    105 H105       23.6063  -30.0510  -40.0755 H         1 UNK         0.3055 
    106 H106       22.3867  -29.6561  -38.2879 H         1 UNK         0.1106 
    107 H107       23.4745  -31.6230  -37.2136 H         1 UNK         0.0828 
    108 H108       21.8346  -31.3806  -36.6344 H         1 UNK         0.0828 
    109 H109       22.1700  -32.6663  -37.7791 H         1 UNK         0.0828 
    110 H110       20.9154  -32.1236  -40.3783 H         1 UNK         0.2931 
    111 H111       18.1931  -31.4126  -39.7428 H         1 UNK         0.0412 
    112 H112       19.2263  -28.7440  -42.5318 H         1 UNK         0.3472 
    113 H113       20.4374  -29.7051  -41.7168 H         1 UNK         0.3472 
    114 H114       18.4749  -33.6442  -40.3902 H         1 UNK         0.0970 
    115 H115       17.6329  -32.9183  -41.7175 H         1 UNK         0.0970 
    116 H116       19.6190  -34.7345  -44.3532 H         1 UNK         0.0612 
    117 H117       18.0919  -34.5271  -43.5376 H         1 UNK         0.0612 
@<TRIPOS>BOND
     1    1    2 1    
     2    1   62 1    
     3    1   63 1    
     4    1   64 1    
     5    2    3 2    
     6    2    4 am   BACKBONE|DICT|INTERRES
     7    4    5 1    
     8    4   65 1    
     9    5    6 1    
    10    5   25 1    
    11    5   66 1    
    12    6    7 1    
    13    6   67 1    
    14    6   68 1    
    15    7    8 1    
    16    8    9 1    
    17    8   69 1    
    18    8   70 1    
    19    9   10 ar   
    20    9   14 ar   
    21   10   11 ar   
    22   10   71 1    
    23   11   12 ar   
    24   11   61 1    
    25   12   13 ar   
    26   12   72 1    
    27   13   14 ar   
    28   13   15 1    
    29   14   73 1    
    30   15   16 1    
    31   15   74 1    
    32   15   75 1    
    33   16   17 1    
    34   17   18 1    
    35   17   76 1    
    36   17   77 1    
    37   18   19 1    
    38   18   27 1    
    39   18   78 1    
    40   19   20 am   BACKBONE|DICT|INTERRES
    41   19   79 1    
    42   20   21 2    
    43   20   22 1    
    44   22   23 1    
    45   22   24 1    
    46   22   80 1    
    47   23   81 1    
    48   23   82 1    
    49   23   83 1    
    50   24   25 am   BACKBONE|DICT|INTERRES
    51   24   84 1    
    52   25   26 2    
    53   27   28 2    
    54   27   29 am   BACKBONE|DICT|INTERRES
    55   29   30 1    
    56   29   85 1    
    57   30   31 1    
    58   30   32 1    
    59   30   86 1    
    60   31   87 1    
    61   31   88 1    
    62   31   89 1    
    63   32   33 2    
    64   32   34 am   BACKBONE|DICT|INTERRES
    65   34   35 1    
    66   34   90 1    
    67   35   36 1    
    68   35   37 1    
    69   35   91 1    
    70   36   92 1    
    71   36   93 1    
    72   36   94 1    
    73   37   38 2    
    74   37   39 am   BACKBONE|DICT|INTERRES
    75   39   40 1    
    76   39   95 1    
    77   40   41 1    
    78   40   42 1    
    79   40   96 1    
    80   41   97 1    
    81   41   98 1    
    82   41   99 1    
    83   42   43 2    
    84   42   44 am   BACKBONE|DICT|INTERRES
    85   44   45 1    
    86   44  100 1    
    87   45   46 1    
    88   45   47 1    
    89   45  101 1    
    90   46  102 1    
    91   46  103 1    
    92   46  104 1    
    93   47   48 2    
    94   47   49 am   BACKBONE|DICT|INTERRES
    95   49   50 1    
    96   49  105 1    
    97   50   51 1    
    98   50   52 1    
    99   50  106 1    
   100   51  107 1    
   101   51  108 1    
   102   51  109 1    
   103   52   53 2    
   104   52   54 am   BACKBONE|DICT|INTERRES
   105   54   55 1    
   106   54  110 1    
   107   55   56 1    
   108   55   59 1    
   109   55  111 1    
   110   56   57 am   BACKBONE|DICT|INTERRES
   111   56   58 2    
   112   57  112 1    
   113   57  113 1    
   114   59   60 1    
   115   59  114 1    
   116   59  115 1    
   117   60   61 1    
   118   61  116 1    
   119   61  117 1    
@<TRIPOS>SUBSTRUCTURE
     1 UNK         1 GROUP             0       ****    0 ROOT    
