@<TRIPOS>MOLECULE
3R8
117   119    1
SMALL
USER_CHARGES


@<TRIPOS>ATOM
      1 CA         17.8952  -23.3273  -48.4811 C.3       0 UNK        -0.2013 
      2 C          18.7328  -24.5460  -48.1237 C.2       0 UNK         0.4866 
      3 O          19.9229  -24.5836  -48.4365 O.2       0 UNK        -0.5176 
      4 N          18.1215  -25.5433  -47.4698 N.am      1 UNK        -0.4884 
      5 CA         18.7781  -26.7877  -47.0432 C.3       1 UNK         0.0853 
      6 C6         17.7359  -27.9094  -46.7962 C.3       10 UNK        -0.0849 
      7 S7         18.4357  -29.5818  -47.0191 S.3       10 UNK        -0.2776 
      8 C8         17.1231  -30.6385  -46.3288 C.3       10 UNK         0.0316 
      9 C9         17.0184  -30.5142  -44.8150 C.ar      10 UNK        -0.0863 
     10 C10        17.8792  -31.2360  -43.9825 C.ar      10 UNK        -0.1009 
     11 C11        17.7691  -31.1396  -42.5910 C.ar      10 UNK        -0.0712 
     12 C12        16.7927  -30.3088  -42.0322 C.ar      10 UNK        -0.0894 
     13 C13        15.9432  -29.5648  -42.8573 C.ar      10 UNK        -0.0745 
     14 C14        16.0493  -29.6856  -44.2449 C.ar      10 UNK        -0.0972 
     15 C15        14.9158  -28.6138  -42.2662 C.3       10 UNK         0.0209 
     16 S16        15.5064  -26.8924  -42.3415 S.3       10 UNK        -0.2568 
     17 C17        16.5965  -26.8091  -40.8822 C.3       10 UNK        -0.0983 
     18 CA         18.0929  -27.0648  -41.1947 C.3       3 UNK         0.0876 
     19 N          18.6212  -26.1531  -42.2121 N.am      3 UNK        -0.4424 
     20 C          19.8687  -26.1811  -42.6997 C.2       2 UNK         0.4918 
     21 O          20.7308  -26.9867  -42.3435 O.2       2 UNK        -0.4875 
     22 CA         20.1681  -25.1485  -43.8006 C.3       2 UNK         0.0481 
     23 CB         21.6797  -24.9178  -44.0165 C.3       2 UNK        -0.1831 
     24 N          19.4906  -25.5051  -45.0540 N.am      2 UNK        -0.4498 
     25 C          19.7034  -26.5909  -45.8184 C.2       1 UNK         0.5027 
     26 O          20.5874  -27.4181  -45.6032 O.2       1 UNK        -0.4969 
     27 C          18.9080  -27.0014  -39.8880 C.2       3 UNK         0.5005 
     28 O          19.1582  -25.9047  -39.3815 O.2       3 UNK        -0.5279 
     29 N          19.2805  -28.1795  -39.3668 N.am      4 UNK        -0.4463 
     30 CA         20.0255  -28.4005  -38.1206 C.3       4 UNK         0.0283 
     31 CB         19.2144  -27.9241  -36.8963 C.3       4 UNK        -0.1875 
     32 C          21.4656  -27.8458  -38.1280 C.2       4 UNK         0.4949 
     33 O          22.0483  -27.6663  -37.0581 O.2       4 UNK        -0.5039 
     34 N          22.0439  -27.6315  -39.3202 N.am      5 UNK        -0.4663 
     35 CA         23.4427  -27.2192  -39.5006 C.3       5 UNK         0.0242 
     36 CB         23.6068  -26.5829  -40.8900 C.3       5 UNK        -0.1982 
     37 C          24.4502  -28.3699  -39.3109 C.2       5 UNK         0.5017 
     38 O          25.6560  -28.1190  -39.3303 O.2       5 UNK        -0.5012 
     39 N          23.9470  -29.6049  -39.1613 N.am      6 UNK        -0.4439 
     40 CA         24.6461  -30.8799  -38.9548 C.3       6 UNK         0.0297 
     41 CB         25.5278  -30.8579  -37.6907 C.3       6 UNK        -0.2006 
     42 C          25.4331  -31.3635  -40.1825 C.2       6 UNK         0.4892 
     43 O          25.2307  -32.4993  -40.6082 O.2       6 UNK        -0.5089 
     44 N          26.2869  -30.4984  -40.7437 N.am      7 UNK        -0.4243 
     45 CA         27.0811  -30.7617  -41.9455 C.3       7 UNK         0.0196 
     46 CB         28.1304  -29.6526  -42.1238 C.3       7 UNK        -0.2007 
     47 C          26.2084  -30.8991  -43.2025 C.2       7 UNK         0.5020 
     48 O          26.3977  -31.8381  -43.9754 O.2       7 UNK        -0.5147 
     49 N          25.2435  -29.9822  -43.3654 N.am      8 UNK        -0.4734 
     50 CA         24.2794  -29.9897  -44.4724 C.3       8 UNK         0.0238 
     51 CB         23.5805  -28.6242  -44.5510 C.3       8 UNK        -0.1912 
     52 C          23.2412  -31.1206  -44.3573 C.2       8 UNK         0.5038 
     53 O          22.7483  -31.5964  -45.3804 O.2       8 UNK        -0.5046 
     54 N          22.9524  -31.5365  -43.1185 N.am      9 UNK        -0.4200 
     55 CA         22.0784  -32.6681  -42.7799 C.3       9 UNK         0.0839 
     56 C          22.7607  -34.0619  -42.9158 C.2       9 UNK         0.5513 
     57 N          24.0407  -34.1589  -43.2563 N.am      9 UNK        -0.7519 
     58 O          22.1048  -35.0830  -42.7266 O.2       9 UNK        -0.4960 
     59 C59        21.4269  -32.4740  -41.3838 C.3       10 UNK        -0.0876 
     60 S60        20.2582  -31.0697  -41.3746 S.3       10 UNK        -0.2414 
     61 C61        18.6961  -31.9500  -41.6993 C.3       10 UNK         0.0169 
     62 H62        16.8627  -23.4282  -48.1472 H         1 UNK         0.0903 
     63 H63        18.3154  -22.4345  -48.0189 H         1 UNK         0.0903 
     64 H64        17.8888  -23.1806  -49.5609 H         1 UNK         0.0903 
     65 H65        17.1390  -25.4610  -47.2466 H         1 UNK         0.3096 
     66 H66        19.4230  -27.1030  -47.8674 H         1 UNK         0.1121 
     67 H67        17.2933  -27.8109  -45.8042 H         1 UNK         0.0849 
     68 H68        16.9102  -27.8209  -47.5042 H         1 UNK         0.0849 
     69 H69        16.1714  -30.3942  -46.8037 H         1 UNK         0.0865 
     70 H70        17.3330  -31.6761  -46.5929 H         1 UNK         0.0865 
     71 H71        18.6358  -31.8746  -44.4184 H         1 UNK         0.1346 
     72 H72        16.7051  -30.2291  -40.9573 H         1 UNK         0.1412 
     73 H73        15.3850  -29.1168  -44.8815 H         1 UNK         0.1426 
     74 H74        14.6684  -28.8878  -41.2396 H         1 UNK         0.0716 
     75 H75        13.9855  -28.6898  -42.8313 H         1 UNK         0.0716 
     76 H76        16.2357  -27.5160  -40.1325 H         1 UNK         0.0695 
     77 H77        16.4689  -25.8189  -40.4400 H         1 UNK         0.0695 
     78 H78        18.1975  -28.0666  -41.6119 H         1 UNK         0.0983 
     79 H79        17.9716  -25.4662  -42.5641 H         1 UNK         0.3095 
     80 H80        19.7403  -24.1986  -43.4765 H         1 UNK         0.0454 
     81 H81        22.1462  -24.5448  -43.1045 H         1 UNK         0.0851 
     82 H82        21.8607  -24.1812  -44.7988 H         1 UNK         0.0851 
     83 H83        22.2032  -25.8336  -44.2916 H         1 UNK         0.0851 
     84 H84        18.7418  -24.8893  -45.3376 H         1 UNK         0.2976 
     85 H85        19.0580  -29.0201  -39.8835 H         1 UNK         0.3116 
     86 H86        20.1325  -29.4828  -38.0334 H         1 UNK         0.0646 
     87 H87        19.1284  -26.8377  -36.8637 H         1 UNK         0.0847 
     88 H88        19.6886  -28.2375  -35.9654 H         1 UNK         0.0847 
     89 H89        18.2075  -28.3411  -36.8989 H         1 UNK         0.0847 
     90 H90        21.4945  -27.7591  -40.1615 H         1 UNK         0.3040 
     91 H91        23.6818  -26.4612  -38.7513 H         1 UNK         0.1015 
     92 H92        23.3896  -27.2938  -41.6865 H         1 UNK         0.0786 
     93 H93        24.6247  -26.2213  -41.0421 H         1 UNK         0.0786 
     94 H94        22.9405  -25.7291  -41.0127 H         1 UNK         0.0786 
     95 H95        22.9399  -29.6728  -39.1984 H         1 UNK         0.3172 
     96 H96        23.8588  -31.6151  -38.7800 H         1 UNK         0.0595 
     97 H97        26.3611  -30.1604  -37.7795 H         1 UNK         0.0839 
     98 H98        25.9531  -31.8437  -37.4983 H         1 UNK         0.0839 
     99 H99        24.9497  -30.5775  -36.8102 H         1 UNK         0.0839 
    100 H100       26.3603  -29.5769  -40.3198 H         1 UNK         0.2998 
    101 H101       27.6060  -31.7086  -41.8010 H         1 UNK         0.0822 
    102 H102       28.8088  -29.6100  -41.2714 H         1 UNK         0.0787 
    103 H103       28.7385  -29.8298  -43.0121 H         1 UNK         0.0787 
    104 H104       27.6696  -28.6700  -42.2334 H         1 UNK         0.0787 
    105 H105       25.1647  -29.2379  -42.6881 H         1 UNK         0.3055 
    106 H106       24.8323  -30.1449  -45.4020 H         1 UNK         0.1106 
    107 H107       22.9700  -28.5625  -45.4524 H         1 UNK         0.0828 
    108 H108       22.9149  -28.4552  -43.7036 H         1 UNK         0.0828 
    109 H109       24.2966  -27.8035  -44.5920 H         1 UNK         0.0828 
    110 H110       23.4345  -31.1025  -42.3476 H         1 UNK         0.2931 
    111 H111       21.2674  -32.6845  -43.5110 H         1 UNK         0.0412 
    112 H112       24.4592  -35.0716  -43.3413 H         1 UNK         0.3472 
    113 H113       24.6027  -33.3325  -43.4002 H         1 UNK         0.3472 
    114 H114       20.8980  -33.3732  -41.0620 H         1 UNK         0.0970 
    115 H115       22.1937  -32.3010  -40.6274 H         1 UNK         0.0970 
    116 H116       18.8964  -32.9085  -42.1806 H         1 UNK         0.0612 
    117 H117       18.2116  -32.1814  -40.7496 H         1 UNK         0.0612 
@<TRIPOS>BOND
     1    1    2 1    
     2    1   62 1    
     3    1   63 1    
     4    1   64 1    
     5    2    3 2    
     6    2    4 am   BACKBONE|DICT|INTERRES
     7    4    5 1    
     8    4   65 1    
     9    5    6 1    
    10    5   25 1    
    11    5   66 1    
    12    6    7 1    
    13    6   67 1    
    14    6   68 1    
    15    7    8 1    
    16    8    9 1    
    17    8   69 1    
    18    8   70 1    
    19    9   10 ar   
    20    9   14 ar   
    21   10   11 ar   
    22   10   71 1    
    23   11   12 ar   
    24   11   61 1    
    25   12   13 ar   
    26   12   72 1    
    27   13   14 ar   
    28   13   15 1    
    29   14   73 1    
    30   15   16 1    
    31   15   74 1    
    32   15   75 1    
    33   16   17 1    
    34   17   18 1    
    35   17   76 1    
    36   17   77 1    
    37   18   19 1    
    38   18   27 1    
    39   18   78 1    
    40   19   20 am   BACKBONE|DICT|INTERRES
    41   19   79 1    
    42   20   21 2    
    43   20   22 1    
    44   22   23 1    
    45   22   24 1    
    46   22   80 1    
    47   23   81 1    
    48   23   82 1    
    49   23   83 1    
    50   24   25 am   BACKBONE|DICT|INTERRES
    51   24   84 1    
    52   25   26 2    
    53   27   28 2    
    54   27   29 am   BACKBONE|DICT|INTERRES
    55   29   30 1    
    56   29   85 1    
    57   30   31 1    
    58   30   32 1    
    59   30   86 1    
    60   31   87 1    
    61   31   88 1    
    62   31   89 1    
    63   32   33 2    
    64   32   34 am   BACKBONE|DICT|INTERRES
    65   34   35 1    
    66   34   90 1    
    67   35   36 1    
    68   35   37 1    
    69   35   91 1    
    70   36   92 1    
    71   36   93 1    
    72   36   94 1    
    73   37   38 2    
    74   37   39 am   BACKBONE|DICT|INTERRES
    75   39   40 1    
    76   39   95 1    
    77   40   41 1    
    78   40   42 1    
    79   40   96 1    
    80   41   97 1    
    81   41   98 1    
    82   41   99 1    
    83   42   43 2    
    84   42   44 am   BACKBONE|DICT|INTERRES
    85   44   45 1    
    86   44  100 1    
    87   45   46 1    
    88   45   47 1    
    89   45  101 1    
    90   46  102 1    
    91   46  103 1    
    92   46  104 1    
    93   47   48 2    
    94   47   49 am   BACKBONE|DICT|INTERRES
    95   49   50 1    
    96   49  105 1    
    97   50   51 1    
    98   50   52 1    
    99   50  106 1    
   100   51  107 1    
   101   51  108 1    
   102   51  109 1    
   103   52   53 2    
   104   52   54 am   BACKBONE|DICT|INTERRES
   105   54   55 1    
   106   54  110 1    
   107   55   56 1    
   108   55   59 1    
   109   55  111 1    
   110   56   57 am   BACKBONE|DICT|INTERRES
   111   56   58 2    
   112   57  112 1    
   113   57  113 1    
   114   59   60 1    
   115   59  114 1    
   116   59  115 1    
   117   60   61 1    
   118   61  116 1    
   119   61  117 1    
@<TRIPOS>SUBSTRUCTURE
     1 UNK         1 GROUP             0       ****    0 ROOT    
