@<TRIPOS>MOLECULE
3R8
117   119    1
SMALL
USER_CHARGES


@<TRIPOS>ATOM
      1 CA         14.3992  -23.0108  -45.8203 C.3       0 UNK        -0.2013 
      2 C          15.6910  -23.8009  -45.9684 C.2       0 UNK         0.4866 
      3 O          16.5664  -23.4046  -46.7390 O.2       0 UNK        -0.5176 
      4 N          15.8135  -24.9200  -45.2443 N.am      1 UNK        -0.4884 
      5 CA         17.0021  -25.7779  -45.2244 C.3       1 UNK         0.0853 
      6 C6         16.7229  -27.1237  -44.5133 C.3       10 UNK        -0.0849 
      7 S7         15.5541  -28.1908  -45.4209 S.3       10 UNK        -0.2776 
      8 C8         15.4799  -29.6630  -44.3373 C.3       10 UNK         0.0316 
      9 C9         16.8661  -30.1552  -43.9397 C.ar      10 UNK        -0.0863 
     10 C10        17.7403  -30.6510  -44.9129 C.ar      10 UNK        -0.1009 
     11 C11        19.0484  -31.0021  -44.5730 C.ar      10 UNK        -0.0712 
     12 C12        19.4711  -30.8589  -43.2510 C.ar      10 UNK        -0.0894 
     13 C13        18.6030  -30.4080  -42.2558 C.ar      10 UNK        -0.0745 
     14 C14        17.2927  -30.0626  -42.6087 C.ar      10 UNK        -0.0972 
     15 C15        19.1165  -30.3402  -40.8167 C.3       10 UNK         0.0209 
     16 S16        18.4268  -28.9930  -39.7947 S.3       10 UNK        -0.2568 
     17 C17        18.7699  -27.4637  -40.7339 C.3       10 UNK        -0.0983 
     18 CA         20.1721  -27.3117  -41.3817 C.3       3 UNK         0.0876 
     19 N          20.1209  -26.2552  -42.3982 N.am      3 UNK        -0.4424 
     20 C          21.0736  -25.9386  -43.2824 C.2       2 UNK         0.4918 
     21 O          22.2076  -26.4175  -43.2607 O.2       2 UNK        -0.4875 
     22 CA         20.6716  -24.9318  -44.3814 C.3       2 UNK         0.0481 
     23 CB         21.7569  -24.7831  -45.4633 C.3       2 UNK        -0.1831 
     24 N          19.4063  -25.3177  -45.0198 N.am      2 UNK        -0.4498 
     25 C          18.1842  -25.0816  -44.5214 C.2       1 UNK         0.5027 
     26 O          17.9882  -24.4417  -43.4847 O.2       1 UNK        -0.4969 
     27 C          21.2852  -27.1024  -40.3305 C.2       3 UNK         0.5005 
     28 O          21.8196  -28.0784  -39.8033 O.2       3 UNK        -0.5279 
     29 N          21.6373  -25.8357  -40.0643 N.am      4 UNK        -0.4463 
     30 CA         22.7369  -25.4507  -39.1762 C.3       4 UNK         0.0283 
     31 CB         22.5981  -23.9636  -38.8125 C.3       4 UNK        -0.1875 
     32 C          24.1286  -25.7276  -39.7751 C.2       4 UNK         0.4949 
     33 O          25.0704  -25.9536  -39.0152 O.2       4 UNK        -0.5039 
     34 N          24.2405  -25.6926  -41.1104 N.am      5 UNK        -0.4663 
     35 CA         25.4760  -25.9722  -41.8432 C.3       5 UNK         0.0242 
     36 CB         25.5400  -25.0933  -43.1042 C.3       5 UNK        -0.1982 
     37 C          25.5629  -27.4601  -42.2037 C.2       5 UNK         0.5017 
     38 O          26.5671  -28.1058  -41.9004 O.2       5 UNK        -0.5012 
     39 N          24.4972  -27.9854  -42.8209 N.am      6 UNK        -0.4439 
     40 CA         24.3405  -29.3896  -43.1887 C.3       6 UNK         0.0297 
     41 CB         23.4050  -29.4831  -44.4086 C.3       6 UNK        -0.2006 
     42 C          23.8151  -30.1836  -41.9837 C.2       6 UNK         0.4892 
     43 O          22.6515  -30.5867  -41.9768 O.2       6 UNK        -0.5089 
     44 N          24.6782  -30.3664  -40.9748 N.am      7 UNK        -0.4243 
     45 CA         24.3912  -31.0495  -39.7102 C.3       7 UNK         0.0196 
     46 CB         25.6691  -31.0963  -38.8568 C.3       7 UNK        -0.2007 
     47 C          23.8178  -32.4605  -39.9279 C.2       7 UNK         0.5020 
     48 O          24.5070  -33.3212  -40.4803 O.2       7 UNK        -0.5147 
     49 N          22.5432  -32.6378  -39.5496 N.am      8 UNK        -0.4734 
     50 CA         21.7138  -33.8389  -39.7388 C.3       8 UNK         0.0238 
     51 CB         22.2351  -34.9962  -38.8602 C.3       8 UNK        -0.1912 
     52 C          21.5315  -34.2645  -41.2137 C.2       8 UNK         0.5038 
     53 O          21.1734  -35.4156  -41.4684 O.2       8 UNK        -0.5046 
     54 N          21.7790  -33.3415  -42.1547 N.am      9 UNK        -0.4200 
     55 CA         21.8053  -33.5699  -43.6073 C.3       9 UNK         0.0839 
     56 C          22.9729  -34.4873  -44.0851 C.2       9 UNK         0.5513 
     57 N          24.0397  -34.6479  -43.3082 N.am      9 UNK        -0.7519 
     58 O          22.9323  -35.0415  -45.1802 O.2       9 UNK        -0.4960 
     59 C59        20.4020  -33.9585  -44.1666 C.3       10 UNK        -0.0876 
     60 S60        20.0253  -33.3078  -45.8351 S.3       10 UNK        -0.2414 
     61 C61        20.0256  -31.4927  -45.6320 C.3       10 UNK         0.0169 
     62 H62        14.6143  -22.0047  -45.4611 H         1 UNK         0.0903 
     63 H63        13.8968  -22.9288  -46.7837 H         1 UNK         0.0903 
     64 H64        13.7111  -23.4815  -45.1183 H         1 UNK         0.0903 
     65 H65        15.0663  -25.1966  -44.6235 H         1 UNK         0.3096 
     66 H66        17.2885  -25.9792  -46.2594 H         1 UNK         0.1121 
     67 H67        16.3413  -26.9610  -43.5030 H         1 UNK         0.0849 
     68 H68        17.6567  -27.6785  -44.4009 H         1 UNK         0.0849 
     69 H69        14.8876  -29.4204  -43.4536 H         1 UNK         0.0865 
     70 H70        14.9459  -30.4617  -44.8538 H         1 UNK         0.0865 
     71 H71        17.4123  -30.7274  -45.9408 H         1 UNK         0.1346 
     72 H72        20.4855  -31.1144  -42.9946 H         1 UNK         0.1412 
     73 H73        16.6113  -29.6986  -41.8524 H         1 UNK         0.1426 
     74 H74        18.8810  -31.2877  -40.3308 H         1 UNK         0.0716 
     75 H75        20.2044  -30.2605  -40.7996 H         1 UNK         0.0716 
     76 H76        18.0062  -27.4187  -41.5119 H         1 UNK         0.0695 
     77 H77        18.5618  -26.6147  -40.0799 H         1 UNK         0.0695 
     78 H78        20.4230  -28.2253  -41.9222 H         1 UNK         0.0983 
     79 H79        19.2409  -25.7596  -42.4840 H         1 UNK         0.3095 
     80 H80        20.5476  -23.9592  -43.9009 H         1 UNK         0.0454 
     81 H81        21.9679  -25.7316  -45.9590 H         1 UNK         0.0851 
     82 H82        21.4614  -24.0630  -46.2264 H         1 UNK         0.0851 
     83 H83        22.6926  -24.4260  -45.0318 H         1 UNK         0.0851 
     84 H84        19.4883  -25.8879  -45.8501 H         1 UNK         0.2976 
     85 H85        21.1407  -25.0914  -40.5325 H         1 UNK         0.3116 
     86 H86        22.6525  -26.0340  -38.2566 H         1 UNK         0.0646 
     87 H87        22.6636  -23.3226  -39.6925 H         1 UNK         0.0847 
     88 H88        21.6479  -23.7617  -38.3178 H         1 UNK         0.0847 
     89 H89        23.3889  -23.6554  -38.1269 H         1 UNK         0.0847 
     90 H90        23.4040  -25.5642  -41.6648 H         1 UNK         0.3040 
     91 H91        26.3397  -25.7272  -41.2204 H         1 UNK         0.1015 
     92 H92        24.7060  -25.2834  -43.7803 H         1 UNK         0.0786 
     93 H93        26.4592  -25.2794  -43.6612 H         1 UNK         0.0786 
     94 H94        25.5265  -24.0339  -42.8475 H         1 UNK         0.0786 
     95 H95        23.6901  -27.3876  -42.9932 H         1 UNK         0.3172 
     96 H96        25.3089  -29.8053  -43.4753 H         1 UNK         0.0595 
     97 H97        23.3010  -30.5176  -44.7360 H         1 UNK         0.0839 
     98 H98        23.7955  -28.9143  -45.2524 H         1 UNK         0.0839 
     99 H99        22.4058  -29.1053  -44.1860 H         1 UNK         0.0839 
    100 H100       25.6021  -29.9650  -41.0751 H         1 UNK         0.2998 
    101 H101       23.6523  -30.4438  -39.1808 H         1 UNK         0.0822 
    102 H102       25.4822  -31.5891  -37.9017 H         1 UNK         0.0787 
    103 H103       26.4679  -31.6459  -39.3568 H         1 UNK         0.0787 
    104 H104       26.0370  -30.0936  -38.6374 H         1 UNK         0.0787 
    105 H105       22.0635  -31.8446  -39.1450 H         1 UNK         0.3055 
    106 H106       20.7150  -33.5796  -39.3838 H         1 UNK         0.1106 
    107 H107       22.3400  -34.6892  -37.8197 H         1 UNK         0.0828 
    108 H108       21.5485  -35.8435  -38.8766 H         1 UNK         0.0828 
    109 H109       23.2048  -35.3587  -39.2027 H         1 UNK         0.0828 
    110 H110       22.0887  -32.4189  -41.8608 H         1 UNK         0.2931 
    111 H111       22.0681  -32.5938  -44.0092 H         1 UNK         0.0412 
    112 H112       24.0974  -34.1976  -42.4023 H         1 UNK         0.3472 
    113 H113       24.7950  -35.2350  -43.6250 H         1 UNK         0.3472 
    114 H114       20.2878  -35.0438  -44.1833 H         1 UNK         0.0970 
    115 H115       19.6121  -33.6087  -43.5013 H         1 UNK         0.0970 
    116 H116       21.0331  -31.1467  -45.4033 H         1 UNK         0.0612 
    117 H117       19.7752  -31.0424  -46.5937 H         1 UNK         0.0612 
@<TRIPOS>BOND
     1    1    2 1    
     2    1   62 1    
     3    1   63 1    
     4    1   64 1    
     5    2    3 2    
     6    2    4 am   BACKBONE|DICT|INTERRES
     7    4    5 1    
     8    4   65 1    
     9    5    6 1    
    10    5   25 1    
    11    5   66 1    
    12    6    7 1    
    13    6   67 1    
    14    6   68 1    
    15    7    8 1    
    16    8    9 1    
    17    8   69 1    
    18    8   70 1    
    19    9   10 ar   
    20    9   14 ar   
    21   10   11 ar   
    22   10   71 1    
    23   11   12 ar   
    24   11   61 1    
    25   12   13 ar   
    26   12   72 1    
    27   13   14 ar   
    28   13   15 1    
    29   14   73 1    
    30   15   16 1    
    31   15   74 1    
    32   15   75 1    
    33   16   17 1    
    34   17   18 1    
    35   17   76 1    
    36   17   77 1    
    37   18   19 1    
    38   18   27 1    
    39   18   78 1    
    40   19   20 am   BACKBONE|DICT|INTERRES
    41   19   79 1    
    42   20   21 2    
    43   20   22 1    
    44   22   23 1    
    45   22   24 1    
    46   22   80 1    
    47   23   81 1    
    48   23   82 1    
    49   23   83 1    
    50   24   25 am   BACKBONE|DICT|INTERRES
    51   24   84 1    
    52   25   26 2    
    53   27   28 2    
    54   27   29 am   BACKBONE|DICT|INTERRES
    55   29   30 1    
    56   29   85 1    
    57   30   31 1    
    58   30   32 1    
    59   30   86 1    
    60   31   87 1    
    61   31   88 1    
    62   31   89 1    
    63   32   33 2    
    64   32   34 am   BACKBONE|DICT|INTERRES
    65   34   35 1    
    66   34   90 1    
    67   35   36 1    
    68   35   37 1    
    69   35   91 1    
    70   36   92 1    
    71   36   93 1    
    72   36   94 1    
    73   37   38 2    
    74   37   39 am   BACKBONE|DICT|INTERRES
    75   39   40 1    
    76   39   95 1    
    77   40   41 1    
    78   40   42 1    
    79   40   96 1    
    80   41   97 1    
    81   41   98 1    
    82   41   99 1    
    83   42   43 2    
    84   42   44 am   BACKBONE|DICT|INTERRES
    85   44   45 1    
    86   44  100 1    
    87   45   46 1    
    88   45   47 1    
    89   45  101 1    
    90   46  102 1    
    91   46  103 1    
    92   46  104 1    
    93   47   48 2    
    94   47   49 am   BACKBONE|DICT|INTERRES
    95   49   50 1    
    96   49  105 1    
    97   50   51 1    
    98   50   52 1    
    99   50  106 1    
   100   51  107 1    
   101   51  108 1    
   102   51  109 1    
   103   52   53 2    
   104   52   54 am   BACKBONE|DICT|INTERRES
   105   54   55 1    
   106   54  110 1    
   107   55   56 1    
   108   55   59 1    
   109   55  111 1    
   110   56   57 am   BACKBONE|DICT|INTERRES
   111   56   58 2    
   112   57  112 1    
   113   57  113 1    
   114   59   60 1    
   115   59  114 1    
   116   59  115 1    
   117   60   61 1    
   118   61  116 1    
   119   61  117 1    
@<TRIPOS>SUBSTRUCTURE
     1 UNK         1 GROUP             0       ****    0 ROOT    
